MODEL 1
REMARK VINA RESULT:     -10.6      0.000      0.000
REMARK  3 active torsions:
REMARK  status: ('A' for Active; 'I' for Inactive)
REMARK    1  A    between atoms: C_4  and  N_5 
REMARK    2  A    between atoms: N_5  and  C_6 
REMARK    3  A    between atoms: C_13  and  C_14 
ROOT
HETATM    1  C   UNL     1      42.598 -14.078   3.590  1.00  0.00     0.741 A 
HETATM    2  N   UNL     1      42.800 -15.358   3.236  1.00  0.00    -0.066 NA
HETATM    3  C   UNL     1      43.124 -16.255   4.192  1.00  0.00     0.069 A 
HETATM    4  C   UNL     1      43.240 -15.901   5.516  1.00  0.00     0.053 A 
HETATM    5  C   UNL     1      43.564 -16.887   6.558  1.00  0.00     0.163 C 
HETATM    6  O   UNL     1      43.637 -16.533   7.730  1.00  0.00    -0.292 OA
HETATM    7  C   UNL     1      43.722 -18.333   6.138  1.00  0.00     0.093 C 
HETATM    8  C   UNL     1      44.226 -18.448   4.695  1.00  0.00     0.031 C 
HETATM    9  C   UNL     1      43.298 -17.679   3.742  1.00  0.00     0.070 C 
HETATM   10  C   UNL     1      43.027 -14.575   5.802  1.00  0.00     0.153 A 
HETATM   11  N   UNL     1      42.708 -13.653   4.863  1.00  0.00    -0.073 NA
ENDROOT
BRANCH   1  12
HETATM   12  N   UNL     1      42.247 -13.118   2.668  1.00  0.00    -0.015 N 
HETATM   13  H   UNL     1      41.952 -12.248   3.068  1.00  0.00     0.203 HD
BRANCH  12  14
HETATM   14  C   UNL     1      42.132 -13.167   1.294  1.00  0.00     0.742 A 
HETATM   15  N   UNL     1      42.560 -12.074   0.643  1.00  0.00    -0.066 NA
HETATM   16  C   UNL     1      42.465 -12.061  -0.707  1.00  0.00     0.062 A 
HETATM   17  C   UNL     1      42.951 -10.809  -1.377  1.00  0.00     0.072 C 
HETATM   18  C   UNL     1      41.946 -13.134  -1.439  1.00  0.00     0.018 A 
HETATM   19  C   UNL     1      41.535 -14.221  -0.664  1.00  0.00     0.088 A 
HETATM   20  C   UNL     1      41.817 -13.190  -2.850  1.00  0.00     0.016 A 
HETATM   21  N   UNL     1      41.625 -14.235   0.668  1.00  0.00    -0.062 NA
HETATM   22  C   UNL     1      41.008 -15.335  -1.305  1.00  0.00     0.033 A 
HETATM   23  C   UNL     1      40.878 -15.395  -2.694  1.00  0.00     0.002 A 
HETATM   24  C   UNL     1      41.285 -14.318  -3.471  1.00  0.00     0.001 A 
ENDBRANCH  12  14
ENDBRANCH   1  12
BRANCH   8  25
HETATM   25  C   UNL     1      44.392 -19.895   4.269  1.00  0.00    -0.053 A 
HETATM   26  C   UNL     1      44.704 -20.907   5.191  1.00  0.00     0.007 A 
HETATM   27  C   UNL     1      44.839 -22.233   4.777  1.00  0.00     0.001 A 
HETATM   28  C   UNL     1      44.667 -22.567   3.437  1.00  0.00     0.000 A 
HETATM   29  C   UNL     1      44.363 -21.575   2.508  1.00  0.00     0.001 A 
HETATM   30  C   UNL     1      44.226 -20.247   2.920  1.00  0.00     0.007 A 
ENDBRANCH   8  25
TORSDOF 3
ENDMDL
MODEL 2
REMARK VINA RESULT:     -10.5      1.604      2.097
REMARK  3 active torsions:
REMARK  status: ('A' for Active; 'I' for Inactive)
REMARK    1  A    between atoms: C_4  and  N_5 
REMARK    2  A    between atoms: N_5  and  C_6 
REMARK    3  A    between atoms: C_13  and  C_14 
ROOT
HETATM    1  C   UNL     1      42.404 -14.336   2.124  1.00  0.00     0.741 A 
HETATM    2  N   UNL     1      42.619 -15.658   2.017  1.00  0.00    -0.066 NA
HETATM    3  C   UNL     1      43.001 -16.346   3.114  1.00  0.00     0.069 A 
HETATM    4  C   UNL     1      43.164 -15.739   4.337  1.00  0.00     0.053 A 
HETATM    5  C   UNL     1      43.550 -16.498   5.536  1.00  0.00     0.163 C 
HETATM    6  O   UNL     1      43.664 -15.920   6.612  1.00  0.00    -0.292 OA
HETATM    7  C   UNL     1      43.722 -17.996   5.399  1.00  0.00     0.093 C 
HETATM    8  C   UNL     1      44.170 -18.384   3.985  1.00  0.00     0.031 C 
HETATM    9  C   UNL     1      43.187 -17.828   2.943  1.00  0.00     0.070 C 
HETATM   10  C   UNL     1      42.933 -14.385   4.369  1.00  0.00     0.153 A 
HETATM   11  N   UNL     1      42.557 -13.669   3.284  1.00  0.00    -0.073 NA
ENDROOT
BRANCH   1  12
HETATM   12  N   UNL     1      41.995 -13.580   1.048  1.00  0.00    -0.015 N 
HETATM   13  H   UNL     1      42.430 -12.679   0.987  1.00  0.00     0.203 HD
BRANCH  12  14
HETATM   14  C   UNL     1      41.022 -13.796   0.094  1.00  0.00     0.742 A 
HETATM   15  N   UNL     1      39.857 -13.165   0.310  1.00  0.00    -0.066 NA
HETATM   16  C   UNL     1      38.862 -13.346  -0.589  1.00  0.00     0.062 A 
HETATM   17  C   UNL     1      37.581 -12.623  -0.287  1.00  0.00     0.072 C 
HETATM   18  C   UNL     1      39.003 -14.153  -1.723  1.00  0.00     0.018 A 
HETATM   19  C   UNL     1      40.256 -14.756  -1.853  1.00  0.00     0.088 A 
HETATM   20  C   UNL     1      38.007 -14.386  -2.703  1.00  0.00     0.016 A 
HETATM   21  N   UNL     1      41.238 -14.582  -0.966  1.00  0.00    -0.062 NA
HETATM   22  C   UNL     1      40.490 -15.575  -2.951  1.00  0.00     0.033 A 
HETATM   23  C   UNL     1      39.512 -15.809  -3.920  1.00  0.00     0.002 A 
HETATM   24  C   UNL     1      38.264 -15.212  -3.796  1.00  0.00     0.001 A 
ENDBRANCH  12  14
ENDBRANCH   1  12
BRANCH   8  25
HETATM   25  C   UNL     1      44.350 -19.884   3.842  1.00  0.00    -0.053 A 
HETATM   26  C   UNL     1      44.697 -20.695   4.935  1.00  0.00     0.007 A 
HETATM   27  C   UNL     1      44.844 -22.074   4.781  1.00  0.00     0.001 A 
HETATM   28  C   UNL     1      44.649 -22.663   3.534  1.00  0.00     0.000 A 
HETATM   29  C   UNL     1      44.309 -21.872   2.440  1.00  0.00     0.001 A 
HETATM   30  C   UNL     1      44.160 -20.492   2.591  1.00  0.00     0.007 A 
ENDBRANCH   8  25
TORSDOF 3
ENDMDL
MODEL 3
REMARK VINA RESULT:     -10.4      0.879      2.247
REMARK  3 active torsions:
REMARK  status: ('A' for Active; 'I' for Inactive)
REMARK    1  A    between atoms: C_4  and  N_5 
REMARK    2  A    between atoms: N_5  and  C_6 
REMARK    3  A    between atoms: C_13  and  C_14 
ROOT
HETATM    1  C   UNL     1      42.631 -13.582   3.126  1.00  0.00     0.741 A 
HETATM    2  N   UNL     1      42.756 -14.858   2.722  1.00  0.00    -0.066 NA
HETATM    3  C   UNL     1      43.063 -15.803   3.636  1.00  0.00     0.069 A 
HETATM    4  C   UNL     1      43.239 -15.502   4.967  1.00  0.00     0.053 A 
HETATM    5  C   UNL     1      43.544 -16.539   5.964  1.00  0.00     0.163 C 
HETATM    6  O   UNL     1      43.671 -16.230   7.144  1.00  0.00    -0.292 OA
HETATM    7  C   UNL     1      43.615 -17.975   5.491  1.00  0.00     0.093 C 
HETATM    8  C   UNL     1      44.067 -18.064   4.029  1.00  0.00     0.031 C 
HETATM    9  C   UNL     1      43.151 -17.217   3.134  1.00  0.00     0.070 C 
HETATM   10  C   UNL     1      43.102 -14.178   5.305  1.00  0.00     0.153 A 
HETATM   11  N   UNL     1      42.802 -13.209   4.408  1.00  0.00    -0.073 NA
ENDROOT
BRANCH   1  12
HETATM   12  N   UNL     1      42.300 -12.574   2.248  1.00  0.00    -0.015 N 
HETATM   13  H   UNL     1      42.009 -11.722   2.688  1.00  0.00     0.203 HD
BRANCH  12  14
HETATM   14  C   UNL     1      42.201 -12.554   0.872  1.00  0.00     0.742 A 
HETATM   15  N   UNL     1      41.697 -13.667   0.316  1.00  0.00    -0.066 NA
HETATM   16  C   UNL     1      41.583 -13.708  -1.031  1.00  0.00     0.062 A 
HETATM   17  C   UNL     1      41.022 -14.982  -1.593  1.00  0.00     0.072 C 
HETATM   18  C   UNL     1      41.965 -12.645  -1.856  1.00  0.00     0.018 A 
HETATM   19  C   UNL     1      42.472 -11.536  -1.175  1.00  0.00     0.088 A 
HETATM   20  C   UNL     1      41.874 -12.619  -3.270  1.00  0.00     0.016 A 
HETATM   21  N   UNL     1      42.587 -11.493   0.154  1.00  0.00    -0.062 NA
HETATM   22  C   UNL     1      42.875 -10.428  -1.912  1.00  0.00     0.033 A 
HETATM   23  C   UNL     1      42.788 -10.397  -3.305  1.00  0.00     0.002 A 
HETATM   24  C   UNL     1      42.285 -11.497  -3.988  1.00  0.00     0.001 A 
ENDBRANCH  12  14
ENDBRANCH   1  12
BRANCH   8  25
HETATM   25  C   UNL     1      44.147 -19.502   3.550  1.00  0.00    -0.053 A 
HETATM   26  C   UNL     1      43.701 -19.882   2.274  1.00  0.00     0.007 A 
HETATM   27  C   UNL     1      43.797 -21.209   1.851  1.00  0.00     0.001 A 
HETATM   28  C   UNL     1      44.336 -22.175   2.697  1.00  0.00     0.000 A 
HETATM   29  C   UNL     1      44.778 -21.815   3.968  1.00  0.00     0.001 A 
HETATM   30  C   UNL     1      44.684 -20.488   4.393  1.00  0.00     0.007 A 
ENDBRANCH   8  25
TORSDOF 3
ENDMDL
MODEL 4
REMARK VINA RESULT:     -10.3      2.237      3.480
REMARK  3 active torsions:
REMARK  status: ('A' for Active; 'I' for Inactive)
REMARK    1  A    between atoms: C_4  and  N_5 
REMARK    2  A    between atoms: N_5  and  C_6 
REMARK    3  A    between atoms: C_13  and  C_14 
ROOT
HETATM    1  C   UNL     1      41.267 -15.700  -0.116  1.00  0.00     0.741 A 
HETATM    2  N   UNL     1      41.634 -16.930   0.280  1.00  0.00    -0.066 NA
HETATM    3  C   UNL     1      42.270 -17.071   1.463  1.00  0.00     0.069 A 
HETATM    4  C   UNL     1      42.541 -15.997   2.278  1.00  0.00     0.053 A 
HETATM    5  C   UNL     1      43.207 -16.158   3.580  1.00  0.00     0.163 C 
HETATM    6  O   UNL     1      43.410 -15.175   4.285  1.00  0.00    -0.292 OA
HETATM    7  C   UNL     1      43.550 -17.562   4.029  1.00  0.00     0.093 C 
HETATM    8  C   UNL     1      43.818 -18.485   2.834  1.00  0.00     0.031 C 
HETATM    9  C   UNL     1      42.620 -18.474   1.872  1.00  0.00     0.070 C 
HETATM   10  C   UNL     1      42.142 -14.770   1.806  1.00  0.00     0.153 A 
HETATM   11  N   UNL     1      41.510 -14.599   0.621  1.00  0.00    -0.073 NA
ENDROOT
BRANCH   1  12
HETATM   12  N   UNL     1      40.598 -15.490  -1.302  1.00  0.00    -0.015 N 
HETATM   13  H   UNL     1      40.192 -16.316  -1.699  1.00  0.00     0.203 HD
BRANCH  12  14
HETATM   14  C   UNL     1      40.469 -14.368  -2.094  1.00  0.00     0.742 A 
HETATM   15  N   UNL     1      39.207 -13.979  -2.336  1.00  0.00    -0.066 NA
HETATM   16  C   UNL     1      39.018 -12.889  -3.114  1.00  0.00     0.062 A 
HETATM   17  C   UNL     1      37.586 -12.510  -3.357  1.00  0.00     0.072 C 
HETATM   18  C   UNL     1      40.076 -12.159  -3.666  1.00  0.00     0.018 A 
HETATM   19  C   UNL     1      41.345 -12.647  -3.347  1.00  0.00     0.088 A 
HETATM   20  C   UNL     1      39.953 -11.011  -4.487  1.00  0.00     0.016 A 
HETATM   21  N   UNL     1      41.535 -13.724  -2.581  1.00  0.00    -0.062 NA
HETATM   22  C   UNL     1      42.460 -11.985  -3.848  1.00  0.00     0.033 A 
HETATM   23  C   UNL     1      42.343 -10.853  -4.657  1.00  0.00     0.002 A 
HETATM   24  C   UNL     1      41.084 -10.363  -4.979  1.00  0.00     0.001 A 
ENDBRANCH  12  14
ENDBRANCH   1  12
BRANCH   8  25
HETATM   25  C   UNL     1      44.169 -19.893   3.277  1.00  0.00    -0.053 A 
HETATM   26  C   UNL     1      44.546 -20.181   4.599  1.00  0.00     0.007 A 
HETATM   27  C   UNL     1      44.851 -21.487   4.984  1.00  0.00     0.001 A 
HETATM   28  C   UNL     1      44.788 -22.523   4.057  1.00  0.00     0.000 A 
HETATM   29  C   UNL     1      44.421 -22.254   2.741  1.00  0.00     0.001 A 
HETATM   30  C   UNL     1      44.114 -20.948   2.352  1.00  0.00     0.007 A 
ENDBRANCH   8  25
TORSDOF 3
ENDMDL
MODEL 5
REMARK VINA RESULT:      -9.9      2.657      3.786
REMARK  3 active torsions:
REMARK  status: ('A' for Active; 'I' for Inactive)
REMARK    1  A    between atoms: C_4  and  N_5 
REMARK    2  A    between atoms: N_5  and  C_6 
REMARK    3  A    between atoms: C_13  and  C_14 
ROOT
HETATM    1  C   UNL     1      41.791 -14.409   0.087  1.00  0.00     0.741 A 
HETATM    2  N   UNL     1      42.119 -15.707   0.201  1.00  0.00    -0.066 NA
HETATM    3  C   UNL     1      42.397 -16.204   1.425  1.00  0.00     0.069 A 
HETATM    4  C   UNL     1      42.342 -15.427   2.558  1.00  0.00     0.053 A 
HETATM    5  C   UNL     1      42.616 -15.980   3.893  1.00  0.00     0.163 C 
HETATM    6  O   UNL     1      42.535 -15.256   4.880  1.00  0.00    -0.292 OA
HETATM    7  C   UNL     1      42.919 -17.459   3.997  1.00  0.00     0.093 C 
HETATM    8  C   UNL     1      43.586 -17.988   2.722  1.00  0.00     0.031 C 
HETATM    9  C   UNL     1      42.717 -17.671   1.495  1.00  0.00     0.070 C 
HETATM   10  C   UNL     1      42.007 -14.109   2.365  1.00  0.00     0.153 A 
HETATM   11  N   UNL     1      41.731 -13.583   1.149  1.00  0.00    -0.073 NA
ENDROOT
BRANCH   1  12
HETATM   12  N   UNL     1      41.478 -13.845  -1.129  1.00  0.00    -0.015 N 
HETATM   13  H   UNL     1      42.178 -13.224  -1.489  1.00  0.00     0.203 HD
BRANCH  12  14
HETATM   14  C   UNL     1      40.333 -13.901  -1.897  1.00  0.00     0.742 A 
HETATM   15  N   UNL     1      40.172 -15.028  -2.606  1.00  0.00    -0.066 NA
HETATM   16  C   UNL     1      39.071 -15.137  -3.385  1.00  0.00     0.062 A 
HETATM   17  C   UNL     1      38.953 -16.416  -4.162  1.00  0.00     0.072 C 
HETATM   18  C   UNL     1      38.104 -14.130  -3.472  1.00  0.00     0.018 A 
HETATM   19  C   UNL     1      38.367 -13.004  -2.690  1.00  0.00     0.088 A 
HETATM   20  C   UNL     1      36.929 -14.176  -4.264  1.00  0.00     0.016 A 
HETATM   21  N   UNL     1      39.454 -12.893  -1.923  1.00  0.00    -0.062 NA
HETATM   22  C   UNL     1      37.459 -11.951  -2.710  1.00  0.00     0.033 A 
HETATM   23  C   UNL     1      36.300 -11.991  -3.489  1.00  0.00     0.002 A 
HETATM   24  C   UNL     1      36.033 -13.108  -4.269  1.00  0.00     0.001 A 
ENDBRANCH  12  14
ENDBRANCH   1  12
BRANCH   8  25
HETATM   25  C   UNL     1      43.898 -19.470   2.821  1.00  0.00    -0.053 A 
HETATM   26  C   UNL     1      44.499 -20.024   3.962  1.00  0.00     0.007 A 
HETATM   27  C   UNL     1      44.764 -21.393   4.035  1.00  0.00     0.001 A 
HETATM   28  C   UNL     1      44.435 -22.226   2.969  1.00  0.00     0.000 A 
HETATM   29  C   UNL     1      43.842 -21.691   1.828  1.00  0.00     0.001 A 
HETATM   30  C   UNL     1      43.575 -20.322   1.754  1.00  0.00     0.007 A 
ENDBRANCH   8  25
TORSDOF 3
ENDMDL
MODEL 6
REMARK VINA RESULT:      -9.9      4.535      8.341
REMARK  3 active torsions:
REMARK  status: ('A' for Active; 'I' for Inactive)
REMARK    1  A    between atoms: C_4  and  N_5 
REMARK    2  A    between atoms: N_5  and  C_6 
REMARK    3  A    between atoms: C_13  and  C_14 
ROOT
HETATM    1  C   UNL     1      41.557 -11.876   6.268  1.00  0.00     0.741 A 
HETATM    2  N   UNL     1      42.324 -12.972   6.147  1.00  0.00    -0.066 NA
HETATM    3  C   UNL     1      41.942 -13.943   5.291  1.00  0.00     0.069 A 
HETATM    4  C   UNL     1      40.801 -13.839   4.530  1.00  0.00     0.053 A 
HETATM    5  C   UNL     1      40.404 -14.886   3.576  1.00  0.00     0.163 C 
HETATM    6  O   UNL     1      39.389 -14.742   2.902  1.00  0.00    -0.292 OA
HETATM    7  C   UNL     1      41.322 -16.079   3.414  1.00  0.00     0.093 C 
HETATM    8  C   UNL     1      42.092 -16.375   4.706  1.00  0.00     0.031 C 
HETATM    9  C   UNL     1      42.860 -15.127   5.168  1.00  0.00     0.070 C 
HETATM   10  C   UNL     1      40.063 -12.694   4.711  1.00  0.00     0.153 A 
HETATM   11  N   UNL     1      40.419 -11.708   5.568  1.00  0.00    -0.073 NA
ENDROOT
BRANCH   1  12
HETATM   12  N   UNL     1      41.900 -10.841   7.109  1.00  0.00    -0.015 N 
HETATM   13  H   UNL     1      41.987  -9.951   6.655  1.00  0.00     0.203 HD
BRANCH  12  14
HETATM   14  C   UNL     1      42.242 -10.822   8.445  1.00  0.00     0.742 A 
HETATM   15  N   UNL     1      43.560 -10.818   8.700  1.00  0.00    -0.066 NA
HETATM   16  C   UNL     1      43.957 -10.808   9.993  1.00  0.00     0.062 A 
HETATM   17  C   UNL     1      45.441 -10.815  10.213  1.00  0.00     0.072 C 
HETATM   18  C   UNL     1      43.054 -10.797  11.062  1.00  0.00     0.018 A 
HETATM   19  C   UNL     1      41.709 -10.797  10.685  1.00  0.00     0.088 A 
HETATM   20  C   UNL     1      43.396 -10.786  12.437  1.00  0.00     0.016 A 
HETATM   21  N   UNL     1      41.315 -10.809   9.409  1.00  0.00    -0.062 NA
HETATM   22  C   UNL     1      40.738 -10.783  11.679  1.00  0.00     0.033 A 
HETATM   23  C   UNL     1      41.070 -10.772  13.035  1.00  0.00     0.002 A 
HETATM   24  C   UNL     1      42.405 -10.773  13.417  1.00  0.00     0.001 A 
ENDBRANCH  12  14
ENDBRANCH   1  12
BRANCH   8  25
HETATM   25  C   UNL     1      43.010 -17.574   4.553  1.00  0.00    -0.053 A 
HETATM   26  C   UNL     1      43.836 -18.012   5.600  1.00  0.00     0.007 A 
HETATM   27  C   UNL     1      44.662 -19.126   5.439  1.00  0.00     0.001 A 
HETATM   28  C   UNL     1      44.677 -19.816   4.230  1.00  0.00     0.000 A 
HETATM   29  C   UNL     1      43.867 -19.391   3.179  1.00  0.00     0.001 A 
HETATM   30  C   UNL     1      43.039 -18.277   3.339  1.00  0.00     0.007 A 
ENDBRANCH   8  25
TORSDOF 3
ENDMDL
MODEL 7
REMARK VINA RESULT:      -9.7      4.190      7.888
REMARK  3 active torsions:
REMARK  status: ('A' for Active; 'I' for Inactive)
REMARK    1  A    between atoms: C_4  and  N_5 
REMARK    2  A    between atoms: N_5  and  C_6 
REMARK    3  A    between atoms: C_13  and  C_14 
ROOT
HETATM    1  C   UNL     1      41.172 -12.150   5.344  1.00  0.00     0.741 A 
HETATM    2  N   UNL     1      41.974 -13.226   5.298  1.00  0.00    -0.066 NA
HETATM    3  C   UNL     1      41.633 -14.259   4.498  1.00  0.00     0.069 A 
HETATM    4  C   UNL     1      40.500 -14.236   3.720  1.00  0.00     0.053 A 
HETATM    5  C   UNL     1      40.148 -15.351   2.827  1.00  0.00     0.163 C 
HETATM    6  O   UNL     1      39.138 -15.280   2.134  1.00  0.00    -0.292 OA
HETATM    7  C   UNL     1      41.104 -16.522   2.748  1.00  0.00     0.093 C 
HETATM    8  C   UNL     1      41.866 -16.715   4.064  1.00  0.00     0.031 C 
HETATM    9  C   UNL     1      42.589 -15.419   4.458  1.00  0.00     0.070 C 
HETATM   10  C   UNL     1      39.725 -13.107   3.822  1.00  0.00     0.153 A 
HETATM   11  N   UNL     1      40.039 -12.061   4.622  1.00  0.00    -0.073 NA
ENDROOT
BRANCH   1  12
HETATM   12  N   UNL     1      41.472 -11.055   6.124  1.00  0.00    -0.015 N 
HETATM   13  H   UNL     1      41.625 -10.210   5.609  1.00  0.00     0.203 HD
BRANCH  12  14
HETATM   14  C   UNL     1      41.698 -10.932   7.480  1.00  0.00     0.742 A 
HETATM   15  N   UNL     1      40.604 -10.723   8.228  1.00  0.00    -0.066 NA
HETATM   16  C   UNL     1      40.764 -10.586   9.564  1.00  0.00     0.062 A 
HETATM   17  C   UNL     1      39.505 -10.344  10.344  1.00  0.00     0.072 C 
HETATM   18  C   UNL     1      42.015 -10.658  10.187  1.00  0.00     0.018 A 
HETATM   19  C   UNL     1      43.084 -10.883   9.317  1.00  0.00     0.088 A 
HETATM   20  C   UNL     1      42.257 -10.525  11.577  1.00  0.00     0.016 A 
HETATM   21  N   UNL     1      42.928 -11.016   7.998  1.00  0.00    -0.062 NA
HETATM   22  C   UNL     1      44.366 -10.972   9.846  1.00  0.00     0.033 A 
HETATM   23  C   UNL     1      44.610 -10.841  11.215  1.00  0.00     0.002 A 
HETATM   24  C   UNL     1      43.552 -10.616  12.085  1.00  0.00     0.001 A 
ENDBRANCH  12  14
ENDBRANCH   1  12
BRANCH   8  25
HETATM   25  C   UNL     1      42.822 -17.892   3.994  1.00  0.00    -0.053 A 
HETATM   26  C   UNL     1      42.991 -18.639   2.817  1.00  0.00     0.007 A 
HETATM   27  C   UNL     1      43.887 -19.709   2.774  1.00  0.00     0.001 A 
HETATM   28  C   UNL     1      44.623 -20.050   3.905  1.00  0.00     0.000 A 
HETATM   29  C   UNL     1      44.463 -19.322   5.082  1.00  0.00     0.001 A 
HETATM   30  C   UNL     1      43.568 -18.250   5.127  1.00  0.00     0.007 A 
ENDBRANCH   8  25
TORSDOF 3
ENDMDL
MODEL 8
REMARK VINA RESULT:      -9.6      2.667      8.806
REMARK  3 active torsions:
REMARK  status: ('A' for Active; 'I' for Inactive)
REMARK    1  A    between atoms: C_4  and  N_5 
REMARK    2  A    between atoms: N_5  and  C_6 
REMARK    3  A    between atoms: C_13  and  C_14 
ROOT
HETATM    1  C   UNL     1      41.257 -15.391   2.717  1.00  0.00     0.741 A 
HETATM    2  N   UNL     1      41.796 -14.551   1.817  1.00  0.00    -0.066 NA
HETATM    3  C   UNL     1      40.995 -14.000   0.880  1.00  0.00     0.069 A 
HETATM    4  C   UNL     1      39.646 -14.262   0.826  1.00  0.00     0.053 A 
HETATM    5  C   UNL     1      38.773 -13.637  -0.178  1.00  0.00     0.163 C 
HETATM    6  O   UNL     1      37.571 -13.882  -0.177  1.00  0.00    -0.292 OA
HETATM    7  C   UNL     1      39.396 -12.645  -1.138  1.00  0.00     0.093 C 
HETATM    8  C   UNL     1      40.872 -12.967  -1.399  1.00  0.00     0.031 C 
HETATM    9  C   UNL     1      41.646 -13.038  -0.075  1.00  0.00     0.070 C 
HETATM   10  C   UNL     1      39.167 -15.134   1.773  1.00  0.00     0.153 A 
HETATM   11  N   UNL     1      39.948 -15.707   2.719  1.00  0.00    -0.073 NA
ENDROOT
BRANCH   1  12
HETATM   12  N   UNL     1      42.014 -15.971   3.710  1.00  0.00    -0.015 N 
HETATM   13  H   UNL     1      42.137 -15.399   4.523  1.00  0.00     0.203 HD
BRANCH  12  14
HETATM   14  C   UNL     1      42.717 -17.157   3.751  1.00  0.00     0.742 A 
HETATM   15  N   UNL     1      43.538 -17.302   4.803  1.00  0.00    -0.066 NA
HETATM   16  C   UNL     1      44.260 -18.443   4.893  1.00  0.00     0.062 A 
HETATM   17  C   UNL     1      45.166 -18.542   6.085  1.00  0.00     0.072 C 
HETATM   18  C   UNL     1      44.180 -19.466   3.941  1.00  0.00     0.018 A 
HETATM   19  C   UNL     1      43.294 -19.214   2.892  1.00  0.00     0.088 A 
HETATM   20  C   UNL     1      44.905 -20.684   3.971  1.00  0.00     0.016 A 
HETATM   21  N   UNL     1      42.582 -18.089   2.800  1.00  0.00    -0.062 NA
HETATM   22  C   UNL     1      43.146 -20.175   1.899  1.00  0.00     0.033 A 
HETATM   23  C   UNL     1      43.857 -21.377   1.924  1.00  0.00     0.002 A 
HETATM   24  C   UNL     1      44.741 -21.633   2.964  1.00  0.00     0.001 A 
ENDBRANCH  12  14
ENDBRANCH   1  12
BRANCH   8  25
HETATM   25  C   UNL     1      41.502 -11.980  -2.365  1.00  0.00    -0.053 A 
HETATM   26  C   UNL     1      41.435 -12.161  -3.756  1.00  0.00     0.007 A 
HETATM   27  C   UNL     1      42.011 -11.232  -4.624  1.00  0.00     0.001 A 
HETATM   28  C   UNL     1      42.663 -10.112  -4.117  1.00  0.00     0.000 A 
HETATM   29  C   UNL     1      42.742  -9.920  -2.739  1.00  0.00     0.001 A 
HETATM   30  C   UNL     1      42.166 -10.848  -1.869  1.00  0.00     0.007 A 
ENDBRANCH   8  25
TORSDOF 3
ENDMDL
MODEL 9
REMARK VINA RESULT:      -9.6      3.070      3.513
REMARK  3 active torsions:
REMARK  status: ('A' for Active; 'I' for Inactive)
REMARK    1  A    between atoms: C_4  and  N_5 
REMARK    2  A    between atoms: N_5  and  C_6 
REMARK    3  A    between atoms: C_13  and  C_14 
ROOT
HETATM    1  C   UNL     1      39.586 -15.229   2.109  1.00  0.00     0.741 A 
HETATM    2  N   UNL     1      40.095 -16.472   2.076  1.00  0.00    -0.066 NA
HETATM    3  C   UNL     1      41.218 -16.735   2.779  1.00  0.00     0.069 A 
HETATM    4  C   UNL     1      41.846 -15.775   3.536  1.00  0.00     0.053 A 
HETATM    5  C   UNL     1      43.052 -16.074   4.325  1.00  0.00     0.163 C 
HETATM    6  O   UNL     1      43.569 -15.192   5.004  1.00  0.00    -0.292 OA
HETATM    7  C   UNL     1      43.565 -17.498   4.320  1.00  0.00     0.093 C 
HETATM    8  C   UNL     1      43.229 -18.211   3.005  1.00  0.00     0.031 C 
HETATM    9  C   UNL     1      41.718 -18.152   2.736  1.00  0.00     0.070 C 
HETATM   10  C   UNL     1      41.273 -14.527   3.517  1.00  0.00     0.153 A 
HETATM   11  N   UNL     1      40.154 -14.233   2.816  1.00  0.00    -0.073 NA
ENDROOT
BRANCH   1  12
HETATM   12  N   UNL     1      38.434 -14.900   1.430  1.00  0.00    -0.015 N 
HETATM   13  H   UNL     1      37.664 -15.517   1.601  1.00  0.00     0.203 HD
BRANCH  12  14
HETATM   14  C   UNL     1      38.175 -13.933   0.481  1.00  0.00     0.742 A 
HETATM   15  N   UNL     1      37.169 -13.096   0.774  1.00  0.00    -0.066 NA
HETATM   16  C   UNL     1      36.863 -12.131  -0.123  1.00  0.00     0.062 A 
HETATM   17  C   UNL     1      35.722 -11.233   0.257  1.00  0.00     0.072 C 
HETATM   18  C   UNL     1      37.553 -11.974  -1.330  1.00  0.00     0.018 A 
HETATM   19  C   UNL     1      38.583 -12.895  -1.533  1.00  0.00     0.088 A 
HETATM   20  C   UNL     1      37.289 -10.989  -2.314  1.00  0.00     0.016 A 
HETATM   21  N   UNL     1      38.885 -13.849  -0.650  1.00  0.00    -0.062 NA
HETATM   22  C   UNL     1      39.327 -12.815  -2.704  1.00  0.00     0.033 A 
HETATM   23  C   UNL     1      39.071 -11.846  -3.677  1.00  0.00     0.002 A 
HETATM   24  C   UNL     1      38.047 -10.929  -3.482  1.00  0.00     0.001 A 
ENDBRANCH  12  14
ENDBRANCH   1  12
BRANCH   8  25
HETATM   25  C   UNL     1      43.746 -19.639   2.991  1.00  0.00    -0.053 A 
HETATM   26  C   UNL     1      44.443 -20.184   4.080  1.00  0.00     0.007 A 
HETATM   27  C   UNL     1      44.897 -21.504   4.048  1.00  0.00     0.001 A 
HETATM   28  C   UNL     1      44.664 -22.296   2.927  1.00  0.00     0.000 A 
HETATM   29  C   UNL     1      43.978 -21.768   1.836  1.00  0.00     0.001 A 
HETATM   30  C   UNL     1      43.522 -20.448   1.866  1.00  0.00     0.007 A 
ENDBRANCH   8  25
TORSDOF 3
ENDMDL
MODEL 10
REMARK VINA RESULT:      -9.5      1.606      3.125
REMARK  3 active torsions:
REMARK  status: ('A' for Active; 'I' for Inactive)
REMARK    1  A    between atoms: C_4  and  N_5 
REMARK    2  A    between atoms: N_5  and  C_6 
REMARK    3  A    between atoms: C_13  and  C_14 
ROOT
HETATM    1  C   UNL     1      41.735 -14.603   0.891  1.00  0.00     0.741 A 
HETATM    2  N   UNL     1      42.023 -15.914   0.948  1.00  0.00    -0.066 NA
HETATM    3  C   UNL     1      42.528 -16.421   2.092  1.00  0.00     0.069 A 
HETATM    4  C   UNL     1      42.743 -15.641   3.204  1.00  0.00     0.053 A 
HETATM    5  C   UNL     1      43.265 -16.203   4.459  1.00  0.00     0.163 C 
HETATM    6  O   UNL     1      43.422 -15.475   5.434  1.00  0.00    -0.292 OA
HETATM    7  C   UNL     1      43.519 -17.694   4.514  1.00  0.00     0.093 C 
HETATM    8  C   UNL     1      43.882 -18.254   3.133  1.00  0.00     0.031 C 
HETATM    9  C   UNL     1      42.793 -17.901   2.110  1.00  0.00     0.070 C 
HETATM   10  C   UNL     1      42.432 -14.310   3.071  1.00  0.00     0.153 A 
HETATM   11  N   UNL     1      41.932 -13.773   1.933  1.00  0.00    -0.073 NA
ENDROOT
BRANCH   1  12
HETATM   12  N   UNL     1      41.200 -14.027  -0.240  1.00  0.00    -0.015 N 
HETATM   13  H   UNL     1      40.490 -14.575  -0.686  1.00  0.00     0.203 HD
BRANCH  12  14
HETATM   14  C   UNL     1      41.533 -12.879  -0.928  1.00  0.00     0.742 A 
HETATM   15  N   UNL     1      40.956 -12.743  -2.132  1.00  0.00    -0.066 NA
HETATM   16  C   UNL     1      41.251 -11.639  -2.856  1.00  0.00     0.062 A 
HETATM   17  C   UNL     1      40.584 -11.550  -4.198  1.00  0.00     0.072 C 
HETATM   18  C   UNL     1      42.122 -10.644  -2.399  1.00  0.00     0.018 A 
HETATM   19  C   UNL     1      42.662 -10.883  -1.134  1.00  0.00     0.088 A 
HETATM   20  C   UNL     1      42.476  -9.466  -3.102  1.00  0.00     0.016 A 
HETATM   21  N   UNL     1      42.375 -11.973  -0.418  1.00  0.00    -0.062 NA
HETATM   22  C   UNL     1      43.538  -9.947  -0.595  1.00  0.00     0.033 A 
HETATM   23  C   UNL     1      43.889  -8.784  -1.284  1.00  0.00     0.002 A 
HETATM   24  C   UNL     1      43.357  -8.541  -2.543  1.00  0.00     0.001 A 
ENDBRANCH  12  14
ENDBRANCH   1  12
BRANCH   8  25
HETATM   25  C   UNL     1      44.144 -19.748   3.181  1.00  0.00    -0.053 A 
HETATM   26  C   UNL     1      44.679 -20.369   4.321  1.00  0.00     0.007 A 
HETATM   27  C   UNL     1      44.899 -21.747   4.346  1.00  0.00     0.001 A 
HETATM   28  C   UNL     1      44.590 -22.524   3.232  1.00  0.00     0.000 A 
HETATM   29  C   UNL     1      44.063 -21.923   2.092  1.00  0.00     0.001 A 
HETATM   30  C   UNL     1      43.842 -20.544   2.066  1.00  0.00     0.007 A 
ENDBRANCH   8  25
TORSDOF 3
ENDMDL
