MODEL 1
REMARK VINA RESULT:      -9.0      0.000      0.000
REMARK  3 active torsions:
REMARK  status: ('A' for Active; 'I' for Inactive)
REMARK    1  A    between atoms: C_4  and  C_5 
REMARK    2  A    between atoms: C_9  and  C_10 
REMARK       I    between atoms: C_10  and  N_11 
REMARK    3  A    between atoms: N_11  and  N_12 
ROOT
HETATM    1  C   UNL     1      43.931 -14.300   5.571  1.00  0.00     0.289 C 
HETATM    2  N   UNL     1      43.626 -15.639   5.756  1.00  0.00    -0.241 N 
HETATM    3  O   UNL     1      43.984 -13.755   4.471  1.00  0.00    -0.264 OA
HETATM    4  H   UNL     1      43.594 -16.045   6.690  1.00  0.00     0.192 HD
ENDROOT
BRANCH   1   5
HETATM    5  C   UNL     1      44.192 -13.557   6.777  1.00  0.00     0.121 A 
HETATM    6  N   UNL     1      45.409 -13.649   7.401  1.00  0.00    -0.272 N 
HETATM    7  N   UNL     1      45.518 -12.906   8.513  1.00  0.00    -0.172 NA
HETATM    8  H   UNL     1      46.200 -14.211   7.101  1.00  0.00     0.189 HD
HETATM    9  C   UNL     1      44.324 -12.309   8.613  1.00  0.00     0.113 A 
HETATM   10  C   UNL     1      43.460 -12.681   7.555  1.00  0.00     0.073 A 
BRANCH   9  11
HETATM   11  C   UNL     1      43.985 -11.371   9.723  1.00  0.00     0.106 A 
HETATM   12  O   UNL     1      42.892 -10.548   9.744  1.00  0.00    -0.313 OA
HETATM   13  C   UNL     1      42.931  -9.851  10.916  1.00  0.00     0.050 A 
HETATM   14  C   UNL     1      41.835  -8.891  11.155  1.00  0.00     0.076 C 
HETATM   15  C   UNL     1      44.036 -10.217  11.651  1.00  0.00     0.035 A 
HETATM   16  C   UNL     1      44.714 -11.194  10.883  1.00  0.00     0.042 A 
ENDBRANCH   9  11
ENDBRANCH   1   5
BRANCH   2  17
HETATM   17  N   UNL     1      43.363 -16.435   4.675  1.00  0.00    -0.165 NA
HETATM   18  C   UNL     1      43.884 -17.620   4.676  1.00  0.00     0.157 A 
HETATM   19  C   UNL     1      44.773 -18.271   5.738  1.00  0.00     0.277 A 
HETATM   20  C   UNL     1      43.725 -18.615   3.624  1.00  0.00     0.027 A 
HETATM   21  O   UNL     1      45.121 -17.735   6.769  1.00  0.00    -0.266 OA
HETATM   22  N   UNL     1      45.057 -19.532   5.261  1.00  0.00    -0.321 N 
HETATM   23  C   UNL     1      44.446 -19.738   4.025  1.00  0.00     0.048 A 
HETATM   24  H   UNL     1      45.631 -20.199   5.756  1.00  0.00     0.169 HD
HETATM   25  C   UNL     1      44.500 -20.870   3.240  1.00  0.00     0.030 A 
HETATM   26  C   UNL     1      43.801 -20.844   2.027  1.00  0.00     0.002 A 
HETATM   27  C   UNL     1      43.073 -19.703   1.627  1.00  0.00     0.001 A 
HETATM   28  C   UNL     1      43.029 -18.564   2.434  1.00  0.00     0.016 A 
ENDBRANCH   2  17
TORSDOF 3
ENDMDL
MODEL 2
REMARK VINA RESULT:      -9.0      1.886      2.614
REMARK  3 active torsions:
REMARK  status: ('A' for Active; 'I' for Inactive)
REMARK    1  A    between atoms: C_4  and  C_5 
REMARK    2  A    between atoms: C_9  and  C_10 
REMARK       I    between atoms: C_10  and  N_11 
REMARK    3  A    between atoms: N_11  and  N_12 
ROOT
HETATM    1  C   UNL     1      45.163 -13.582   7.294  1.00  0.00     0.289 C 
HETATM    2  N   UNL     1      44.248 -14.621   7.333  1.00  0.00    -0.241 N 
HETATM    3  O   UNL     1      46.087 -13.512   6.487  1.00  0.00    -0.264 OA
HETATM    4  H   UNL     1      43.498 -14.634   8.023  1.00  0.00     0.192 HD
ENDROOT
BRANCH   1   5
HETATM    5  C   UNL     1      44.967 -12.553   8.283  1.00  0.00     0.121 A 
HETATM    6  N   UNL     1      45.977 -11.678   8.585  1.00  0.00    -0.272 N 
HETATM    7  N   UNL     1      45.661 -10.771   9.522  1.00  0.00    -0.172 NA
HETATM    8  H   UNL     1      46.905 -11.662   8.173  1.00  0.00     0.189 HD
HETATM    9  C   UNL     1      44.396 -11.072   9.840  1.00  0.00     0.113 A 
HETATM   10  C   UNL     1      43.915 -12.176   9.095  1.00  0.00     0.073 A 
BRANCH   9  11
HETATM   11  C   UNL     1      43.621 -10.310  10.862  1.00  0.00     0.106 A 
HETATM   12  O   UNL     1      43.972 -10.191  12.181  1.00  0.00    -0.313 OA
HETATM   13  C   UNL     1      43.021  -9.424  12.786  1.00  0.00     0.050 A 
HETATM   14  C   UNL     1      43.198  -9.161  14.228  1.00  0.00     0.076 C 
HETATM   15  C   UNL     1      42.061  -9.047  11.874  1.00  0.00     0.035 A 
HETATM   16  C   UNL     1      42.447  -9.617  10.637  1.00  0.00     0.042 A 
ENDBRANCH   9  11
ENDBRANCH   1   5
BRANCH   2  17
HETATM   17  N   UNL     1      44.345 -15.652   6.437  1.00  0.00    -0.165 NA
HETATM   18  C   UNL     1      44.117 -16.844   6.885  1.00  0.00     0.157 A 
HETATM   19  C   UNL     1      43.745 -17.276   8.306  1.00  0.00     0.277 A 
HETATM   20  C   UNL     1      44.170 -18.068   6.097  1.00  0.00     0.027 A 
HETATM   21  O   UNL     1      43.609 -16.518   9.243  1.00  0.00    -0.266 OA
HETATM   22  N   UNL     1      43.614 -18.646   8.254  1.00  0.00    -0.321 N 
HETATM   23  C   UNL     1      43.860 -19.115   6.965  1.00  0.00     0.048 A 
HETATM   24  H   UNL     1      43.371 -19.213   9.053  1.00  0.00     0.169 HD
HETATM   25  C   UNL     1      43.825 -20.420   6.524  1.00  0.00     0.030 A 
HETATM   26  C   UNL     1      44.112 -20.650   5.173  1.00  0.00     0.002 A 
HETATM   27  C   UNL     1      44.425 -19.586   4.300  1.00  0.00     0.001 A 
HETATM   28  C   UNL     1      44.456 -18.269   4.763  1.00  0.00     0.016 A 
ENDBRANCH   2  17
TORSDOF 3
ENDMDL
MODEL 3
REMARK VINA RESULT:      -8.8      1.866      2.982
REMARK  3 active torsions:
REMARK  status: ('A' for Active; 'I' for Inactive)
REMARK    1  A    between atoms: C_4  and  C_5 
REMARK    2  A    between atoms: C_9  and  C_10 
REMARK       I    between atoms: C_10  and  N_11 
REMARK    3  A    between atoms: N_11  and  N_12 
ROOT
HETATM    1  C   UNL     1      45.123 -13.634   7.454  1.00  0.00     0.289 C 
HETATM    2  N   UNL     1      44.194 -14.659   7.538  1.00  0.00    -0.241 N 
HETATM    3  O   UNL     1      46.046 -13.609   6.644  1.00  0.00    -0.264 OA
HETATM    4  H   UNL     1      43.445 -14.634   8.228  1.00  0.00     0.192 HD
ENDROOT
BRANCH   1   5
HETATM    5  C   UNL     1      44.942 -12.563   8.401  1.00  0.00     0.121 A 
HETATM    6  N   UNL     1      45.952 -11.669   8.639  1.00  0.00    -0.272 N 
HETATM    7  N   UNL     1      45.651 -10.723   9.543  1.00  0.00    -0.172 NA
HETATM    8  H   UNL     1      46.870 -11.665   8.205  1.00  0.00     0.189 HD
HETATM    9  C   UNL     1      44.396 -11.018   9.904  1.00  0.00     0.113 A 
HETATM   10  C   UNL     1      43.907 -12.157   9.221  1.00  0.00     0.073 A 
BRANCH   9  11
HETATM   11  C   UNL     1      43.640 -10.216  10.910  1.00  0.00     0.106 A 
HETATM   12  O   UNL     1      43.951 -10.137  12.241  1.00  0.00    -0.313 OA
HETATM   13  C   UNL     1      43.034  -9.314  12.824  1.00  0.00     0.050 A 
HETATM   14  C   UNL     1      43.177  -9.081  14.274  1.00  0.00     0.076 C 
HETATM   15  C   UNL     1      42.136  -8.860  11.884  1.00  0.00     0.035 A 
HETATM   16  C   UNL     1      42.526  -9.440  10.653  1.00  0.00     0.042 A 
ENDBRANCH   9  11
ENDBRANCH   1   5
BRANCH   2  17
HETATM   17  N   UNL     1      44.276 -15.726   6.684  1.00  0.00    -0.165 NA
HETATM   18  C   UNL     1      43.411 -15.778   5.723  1.00  0.00     0.157 A 
HETATM   19  C   UNL     1      42.284 -14.795   5.398  1.00  0.00     0.277 A 
HETATM   20  C   UNL     1      43.330 -16.826   4.714  1.00  0.00     0.027 A 
HETATM   21  O   UNL     1      42.044 -13.788   6.031  1.00  0.00    -0.266 OA
HETATM   22  N   UNL     1      41.656 -15.306   4.284  1.00  0.00    -0.321 N 
HETATM   23  C   UNL     1      42.264 -16.494   3.880  1.00  0.00     0.048 A 
HETATM   24  H   UNL     1      40.866 -14.865   3.838  1.00  0.00     0.169 HD
HETATM   25  C   UNL     1      41.918 -17.293   2.812  1.00  0.00     0.030 A 
HETATM   26  C   UNL     1      42.681 -18.449   2.600  1.00  0.00     0.002 A 
HETATM   27  C   UNL     1      43.758 -18.779   3.449  1.00  0.00     0.001 A 
HETATM   28  C   UNL     1      44.095 -17.958   4.528  1.00  0.00     0.016 A 
ENDBRANCH   2  17
TORSDOF 3
ENDMDL
MODEL 4
REMARK VINA RESULT:      -8.4      4.582      5.581
REMARK  3 active torsions:
REMARK  status: ('A' for Active; 'I' for Inactive)
REMARK    1  A    between atoms: C_4  and  C_5 
REMARK    2  A    between atoms: C_9  and  C_10 
REMARK       I    between atoms: C_10  and  N_11 
REMARK    3  A    between atoms: N_11  and  N_12 
ROOT
HETATM    1  C   UNL     1      40.896 -15.574   5.656  1.00  0.00     0.289 C 
HETATM    2  N   UNL     1      42.020 -15.692   4.855  1.00  0.00    -0.241 N 
HETATM    3  O   UNL     1      40.504 -16.452   6.421  1.00  0.00    -0.264 OA
HETATM    4  H   UNL     1      42.305 -14.935   4.236  1.00  0.00     0.192 HD
ENDROOT
BRANCH   1   5
HETATM    5  C   UNL     1      40.188 -14.325   5.541  1.00  0.00     0.121 A 
HETATM    6  N   UNL     1      39.716 -13.687   6.658  1.00  0.00    -0.272 N 
HETATM    7  N   UNL     1      39.076 -12.535   6.408  1.00  0.00    -0.172 NA
HETATM    8  H   UNL     1      39.809 -14.005   7.619  1.00  0.00     0.189 HD
HETATM    9  C   UNL     1      39.136 -12.421   5.075  1.00  0.00     0.113 A 
HETATM   10  C   UNL     1      39.820 -13.512   4.486  1.00  0.00     0.073 A 
BRANCH   9  11
HETATM   11  C   UNL     1      38.541 -11.268   4.340  1.00  0.00     0.106 A 
HETATM   12  O   UNL     1      37.922 -10.199   4.930  1.00  0.00    -0.313 OA
HETATM   13  C   UNL     1      37.515  -9.364   3.932  1.00  0.00     0.050 A 
HETATM   14  C   UNL     1      36.815  -8.130   4.342  1.00  0.00     0.076 C 
HETATM   15  C   UNL     1      37.866  -9.881   2.705  1.00  0.00     0.035 A 
HETATM   16  C   UNL     1      38.525 -11.106   2.967  1.00  0.00     0.042 A 
ENDBRANCH   9  11
ENDBRANCH   1   5
BRANCH   2  17
HETATM   17  N   UNL     1      42.764 -16.841   4.887  1.00  0.00    -0.165 NA
HETATM   18  C   UNL     1      42.735 -17.590   3.833  1.00  0.00     0.157 A 
HETATM   19  C   UNL     1      41.969 -17.371   2.526  1.00  0.00     0.277 A 
HETATM   20  C   UNL     1      43.452 -18.847   3.668  1.00  0.00     0.027 A 
HETATM   21  O   UNL     1      41.255 -16.417   2.297  1.00  0.00    -0.266 OA
HETATM   22  N   UNL     1      42.275 -18.454   1.731  1.00  0.00    -0.321 N 
HETATM   23  C   UNL     1      43.142 -19.320   2.394  1.00  0.00     0.048 A 
HETATM   24  H   UNL     1      41.909 -18.582   0.799  1.00  0.00     0.169 HD
HETATM   25  C   UNL     1      43.668 -20.504   1.925  1.00  0.00     0.030 A 
HETATM   26  C   UNL     1      44.524 -21.211   2.779  1.00  0.00     0.002 A 
HETATM   27  C   UNL     1      44.834 -20.726   4.068  1.00  0.00     0.001 A 
HETATM   28  C   UNL     1      44.293 -19.524   4.528  1.00  0.00     0.016 A 
ENDBRANCH   2  17
TORSDOF 3
ENDMDL
MODEL 5
REMARK VINA RESULT:      -8.4      6.038      7.510
REMARK  3 active torsions:
REMARK  status: ('A' for Active; 'I' for Inactive)
REMARK    1  A    between atoms: C_4  and  C_5 
REMARK    2  A    between atoms: C_9  and  C_10 
REMARK       I    between atoms: C_10  and  N_11 
REMARK    3  A    between atoms: N_11  and  N_12 
ROOT
HETATM    1  C   UNL     1      41.531 -16.866   0.763  1.00  0.00     0.289 C 
HETATM    2  N   UNL     1      42.867 -17.230   0.798  1.00  0.00    -0.241 N 
HETATM    3  O   UNL     1      40.604 -17.633   1.009  1.00  0.00    -0.264 OA
HETATM    4  H   UNL     1      43.601 -16.556   0.586  1.00  0.00     0.192 HD
ENDROOT
BRANCH   1   5
HETATM    5  C   UNL     1      41.279 -15.491   0.410  1.00  0.00     0.121 A 
HETATM    6  N   UNL     1      39.995 -15.025   0.306  1.00  0.00    -0.272 N 
HETATM    7  N   UNL     1      39.902 -13.729  -0.028  1.00  0.00    -0.172 NA
HETATM    8  H   UNL     1      39.144 -15.560   0.456  1.00  0.00     0.189 HD
HETATM    9  C   UNL     1      41.178 -13.341  -0.146  1.00  0.00     0.113 A 
HETATM   10  C   UNL     1      42.077 -14.402   0.118  1.00  0.00     0.073 A 
BRANCH   9  11
HETATM   11  C   UNL     1      41.563 -11.947  -0.512  1.00  0.00     0.106 A 
HETATM   12  O   UNL     1      42.851 -11.494  -0.623  1.00  0.00    -0.313 OA
HETATM   13  C   UNL     1      42.790 -10.178  -0.972  1.00  0.00     0.050 A 
HETATM   14  C   UNL     1      44.077  -9.477  -1.148  1.00  0.00     0.076 C 
HETATM   15  C   UNL     1      41.478  -9.776  -1.089  1.00  0.00     0.035 A 
HETATM   16  C   UNL     1      40.690 -10.914  -0.793  1.00  0.00     0.042 A 
ENDBRANCH   9  11
ENDBRANCH   1   5
BRANCH   2  17
HETATM   17  N   UNL     1      43.216 -18.514   1.121  1.00  0.00    -0.165 NA
HETATM   18  C   UNL     1      43.610 -18.728   2.335  1.00  0.00     0.157 A 
HETATM   19  C   UNL     1      43.744 -17.729   3.487  1.00  0.00     0.277 A 
HETATM   20  C   UNL     1      44.024 -20.016   2.875  1.00  0.00     0.027 A 
HETATM   21  O   UNL     1      43.486 -16.546   3.406  1.00  0.00    -0.266 OA
HETATM   22  N   UNL     1      44.201 -18.460   4.560  1.00  0.00    -0.321 N 
HETATM   23  C   UNL     1      44.366 -19.799   4.208  1.00  0.00     0.048 A 
HETATM   24  H   UNL     1      44.385 -18.061   5.469  1.00  0.00     0.169 HD
HETATM   25  C   UNL     1      44.804 -20.830   5.010  1.00  0.00     0.030 A 
HETATM   26  C   UNL     1      44.891 -22.103   4.431  1.00  0.00     0.002 A 
HETATM   27  C   UNL     1      44.543 -22.316   3.080  1.00  0.00     0.001 A 
HETATM   28  C   UNL     1      44.100 -21.259   2.281  1.00  0.00     0.016 A 
ENDBRANCH   2  17
TORSDOF 3
ENDMDL
MODEL 6
REMARK VINA RESULT:      -8.3      2.757      3.146
REMARK  3 active torsions:
REMARK  status: ('A' for Active; 'I' for Inactive)
REMARK    1  A    between atoms: C_4  and  C_5 
REMARK    2  A    between atoms: C_9  and  C_10 
REMARK       I    between atoms: C_10  and  N_11 
REMARK    3  A    between atoms: N_11  and  N_12 
ROOT
HETATM    1  C   UNL     1      41.662 -15.531   3.678  1.00  0.00     0.289 C 
HETATM    2  N   UNL     1      42.898 -16.156   3.662  1.00  0.00    -0.241 N 
HETATM    3  O   UNL     1      40.658 -15.982   3.133  1.00  0.00    -0.264 OA
HETATM    4  H   UNL     1      43.703 -15.741   4.130  1.00  0.00     0.192 HD
ENDROOT
BRANCH   1   5
HETATM    5  C   UNL     1      41.616 -14.280   4.393  1.00  0.00     0.121 A 
HETATM    6  N   UNL     1      42.131 -13.141   3.834  1.00  0.00    -0.272 N 
HETATM    7  N   UNL     1      42.023 -12.048   4.606  1.00  0.00    -0.172 NA
HETATM    8  H   UNL     1      42.569 -13.061   2.920  1.00  0.00     0.189 HD
HETATM    9  C   UNL     1      41.414 -12.499   5.709  1.00  0.00     0.113 A 
HETATM   10  C   UNL     1      41.138 -13.885   5.628  1.00  0.00     0.073 A 
BRANCH   9  11
HETATM   11  C   UNL     1      41.084 -11.614   6.864  1.00  0.00     0.106 A 
HETATM   12  O   UNL     1      39.849 -11.514   7.445  1.00  0.00    -0.313 OA
HETATM   13  C   UNL     1      39.949 -10.609   8.460  1.00  0.00     0.050 A 
HETATM   14  C   UNL     1      38.721 -10.341   9.234  1.00  0.00     0.076 C 
HETATM   15  C   UNL     1      41.235 -10.125   8.541  1.00  0.00     0.035 A 
HETATM   16  C   UNL     1      41.965 -10.771   7.514  1.00  0.00     0.042 A 
ENDBRANCH   9  11
ENDBRANCH   1   5
BRANCH   2  17
HETATM   17  N   UNL     1      43.051 -17.349   3.008  1.00  0.00    -0.165 NA
HETATM   18  C   UNL     1      43.603 -18.315   3.670  1.00  0.00     0.157 A 
HETATM   19  C   UNL     1      44.121 -18.313   5.110  1.00  0.00     0.277 A 
HETATM   20  C   UNL     1      43.855 -19.655   3.157  1.00  0.00     0.027 A 
HETATM   21  O   UNL     1      44.079 -17.357   5.856  1.00  0.00    -0.266 OA
HETATM   22  N   UNL     1      44.612 -19.581   5.329  1.00  0.00    -0.321 N 
HETATM   23  C   UNL     1      44.459 -20.370   4.190  1.00  0.00     0.048 A 
HETATM   24  H   UNL     1      45.023 -19.877   6.202  1.00  0.00     0.169 HD
HETATM   25  C   UNL     1      44.828 -21.687   4.025  1.00  0.00     0.030 A 
HETATM   26  C   UNL     1      44.572 -22.276   2.780  1.00  0.00     0.002 A 
HETATM   27  C   UNL     1      43.960 -21.546   1.739  1.00  0.00     0.001 A 
HETATM   28  C   UNL     1      43.592 -20.212   1.923  1.00  0.00     0.016 A 
ENDBRANCH   2  17
TORSDOF 3
ENDMDL
MODEL 7
REMARK VINA RESULT:      -8.3      2.132      2.636
REMARK  3 active torsions:
REMARK  status: ('A' for Active; 'I' for Inactive)
REMARK    1  A    between atoms: C_4  and  C_5 
REMARK    2  A    between atoms: C_9  and  C_10 
REMARK       I    between atoms: C_10  and  N_11 
REMARK    3  A    between atoms: N_11  and  N_12 
ROOT
HETATM    1  C   UNL     1      42.378 -14.359   3.629  1.00  0.00     0.289 C 
HETATM    2  N   UNL     1      42.227 -15.604   4.218  1.00  0.00    -0.241 N 
HETATM    3  O   UNL     1      42.670 -14.191   2.447  1.00  0.00    -0.264 OA
HETATM    4  H   UNL     1      41.984 -15.692   5.204  1.00  0.00     0.192 HD
ENDROOT
BRANCH   1   5
HETATM    5  C   UNL     1      42.167 -13.235   4.505  1.00  0.00     0.121 A 
HETATM    6  N   UNL     1      41.834 -12.009   3.994  1.00  0.00    -0.272 N 
HETATM    7  N   UNL     1      41.667 -11.051   4.919  1.00  0.00    -0.172 NA
HETATM    8  H   UNL     1      41.710 -11.777   3.013  1.00  0.00     0.189 HD
HETATM    9  C   UNL     1      41.901 -11.684   6.076  1.00  0.00     0.113 A 
HETATM   10  C   UNL     1      42.217 -13.049   5.874  1.00  0.00     0.073 A 
BRANCH   9  11
HETATM   11  C   UNL     1      41.827 -10.995   7.397  1.00  0.00     0.106 A 
HETATM   12  O   UNL     1      42.835 -10.968   8.323  1.00  0.00    -0.313 OA
HETATM   13  C   UNL     1      42.389 -10.247   9.390  1.00  0.00     0.050 A 
HETATM   14  C   UNL     1      43.323 -10.085  10.521  1.00  0.00     0.076 C 
HETATM   15  C   UNL     1      41.103  -9.807   9.163  1.00  0.00     0.035 A 
HETATM   16  C   UNL     1      40.742 -10.290   7.882  1.00  0.00     0.042 A 
ENDBRANCH   9  11
ENDBRANCH   1   5
BRANCH   2  17
HETATM   17  N   UNL     1      42.407 -16.738   3.474  1.00  0.00    -0.165 NA
HETATM   18  C   UNL     1      43.189 -17.646   3.964  1.00  0.00     0.157 A 
HETATM   19  C   UNL     1      43.957 -17.631   5.288  1.00  0.00     0.277 A 
HETATM   20  C   UNL     1      43.510 -18.918   3.331  1.00  0.00     0.027 A 
HETATM   21  O   UNL     1      43.931 -16.721   6.090  1.00  0.00    -0.266 OA
HETATM   22  N   UNL     1      44.636 -18.828   5.336  1.00  0.00    -0.321 N 
HETATM   23  C   UNL     1      44.378 -19.585   4.194  1.00  0.00     0.048 A 
HETATM   24  H   UNL     1      45.234 -19.100   6.102  1.00  0.00     0.169 HD
HETATM   25  C   UNL     1      44.875 -20.832   3.883  1.00  0.00     0.030 A 
HETATM   26  C   UNL     1      44.472 -21.399   2.667  1.00  0.00     0.002 A 
HETATM   27  C   UNL     1      43.593 -20.718   1.798  1.00  0.00     0.001 A 
HETATM   28  C   UNL     1      43.098 -19.455   2.129  1.00  0.00     0.016 A 
ENDBRANCH   2  17
TORSDOF 3
ENDMDL
MODEL 8
REMARK VINA RESULT:      -8.2      6.212      8.364
REMARK  3 active torsions:
REMARK  status: ('A' for Active; 'I' for Inactive)
REMARK    1  A    between atoms: C_4  and  C_5 
REMARK    2  A    between atoms: C_9  and  C_10 
REMARK       I    between atoms: C_10  and  N_11 
REMARK    3  A    between atoms: N_11  and  N_12 
ROOT
HETATM    1  C   UNL     1      41.062 -16.071   1.851  1.00  0.00     0.289 C 
HETATM    2  N   UNL     1      42.319 -16.110   2.431  1.00  0.00    -0.241 N 
HETATM    3  O   UNL     1      40.104 -16.734   2.243  1.00  0.00    -0.264 OA
HETATM    4  H   UNL     1      43.082 -15.541   2.070  1.00  0.00     0.192 HD
ENDROOT
BRANCH   1   5
HETATM    5  C   UNL     1      40.933 -15.180   0.726  1.00  0.00     0.121 A 
HETATM    6  N   UNL     1      39.714 -14.982   0.133  1.00  0.00    -0.272 N 
HETATM    7  N   UNL     1      39.735 -14.129  -0.904  1.00  0.00    -0.172 NA
HETATM    8  H   UNL     1      38.833 -15.410   0.404  1.00  0.00     0.189 HD
HETATM    9  C   UNL     1      41.020 -13.761  -0.984  1.00  0.00     0.113 A 
HETATM   10  C   UNL     1      41.810 -14.388   0.010  1.00  0.00     0.073 A 
BRANCH   9  11
HETATM   11  C   UNL     1      41.518 -12.803  -2.014  1.00  0.00     0.106 A 
HETATM   12  O   UNL     1      41.923 -11.521  -1.757  1.00  0.00    -0.313 OA
HETATM   13  C   UNL     1      42.305 -10.970  -2.945  1.00  0.00     0.050 A 
HETATM   14  C   UNL     1      42.785  -9.575  -2.907  1.00  0.00     0.076 C 
HETATM   15  C   UNL     1      42.151 -11.882  -3.964  1.00  0.00     0.035 A 
HETATM   16  C   UNL     1      41.644 -13.061  -3.365  1.00  0.00     0.042 A 
ENDBRANCH   9  11
ENDBRANCH   1   5
BRANCH   2  17
HETATM   17  N   UNL     1      42.549 -16.925   3.507  1.00  0.00    -0.165 NA
HETATM   18  C   UNL     1      43.248 -17.994   3.296  1.00  0.00     0.157 A 
HETATM   19  C   UNL     1      43.868 -18.487   1.986  1.00  0.00     0.277 A 
HETATM   20  C   UNL     1      43.601 -18.986   4.302  1.00  0.00     0.027 A 
HETATM   21  O   UNL     1      43.779 -17.911   0.922  1.00  0.00    -0.266 OA
HETATM   22  N   UNL     1      44.505 -19.667   2.299  1.00  0.00    -0.321 N 
HETATM   23  C   UNL     1      44.353 -19.964   3.652  1.00  0.00     0.048 A 
HETATM   24  H   UNL     1      45.008 -20.225   1.624  1.00  0.00     0.169 HD
HETATM   25  C   UNL     1      44.846 -21.055   4.334  1.00  0.00     0.030 A 
HETATM   26  C   UNL     1      44.561 -21.141   5.703  1.00  0.00     0.002 A 
HETATM   27  C   UNL     1      43.800 -20.148   6.354  1.00  0.00     0.001 A 
HETATM   28  C   UNL     1      43.307 -19.048   5.649  1.00  0.00     0.016 A 
ENDBRANCH   2  17
TORSDOF 3
ENDMDL
MODEL 9
REMARK VINA RESULT:      -8.2      3.983      9.386
REMARK  3 active torsions:
REMARK  status: ('A' for Active; 'I' for Inactive)
REMARK    1  A    between atoms: C_4  and  C_5 
REMARK    2  A    between atoms: C_9  and  C_10 
REMARK       I    between atoms: C_10  and  N_11 
REMARK    3  A    between atoms: N_11  and  N_12 
ROOT
HETATM    1  C   UNL     1      43.100 -14.812   3.110  1.00  0.00     0.289 C 
HETATM    2  N   UNL     1      41.775 -14.472   3.330  1.00  0.00    -0.241 N 
HETATM    3  O   UNL     1      44.037 -14.024   3.213  1.00  0.00    -0.264 OA
HETATM    4  H   UNL     1      41.033 -15.162   3.232  1.00  0.00     0.192 HD
ENDROOT
BRANCH   1   5
HETATM    5  C   UNL     1      43.328 -16.186   2.741  1.00  0.00     0.121 A 
HETATM    6  N   UNL     1      43.299 -16.567   1.426  1.00  0.00    -0.272 N 
HETATM    7  N   UNL     1      43.527 -17.873   1.223  1.00  0.00    -0.172 NA
HETATM    8  H   UNL     1      43.126 -15.964   0.626  1.00  0.00     0.189 HD
HETATM    9  C   UNL     1      43.711 -18.358   2.457  1.00  0.00     0.113 A 
HETATM   10  C   UNL     1      43.598 -17.347   3.441  1.00  0.00     0.073 A 
BRANCH   9  11
HETATM   11  C   UNL     1      43.998 -19.798   2.721  1.00  0.00     0.106 A 
HETATM   12  O   UNL     1      44.444 -20.301   3.913  1.00  0.00    -0.313 OA
HETATM   13  C   UNL     1      44.588 -21.648   3.758  1.00  0.00     0.050 A 
HETATM   14  C   UNL     1      45.063 -22.406   4.932  1.00  0.00     0.076 C 
HETATM   15  C   UNL     1      44.238 -22.020   2.479  1.00  0.00     0.035 A 
HETATM   16  C   UNL     1      43.860 -20.830   1.812  1.00  0.00     0.042 A 
ENDBRANCH   9  11
ENDBRANCH   1   5
BRANCH   2  17
HETATM   17  N   UNL     1      41.449 -13.190   3.684  1.00  0.00    -0.165 NA
HETATM   18  C   UNL     1      40.875 -13.026   4.831  1.00  0.00     0.157 A 
HETATM   19  C   UNL     1      40.499 -14.083   5.873  1.00  0.00     0.277 A 
HETATM   20  C   UNL     1      40.450 -11.748   5.389  1.00  0.00     0.027 A 
HETATM   21  O   UNL     1      40.703 -15.272   5.751  1.00  0.00    -0.266 OA
HETATM   22  N   UNL     1      39.914 -13.390   6.910  1.00  0.00    -0.321 N 
HETATM   23  C   UNL     1      39.883 -12.024   6.632  1.00  0.00     0.048 A 
HETATM   24  H   UNL     1      39.563 -13.832   7.747  1.00  0.00     0.169 HD
HETATM   25  C   UNL     1      39.377 -11.018   7.426  1.00  0.00     0.030 A 
HETATM   26  C   UNL     1      39.456  -9.709   6.932  1.00  0.00     0.002 A 
HETATM   27  C   UNL     1      40.031  -9.437   5.673  1.00  0.00     0.001 A 
HETATM   28  C   UNL     1      40.540 -10.469   4.881  1.00  0.00     0.016 A 
ENDBRANCH   2  17
TORSDOF 3
ENDMDL
MODEL 10
REMARK VINA RESULT:      -8.1      2.565      9.615
REMARK  3 active torsions:
REMARK  status: ('A' for Active; 'I' for Inactive)
REMARK    1  A    between atoms: C_4  and  C_5 
REMARK    2  A    between atoms: C_9  and  C_10 
REMARK       I    between atoms: C_10  and  N_11 
REMARK    3  A    between atoms: N_11  and  N_12 
ROOT
HETATM    1  C   UNL     1      41.819 -11.802   6.532  1.00  0.00     0.289 C 
HETATM    2  N   UNL     1      42.559 -11.711   7.700  1.00  0.00    -0.241 N 
HETATM    3  O   UNL     1      40.873 -11.066   6.260  1.00  0.00    -0.264 OA
HETATM    4  H   UNL     1      43.335 -12.346   7.880  1.00  0.00     0.192 HD
ENDROOT
BRANCH   1   5
HETATM    5  C   UNL     1      42.231 -12.841   5.623  1.00  0.00     0.121 A 
HETATM    6  N   UNL     1      42.511 -12.549   4.315  1.00  0.00    -0.272 N 
HETATM    7  N   UNL     1      42.883 -13.608   3.579  1.00  0.00    -0.172 NA
HETATM    8  H   UNL     1      42.462 -11.634   3.876  1.00  0.00     0.189 HD
HETATM    9  C   UNL     1      42.841 -14.627   4.447  1.00  0.00     0.113 A 
HETATM   10  C   UNL     1      42.440 -14.202   5.736  1.00  0.00     0.073 A 
BRANCH   9  11
HETATM   11  C   UNL     1      43.183 -16.026   4.060  1.00  0.00     0.106 A 
HETATM   12  O   UNL     1      43.267 -16.483   2.772  1.00  0.00    -0.313 OA
HETATM   13  C   UNL     1      43.600 -17.804   2.830  1.00  0.00     0.050 A 
HETATM   14  C   UNL     1      43.747 -18.510   1.542  1.00  0.00     0.076 C 
HETATM   15  C   UNL     1      43.733 -18.204   4.141  1.00  0.00     0.035 A 
HETATM   16  C   UNL     1      43.464 -17.061   4.931  1.00  0.00     0.042 A 
ENDBRANCH   9  11
ENDBRANCH   1   5
BRANCH   2  17
HETATM   17  N   UNL     1      42.249 -10.758   8.632  1.00  0.00    -0.165 NA
HETATM   18  C   UNL     1      42.864 -10.825   9.769  1.00  0.00     0.157 A 
HETATM   19  C   UNL     1      43.912 -11.842  10.229  1.00  0.00     0.277 A 
HETATM   20  C   UNL     1      42.677  -9.911  10.887  1.00  0.00     0.027 A 
HETATM   21  O   UNL     1      44.322 -12.762   9.554  1.00  0.00    -0.266 OA
HETATM   22  N   UNL     1      44.247 -11.472  11.513  1.00  0.00    -0.321 N 
HETATM   23  C   UNL     1      43.527 -10.344  11.903  1.00  0.00     0.048 A 
HETATM   24  H   UNL     1      44.923 -11.966  12.077  1.00  0.00     0.169 HD
HETATM   25  C   UNL     1      43.590  -9.684  13.111  1.00  0.00     0.030 A 
HETATM   26  C   UNL     1      42.765  -8.564  13.275  1.00  0.00     0.002 A 
HETATM   27  C   UNL     1      41.906  -8.131  12.243  1.00  0.00     0.001 A 
HETATM   28  C   UNL     1      41.855  -8.811  11.024  1.00  0.00     0.016 A 
ENDBRANCH   2  17
TORSDOF 3
ENDMDL
