MODEL 1
REMARK VINA RESULT:      -9.9      0.000      0.000
REMARK  8 active torsions:
REMARK  status: ('A' for Active; 'I' for Inactive)
REMARK    1  A    between atoms: C_4  and  S_5 
REMARK    2  A    between atoms: S_5  and  C_6 
REMARK    3  A    between atoms: C_6  and  C_7 
REMARK       I    between atoms: C_7  and  N_8 
REMARK    4  A    between atoms: N_8  and  C_9 
REMARK    5  A    between atoms: C_20  and  C_21 
REMARK    6  A    between atoms: C_27  and  C_28 
REMARK       I    between atoms: C_28  and  N_29 
REMARK    7  A    between atoms: N_29  and  C_30 
REMARK    8  A    between atoms: C_31  and  O_32 
ROOT
HETATM    1  C   UNL     1      42.717 -13.451   2.554  1.00  0.00     0.069 C 
HETATM    2  C   UNL     1      42.978 -14.437   3.664  1.00  0.00     0.019 C 
HETATM    3  N   UNL     1      43.984 -14.097   4.560  1.00  0.00    -0.353 N 
HETATM    4  C   UNL     1      44.122 -14.674   5.814  1.00  0.00     0.088 C 
HETATM    5  C   UNL     1      43.452 -15.820   6.095  1.00  0.00     0.069 C 
HETATM    6  C   UNL     1      43.419 -16.401   7.396  1.00  0.00     0.099 C 
HETATM    7  N   UNL     1      43.389 -16.875   8.455  1.00  0.00    -0.192 NA
HETATM    8  C   UNL     1      42.645 -16.522   4.997  1.00  0.00     0.106 C 
HETATM    9  C   UNL     1      42.300 -15.594   3.844  1.00  0.00     0.046 C 
HETATM   10  H   UNL     1      44.349 -13.149   4.499  1.00  0.00     0.166 HD
ENDROOT
BRANCH   4  11
HETATM   11  S   UNL     1      45.098 -13.857   7.022  1.00  0.00    -0.102 SA
BRANCH  11  12
HETATM   12  C   UNL     1      43.896 -12.609   7.608  1.00  0.00     0.184 C 
BRANCH  12  13
HETATM   13  C   UNL     1      44.100 -12.270   9.080  1.00  0.00     0.231 C 
HETATM   14  N   UNL     1      43.107 -11.468   9.615  1.00  0.00    -0.327 N 
HETATM   15  H   UNL     1      42.434 -11.104   8.948  1.00  0.00     0.169 HD
HETATM   16  O   UNL     1      45.043 -12.759   9.696  1.00  0.00    -0.272 OA
BRANCH  14  17
HETATM   17  C   UNL     1      42.980 -11.014  10.942  1.00  0.00     0.034 A 
HETATM   18  C   UNL     1      43.909 -10.188  11.577  1.00  0.00     0.031 A 
HETATM   19  C   UNL     1      43.705  -9.773  12.898  1.00  0.00     0.026 A 
HETATM   20  C   UNL     1      42.569 -10.186  13.588  1.00  0.00     0.034 A 
HETATM   21 CL   UNL     1      42.316  -9.670  15.210  1.00  0.00    -0.084 Cl
HETATM   22  C   UNL     1      41.637 -11.014  12.971  1.00  0.00     0.026 A 
HETATM   23  C   UNL     1      41.844 -11.430  11.652  1.00  0.00     0.031 A 
ENDBRANCH  14  17
ENDBRANCH  12  13
ENDBRANCH  11  12
ENDBRANCH   4  11
BRANCH   8  24
HETATM   24  C   UNL     1      43.388 -17.793   4.559  1.00  0.00    -0.044 A 
HETATM   25  C   UNL     1      43.749 -17.961   3.210  1.00  0.00     0.008 A 
HETATM   26  C   UNL     1      44.406 -19.116   2.784  1.00  0.00     0.001 A 
HETATM   27  C   UNL     1      44.712 -20.124   3.695  1.00  0.00     0.000 A 
HETATM   28  C   UNL     1      44.348 -19.983   5.031  1.00  0.00     0.001 A 
HETATM   29  C   UNL     1      43.680 -18.833   5.458  1.00  0.00     0.008 A 
ENDBRANCH   8  24
BRANCH   9  30
HETATM   30  C   UNL     1      41.101 -15.899   3.020  1.00  0.00     0.255 C 
HETATM   31  N   UNL     1      39.941 -15.382   3.527  1.00  0.00    -0.321 N 
HETATM   32  H   UNL     1      39.259 -16.077   3.817  1.00  0.00     0.169 HD
HETATM   33  O   UNL     1      41.152 -16.685   2.083  1.00  0.00    -0.268 OA
BRANCH  31  34
HETATM   34  C   UNL     1      39.275 -14.264   2.956  1.00  0.00     0.068 A 
HETATM   35  C   UNL     1      39.279 -13.060   3.679  1.00  0.00     0.095 A 
HETATM   36  C   UNL     1      38.755 -11.897   3.107  1.00  0.00     0.039 A 
HETATM   37  C   UNL     1      38.170 -11.947   1.841  1.00  0.00     0.003 A 
HETATM   38  C   UNL     1      38.094 -13.157   1.155  1.00  0.00     0.002 A 
HETATM   39  C   UNL     1      38.641 -14.315   1.712  1.00  0.00     0.032 A 
BRANCH  35  40
HETATM   40  O   UNL     1      39.863 -13.078   4.924  1.00  0.00    -0.354 OA
HETATM   41  C   UNL     1      40.633 -11.908   5.198  1.00  0.00     0.210 C 
ENDBRANCH  35  40
ENDBRANCH  31  34
ENDBRANCH   9  30
TORSDOF 8
ENDMDL
MODEL 2
REMARK VINA RESULT:      -9.9      5.047      8.427
REMARK  8 active torsions:
REMARK  status: ('A' for Active; 'I' for Inactive)
REMARK    1  A    between atoms: C_4  and  S_5 
REMARK    2  A    between atoms: S_5  and  C_6 
REMARK    3  A    between atoms: C_6  and  C_7 
REMARK       I    between atoms: C_7  and  N_8 
REMARK    4  A    between atoms: N_8  and  C_9 
REMARK    5  A    between atoms: C_20  and  C_21 
REMARK    6  A    between atoms: C_27  and  C_28 
REMARK       I    between atoms: C_28  and  N_29 
REMARK    7  A    between atoms: N_29  and  C_30 
REMARK    8  A    between atoms: C_31  and  O_32 
ROOT
HETATM    1  C   UNL     1      40.306 -17.527   1.561  1.00  0.00     0.069 C 
HETATM    2  C   UNL     1      40.311 -16.067   1.933  1.00  0.00     0.019 C 
HETATM    3  N   UNL     1      39.987 -15.771   3.252  1.00  0.00    -0.353 N 
HETATM    4  C   UNL     1      40.282 -14.560   3.862  1.00  0.00     0.088 C 
HETATM    5  C   UNL     1      40.633 -13.498   3.094  1.00  0.00     0.069 C 
HETATM    6  C   UNL     1      41.092 -12.264   3.639  1.00  0.00     0.099 C 
HETATM    7  N   UNL     1      41.468 -11.258   4.081  1.00  0.00    -0.192 NA
HETATM    8  C   UNL     1      40.589 -13.612   1.566  1.00  0.00     0.106 C 
HETATM    9  C   UNL     1      40.618 -15.055   1.089  1.00  0.00     0.046 C 
HETATM   10  H   UNL     1      39.935 -16.556   3.896  1.00  0.00     0.166 HD
ENDROOT
BRANCH   4  11
HETATM   11  S   UNL     1      40.270 -14.467   5.614  1.00  0.00    -0.102 SA
BRANCH  11  12
HETATM   12  C   UNL     1      41.885 -15.242   5.983  1.00  0.00     0.184 C 
BRANCH  12  13
HETATM   13  C   UNL     1      41.982 -16.653   5.414  1.00  0.00     0.231 C 
HETATM   14  N   UNL     1      43.164 -16.907   4.739  1.00  0.00    -0.327 N 
HETATM   15  H   UNL     1      43.767 -16.102   4.599  1.00  0.00     0.169 HD
HETATM   16  O   UNL     1      41.088 -17.466   5.635  1.00  0.00    -0.272 OA
BRANCH  14  17
HETATM   17  C   UNL     1      43.577 -18.112   4.138  1.00  0.00     0.034 A 
HETATM   18  C   UNL     1      44.183 -19.162   4.831  1.00  0.00     0.031 A 
HETATM   19  C   UNL     1      44.559 -20.332   4.160  1.00  0.00     0.026 A 
HETATM   20  C   UNL     1      44.328 -20.454   2.794  1.00  0.00     0.034 A 
HETATM   21 CL   UNL     1      44.783 -21.895   1.973  1.00  0.00    -0.084 Cl
HETATM   22  C   UNL     1      43.730 -19.414   2.089  1.00  0.00     0.026 A 
HETATM   23  C   UNL     1      43.359 -18.244   2.760  1.00  0.00     0.031 A 
ENDBRANCH  14  17
ENDBRANCH  12  13
ENDBRANCH  11  12
ENDBRANCH   4  11
BRANCH   8  24
HETATM   24  C   UNL     1      39.389 -12.815   1.034  1.00  0.00    -0.044 A 
HETATM   25  C   UNL     1      38.093 -13.352   1.135  1.00  0.00     0.008 A 
HETATM   26  C   UNL     1      36.990 -12.655   0.641  1.00  0.00     0.001 A 
HETATM   27  C   UNL     1      37.160 -11.414   0.035  1.00  0.00     0.000 A 
HETATM   28  C   UNL     1      38.436 -10.874  -0.090  1.00  0.00     0.001 A 
HETATM   29  C   UNL     1      39.544 -11.573   0.394  1.00  0.00     0.008 A 
ENDBRANCH   8  24
BRANCH   9  30
HETATM   30  C   UNL     1      41.146 -15.344  -0.270  1.00  0.00     0.255 C 
HETATM   31  N   UNL     1      40.221 -15.185  -1.264  1.00  0.00    -0.321 N 
HETATM   32  H   UNL     1      39.980 -16.038  -1.758  1.00  0.00     0.169 HD
HETATM   33  O   UNL     1      42.252 -15.844  -0.433  1.00  0.00    -0.268 OA
BRANCH  31  34
HETATM   34  C   UNL     1      40.239 -14.092  -2.172  1.00  0.00     0.068 A 
HETATM   35  C   UNL     1      39.013 -13.662  -2.704  1.00  0.00     0.095 A 
HETATM   36  C   UNL     1      38.957 -12.512  -3.497  1.00  0.00     0.039 A 
HETATM   37  C   UNL     1      40.131 -11.827  -3.813  1.00  0.00     0.003 A 
HETATM   38  C   UNL     1      41.359 -12.297  -3.352  1.00  0.00     0.002 A 
HETATM   39  C   UNL     1      41.415 -13.430  -2.537  1.00  0.00     0.032 A 
BRANCH  35  40
HETATM   40  O   UNL     1      37.894 -14.384  -2.362  1.00  0.00    -0.354 OA
HETATM   41  C   UNL     1      37.338 -15.108  -3.460  1.00  0.00     0.210 C 
ENDBRANCH  35  40
ENDBRANCH  31  34
ENDBRANCH   9  30
TORSDOF 8
ENDMDL
MODEL 3
REMARK VINA RESULT:      -9.7      4.357      6.424
REMARK  8 active torsions:
REMARK  status: ('A' for Active; 'I' for Inactive)
REMARK    1  A    between atoms: C_4  and  S_5 
REMARK    2  A    between atoms: S_5  and  C_6 
REMARK    3  A    between atoms: C_6  and  C_7 
REMARK       I    between atoms: C_7  and  N_8 
REMARK    4  A    between atoms: N_8  and  C_9 
REMARK    5  A    between atoms: C_20  and  C_21 
REMARK    6  A    between atoms: C_27  and  C_28 
REMARK       I    between atoms: C_28  and  N_29 
REMARK    7  A    between atoms: N_29  and  C_30 
REMARK    8  A    between atoms: C_31  and  O_32 
ROOT
HETATM    1  C   UNL     1      40.794 -10.884   1.786  1.00  0.00     0.069 C 
HETATM    2  C   UNL     1      40.863 -12.191   2.532  1.00  0.00     0.019 C 
HETATM    3  N   UNL     1      41.669 -12.207   3.664  1.00  0.00    -0.353 N 
HETATM    4  C   UNL     1      41.580 -13.172   4.657  1.00  0.00     0.088 C 
HETATM    5  C   UNL     1      40.899 -14.319   4.408  1.00  0.00     0.069 C 
HETATM    6  C   UNL     1      40.633 -15.297   5.410  1.00  0.00     0.099 C 
HETATM    7  N   UNL     1      40.413 -16.094   6.225  1.00  0.00    -0.192 NA
HETATM    8  C   UNL     1      40.338 -14.586   3.007  1.00  0.00     0.106 C 
HETATM    9  C   UNL     1      40.195 -13.316   2.185  1.00  0.00     0.046 C 
HETATM   10  H   UNL     1      42.012 -11.307   3.992  1.00  0.00     0.166 HD
ENDROOT
BRANCH   4  11
HETATM   11  S   UNL     1      42.283 -12.840   6.230  1.00  0.00    -0.102 SA
BRANCH  11  12
HETATM   12  C   UNL     1      43.944 -13.566   5.993  1.00  0.00     0.184 C 
BRANCH  12  13
HETATM   13  C   UNL     1      44.040 -14.970   6.578  1.00  0.00     0.231 C 
HETATM   14  N   UNL     1      43.841 -15.981   5.654  1.00  0.00    -0.327 N 
HETATM   15  H   UNL     1      43.539 -15.675   4.734  1.00  0.00     0.169 HD
HETATM   16  O   UNL     1      44.345 -15.122   7.759  1.00  0.00    -0.272 OA
BRANCH  14  17
HETATM   17  C   UNL     1      43.904 -17.372   5.862  1.00  0.00     0.034 A 
HETATM   18  C   UNL     1      43.671 -17.988   7.094  1.00  0.00     0.031 A 
HETATM   19  C   UNL     1      43.745 -19.380   7.216  1.00  0.00     0.026 A 
HETATM   20  C   UNL     1      44.051 -20.160   6.105  1.00  0.00     0.034 A 
HETATM   21 CL   UNL     1      44.133 -21.872   6.256  1.00  0.00    -0.084 Cl
HETATM   22  C   UNL     1      44.290 -19.561   4.873  1.00  0.00     0.026 A 
HETATM   23  C   UNL     1      44.220 -18.169   4.753  1.00  0.00     0.031 A 
ENDBRANCH  14  17
ENDBRANCH  12  13
ENDBRANCH  11  12
ENDBRANCH   4  11
BRANCH   8  24
HETATM   24  C   UNL     1      41.185 -15.668   2.320  1.00  0.00    -0.044 A 
HETATM   25  C   UNL     1      40.578 -16.859   1.884  1.00  0.00     0.008 A 
HETATM   26  C   UNL     1      41.331 -17.865   1.277  1.00  0.00     0.001 A 
HETATM   27  C   UNL     1      42.701 -17.701   1.097  1.00  0.00     0.000 A 
HETATM   28  C   UNL     1      43.323 -16.537   1.538  1.00  0.00     0.001 A 
HETATM   29  C   UNL     1      42.575 -15.533   2.156  1.00  0.00     0.008 A 
ENDBRANCH   8  24
BRANCH   9  30
HETATM   30  C   UNL     1      39.185 -13.283   1.095  1.00  0.00     0.255 C 
HETATM   31  N   UNL     1      39.716 -13.021  -0.137  1.00  0.00    -0.321 N 
HETATM   32  H   UNL     1      39.410 -12.146  -0.553  1.00  0.00     0.169 HD
HETATM   33  O   UNL     1      37.985 -13.317   1.333  1.00  0.00    -0.268 OA
BRANCH  31  34
HETATM   34  C   UNL     1      39.857 -14.009  -1.148  1.00  0.00     0.068 A 
HETATM   35  C   UNL     1      38.891 -14.047  -2.167  1.00  0.00     0.095 A 
HETATM   36  C   UNL     1      39.053 -14.910  -3.254  1.00  0.00     0.039 A 
HETATM   37  C   UNL     1      40.143 -15.780  -3.297  1.00  0.00     0.003 A 
HETATM   38  C   UNL     1      41.061 -15.799  -2.250  1.00  0.00     0.002 A 
HETATM   39  C   UNL     1      40.918 -14.919  -1.175  1.00  0.00     0.032 A 
BRANCH  35  40
HETATM   40  O   UNL     1      37.836 -13.172  -2.063  1.00  0.00    -0.354 OA
HETATM   41  C   UNL     1      37.650 -12.378  -3.234  1.00  0.00     0.210 C 
ENDBRANCH  35  40
ENDBRANCH  31  34
ENDBRANCH   9  30
TORSDOF 8
ENDMDL
MODEL 4
REMARK VINA RESULT:      -9.6      4.338      5.687
REMARK  8 active torsions:
REMARK  status: ('A' for Active; 'I' for Inactive)
REMARK    1  A    between atoms: C_4  and  S_5 
REMARK    2  A    between atoms: S_5  and  C_6 
REMARK    3  A    between atoms: C_6  and  C_7 
REMARK       I    between atoms: C_7  and  N_8 
REMARK    4  A    between atoms: N_8  and  C_9 
REMARK    5  A    between atoms: C_20  and  C_21 
REMARK    6  A    between atoms: C_27  and  C_28 
REMARK       I    between atoms: C_28  and  N_29 
REMARK    7  A    between atoms: N_29  and  C_30 
REMARK    8  A    between atoms: C_31  and  O_32 
ROOT
HETATM    1  C   UNL     1      41.946 -12.040   0.527  1.00  0.00     0.069 C 
HETATM    2  C   UNL     1      41.820 -13.167   1.520  1.00  0.00     0.019 C 
HETATM    3  N   UNL     1      42.338 -12.927   2.786  1.00  0.00    -0.353 N 
HETATM    4  C   UNL     1      42.006 -13.674   3.907  1.00  0.00     0.088 C 
HETATM    5  C   UNL     1      41.386 -14.870   3.746  1.00  0.00     0.069 C 
HETATM    6  C   UNL     1      40.879 -15.635   4.837  1.00  0.00     0.099 C 
HETATM    7  N   UNL     1      40.463 -16.257   5.724  1.00  0.00    -0.192 NA
HETATM    8  C   UNL     1      41.164 -15.433   2.338  1.00  0.00     0.106 C 
HETATM    9  C   UNL     1      41.236 -14.360   1.264  1.00  0.00     0.046 C 
HETATM   10  H   UNL     1      42.609 -11.968   2.995  1.00  0.00     0.166 HD
ENDROOT
BRANCH   4  11
HETATM   11  S   UNL     1      42.326 -13.008   5.498  1.00  0.00    -0.102 SA
BRANCH  11  12
HETATM   12  C   UNL     1      44.032 -13.614   5.757  1.00  0.00     0.184 C 
BRANCH  12  13
HETATM   13  C   UNL     1      44.056 -14.955   6.482  1.00  0.00     0.231 C 
HETATM   14  N   UNL     1      43.900 -16.048   5.648  1.00  0.00    -0.327 N 
HETATM   15  H   UNL     1      43.669 -15.831   4.683  1.00  0.00     0.169 HD
HETATM   16  O   UNL     1      44.275 -14.994   7.690  1.00  0.00    -0.272 OA
BRANCH  14  17
HETATM   17  C   UNL     1      43.917 -17.413   5.995  1.00  0.00     0.034 A 
HETATM   18  C   UNL     1      43.527 -17.906   7.242  1.00  0.00     0.031 A 
HETATM   19  C   UNL     1      43.565 -19.280   7.505  1.00  0.00     0.026 A 
HETATM   20  C   UNL     1      43.994 -20.165   6.521  1.00  0.00     0.034 A 
HETATM   21 CL   UNL     1      44.034 -21.854   6.844  1.00  0.00    -0.084 Cl
HETATM   22  C   UNL     1      44.391 -19.688   5.275  1.00  0.00     0.026 A 
HETATM   23  C   UNL     1      44.355 -18.315   5.015  1.00  0.00     0.031 A 
ENDBRANCH  14  17
ENDBRANCH  12  13
ENDBRANCH  11  12
ENDBRANCH   4  11
BRANCH   8  24
HETATM   24  C   UNL     1      42.133 -16.602   2.102  1.00  0.00    -0.044 A 
HETATM   25  C   UNL     1      43.466 -16.340   1.739  1.00  0.00     0.008 A 
HETATM   26  C   UNL     1      44.360 -17.385   1.500  1.00  0.00     0.001 A 
HETATM   27  C   UNL     1      43.938 -18.707   1.615  1.00  0.00     0.000 A 
HETATM   28  C   UNL     1      42.618 -18.985   1.956  1.00  0.00     0.001 A 
HETATM   29  C   UNL     1      41.719 -17.942   2.185  1.00  0.00     0.008 A 
ENDBRANCH   8  24
BRANCH   9  30
HETATM   30  C   UNL     1      40.509 -14.583  -0.014  1.00  0.00     0.255 C 
HETATM   31  N   UNL     1      39.149 -14.570   0.119  1.00  0.00    -0.321 N 
HETATM   32  H   UNL     1      38.695 -15.454  -0.087  1.00  0.00     0.169 HD
HETATM   33  O   UNL     1      41.098 -14.917  -1.034  1.00  0.00    -0.268 OA
BRANCH  31  34
HETATM   34  C   UNL     1      38.335 -13.495  -0.332  1.00  0.00     0.068 A 
HETATM   35  C   UNL     1      37.864 -12.583   0.626  1.00  0.00     0.095 A 
HETATM   36  C   UNL     1      37.171 -11.438   0.223  1.00  0.00     0.039 A 
HETATM   37  C   UNL     1      36.894 -11.233  -1.129  1.00  0.00     0.003 A 
HETATM   38  C   UNL     1      37.293 -12.175  -2.074  1.00  0.00     0.002 A 
HETATM   39  C   UNL     1      38.008 -13.307  -1.677  1.00  0.00     0.032 A 
BRANCH  35  40
HETATM   40  O   UNL     1      38.162 -12.846   1.942  1.00  0.00    -0.354 OA
HETATM   41  C   UNL     1      38.540 -11.680   2.674  1.00  0.00     0.210 C 
ENDBRANCH  35  40
ENDBRANCH  31  34
ENDBRANCH   9  30
TORSDOF 8
ENDMDL
MODEL 5
REMARK VINA RESULT:      -9.4      2.186      2.791
REMARK  8 active torsions:
REMARK  status: ('A' for Active; 'I' for Inactive)
REMARK    1  A    between atoms: C_4  and  S_5 
REMARK    2  A    between atoms: S_5  and  C_6 
REMARK    3  A    between atoms: C_6  and  C_7 
REMARK       I    between atoms: C_7  and  N_8 
REMARK    4  A    between atoms: N_8  and  C_9 
REMARK    5  A    between atoms: C_20  and  C_21 
REMARK    6  A    between atoms: C_27  and  C_28 
REMARK       I    between atoms: C_28  and  N_29 
REMARK    7  A    between atoms: N_29  and  C_30 
REMARK    8  A    between atoms: C_31  and  O_32 
ROOT
HETATM    1  C   UNL     1      41.950 -12.291   0.889  1.00  0.00     0.069 C 
HETATM    2  C   UNL     1      41.900 -13.380   1.928  1.00  0.00     0.019 C 
HETATM    3  N   UNL     1      42.483 -13.083   3.154  1.00  0.00    -0.353 N 
HETATM    4  C   UNL     1      42.226 -13.792   4.319  1.00  0.00     0.088 C 
HETATM    5  C   UNL     1      41.621 -15.004   4.238  1.00  0.00     0.069 C 
HETATM    6  C   UNL     1      41.189 -15.734   5.383  1.00  0.00     0.099 C 
HETATM    7  N   UNL     1      40.834 -16.328   6.315  1.00  0.00    -0.192 NA
HETATM    8  C   UNL     1      41.332 -15.624   2.867  1.00  0.00     0.106 C 
HETATM    9  C   UNL     1      41.325 -14.592   1.751  1.00  0.00     0.046 C 
HETATM   10  H   UNL     1      42.746 -12.113   3.311  1.00  0.00     0.166 HD
ENDROOT
BRANCH   4  11
HETATM   11  S   UNL     1      42.622 -13.059   5.863  1.00  0.00    -0.102 SA
BRANCH  11  12
HETATM   12  C   UNL     1      41.627 -11.529   5.751  1.00  0.00     0.184 C 
BRANCH  12  13
HETATM   13  C   UNL     1      41.827 -10.629   6.965  1.00  0.00     0.231 C 
HETATM   14  N   UNL     1      42.136 -11.313   8.128  1.00  0.00    -0.327 N 
HETATM   15  H   UNL     1      42.074 -12.325   8.068  1.00  0.00     0.169 HD
HETATM   16  O   UNL     1      41.779  -9.408   6.837  1.00  0.00    -0.272 OA
BRANCH  14  17
HETATM   17  C   UNL     1      42.417 -10.778   9.400  1.00  0.00     0.034 A 
HETATM   18  C   UNL     1      41.497 -10.060  10.166  1.00  0.00     0.031 A 
HETATM   19  C   UNL     1      41.854  -9.567  11.427  1.00  0.00     0.026 A 
HETATM   20  C   UNL     1      43.133  -9.793  11.925  1.00  0.00     0.034 A 
HETATM   21 CL   UNL     1      43.567  -9.194  13.478  1.00  0.00    -0.084 Cl
HETATM   22  C   UNL     1      44.063 -10.503  11.171  1.00  0.00     0.026 A 
HETATM   23  C   UNL     1      43.706 -10.991   9.910  1.00  0.00     0.031 A 
ENDBRANCH  14  17
ENDBRANCH  12  13
ENDBRANCH  11  12
ENDBRANCH   4  11
BRANCH   8  24
HETATM   24  C   UNL     1      42.308 -16.785   2.621  1.00  0.00    -0.044 A 
HETATM   25  C   UNL     1      43.427 -16.592   1.791  1.00  0.00     0.008 A 
HETATM   26  C   UNL     1      44.317 -17.637   1.538  1.00  0.00     0.001 A 
HETATM   27  C   UNL     1      44.104 -18.891   2.103  1.00  0.00     0.000 A 
HETATM   28  C   UNL     1      42.993 -19.105   2.913  1.00  0.00     0.001 A 
HETATM   29  C   UNL     1      42.095 -18.065   3.161  1.00  0.00     0.008 A 
ENDBRANCH   8  24
BRANCH   9  30
HETATM   30  C   UNL     1      40.533 -14.876   0.525  1.00  0.00     0.255 C 
HETATM   31  N   UNL     1      39.186 -14.721   0.694  1.00  0.00    -0.321 N 
HETATM   32  H   UNL     1      38.646 -15.576   0.595  1.00  0.00     0.169 HD
HETATM   33  O   UNL     1      41.050 -15.368  -0.471  1.00  0.00    -0.268 OA
BRANCH  31  34
HETATM   34  C   UNL     1      38.456 -13.628   0.155  1.00  0.00     0.068 A 
HETATM   35  C   UNL     1      38.116 -12.576   1.021  1.00  0.00     0.095 A 
HETATM   36  C   UNL     1      37.516 -11.419   0.516  1.00  0.00     0.039 A 
HETATM   37  C   UNL     1      37.198 -11.334  -0.840  1.00  0.00     0.003 A 
HETATM   38  C   UNL     1      37.463 -12.408  -1.687  1.00  0.00     0.002 A 
HETATM   39  C   UNL     1      38.086 -13.554  -1.191  1.00  0.00     0.032 A 
BRANCH  35  40
HETATM   40  O   UNL     1      38.449 -12.723   2.347  1.00  0.00    -0.354 OA
HETATM   41  C   UNL     1      38.788 -11.489   2.979  1.00  0.00     0.210 C 
ENDBRANCH  35  40
ENDBRANCH  31  34
ENDBRANCH   9  30
TORSDOF 8
ENDMDL
MODEL 6
REMARK VINA RESULT:      -9.4      3.045      4.275
REMARK  8 active torsions:
REMARK  status: ('A' for Active; 'I' for Inactive)
REMARK    1  A    between atoms: C_4  and  S_5 
REMARK    2  A    between atoms: S_5  and  C_6 
REMARK    3  A    between atoms: C_6  and  C_7 
REMARK       I    between atoms: C_7  and  N_8 
REMARK    4  A    between atoms: N_8  and  C_9 
REMARK    5  A    between atoms: C_20  and  C_21 
REMARK    6  A    between atoms: C_27  and  C_28 
REMARK       I    between atoms: C_28  and  N_29 
REMARK    7  A    between atoms: N_29  and  C_30 
REMARK    8  A    between atoms: C_31  and  O_32 
ROOT
HETATM    1  C   UNL     1      40.683 -10.859   1.451  1.00  0.00     0.069 C 
HETATM    2  C   UNL     1      40.768 -12.124   2.267  1.00  0.00     0.019 C 
HETATM    3  N   UNL     1      41.593 -12.076   3.383  1.00  0.00    -0.353 N 
HETATM    4  C   UNL     1      41.523 -12.986   4.429  1.00  0.00     0.088 C 
HETATM    5  C   UNL     1      40.841 -14.145   4.255  1.00  0.00     0.069 C 
HETATM    6  C   UNL     1      40.594 -15.067   5.314  1.00  0.00     0.099 C 
HETATM    7  N   UNL     1      40.390 -15.818   6.176  1.00  0.00    -0.192 NA
HETATM    8  C   UNL     1      40.256 -14.489   2.881  1.00  0.00     0.106 C 
HETATM    9  C   UNL     1      40.097 -13.266   1.994  1.00  0.00     0.046 C 
HETATM   10  H   UNL     1      41.941 -11.160   3.656  1.00  0.00     0.166 HD
ENDROOT
BRANCH   4  11
HETATM   11  S   UNL     1      42.253 -12.566   5.969  1.00  0.00    -0.102 SA
BRANCH  11  12
HETATM   12  C   UNL     1      41.099 -11.259   6.520  1.00  0.00     0.184 C 
BRANCH  12  13
HETATM   13  C   UNL     1      41.664 -10.456   7.686  1.00  0.00     0.231 C 
HETATM   14  N   UNL     1      41.658 -11.135   8.892  1.00  0.00    -0.327 N 
HETATM   15  H   UNL     1      41.175 -12.028   8.887  1.00  0.00     0.169 HD
HETATM   16  O   UNL     1      42.135  -9.338   7.489  1.00  0.00    -0.272 OA
BRANCH  14  17
HETATM   17  C   UNL     1      42.142 -10.693  10.139  1.00  0.00     0.034 A 
HETATM   18  C   UNL     1      43.492 -10.697  10.497  1.00  0.00     0.031 A 
HETATM   19  C   UNL     1      43.894 -10.232  11.755  1.00  0.00     0.026 A 
HETATM   20  C   UNL     1      42.945  -9.763  12.658  1.00  0.00     0.034 A 
HETATM   21 CL   UNL     1      43.441  -9.185  14.201  1.00  0.00    -0.084 Cl
HETATM   22  C   UNL     1      41.596  -9.758  12.317  1.00  0.00     0.026 A 
HETATM   23  C   UNL     1      41.196 -10.226  11.062  1.00  0.00     0.031 A 
ENDBRANCH  14  17
ENDBRANCH  12  13
ENDBRANCH  11  12
ENDBRANCH   4  11
BRANCH   8  24
HETATM   24  C   UNL     1      41.094 -15.606   2.240  1.00  0.00    -0.044 A 
HETATM   25  C   UNL     1      42.469 -15.410   2.023  1.00  0.00     0.008 A 
HETATM   26  C   UNL     1      43.247 -16.402   1.424  1.00  0.00     0.001 A 
HETATM   27  C   UNL     1      42.666 -17.603   1.029  1.00  0.00     0.000 A 
HETATM   28  C   UNL     1      41.303 -17.809   1.220  1.00  0.00     0.001 A 
HETATM   29  C   UNL     1      40.520 -16.815   1.810  1.00  0.00     0.008 A 
ENDBRANCH   8  24
BRANCH   9  30
HETATM   30  C   UNL     1      39.068 -13.295   0.921  1.00  0.00     0.255 C 
HETATM   31  N   UNL     1      39.568 -13.040  -0.326  1.00  0.00    -0.321 N 
HETATM   32  H   UNL     1      39.222 -12.187  -0.754  1.00  0.00     0.169 HD
HETATM   33  O   UNL     1      37.873 -13.367   1.181  1.00  0.00    -0.268 OA
BRANCH  31  34
HETATM   34  C   UNL     1      39.728 -14.045  -1.318  1.00  0.00     0.068 A 
HETATM   35  C   UNL     1      38.751 -14.134  -2.323  1.00  0.00     0.095 A 
HETATM   36  C   UNL     1      38.928 -15.014  -3.395  1.00  0.00     0.039 A 
HETATM   37  C   UNL     1      40.045 -15.850  -3.433  1.00  0.00     0.003 A 
HETATM   38  C   UNL     1      40.975 -15.818  -2.397  1.00  0.00     0.002 A 
HETATM   39  C   UNL     1      40.816 -14.922  -1.339  1.00  0.00     0.032 A 
BRANCH  35  40
HETATM   40  O   UNL     1      37.671 -13.291  -2.224  1.00  0.00    -0.354 OA
HETATM   41  C   UNL     1      37.505 -12.456  -3.370  1.00  0.00     0.210 C 
ENDBRANCH  35  40
ENDBRANCH  31  34
ENDBRANCH   9  30
TORSDOF 8
ENDMDL
MODEL 7
REMARK VINA RESULT:      -9.1      2.213      5.695
REMARK  8 active torsions:
REMARK  status: ('A' for Active; 'I' for Inactive)
REMARK    1  A    between atoms: C_4  and  S_5 
REMARK    2  A    between atoms: S_5  and  C_6 
REMARK    3  A    between atoms: C_6  and  C_7 
REMARK       I    between atoms: C_7  and  N_8 
REMARK    4  A    between atoms: N_8  and  C_9 
REMARK    5  A    between atoms: C_20  and  C_21 
REMARK    6  A    between atoms: C_27  and  C_28 
REMARK       I    between atoms: C_28  and  N_29 
REMARK    7  A    between atoms: N_29  and  C_30 
REMARK    8  A    between atoms: C_31  and  O_32 
ROOT
HETATM    1  C   UNL     1      40.385 -16.364   5.988  1.00  0.00     0.069 C 
HETATM    2  C   UNL     1      40.376 -15.102   5.164  1.00  0.00     0.019 C 
HETATM    3  N   UNL     1      39.755 -14.001   5.742  1.00  0.00    -0.353 N 
HETATM    4  C   UNL     1      39.955 -12.696   5.315  1.00  0.00     0.088 C 
HETATM    5  C   UNL     1      40.537 -12.473   4.110  1.00  0.00     0.069 C 
HETATM    6  C   UNL     1      40.913 -11.176   3.657  1.00  0.00     0.099 C 
HETATM    7  N   UNL     1      41.222 -10.119   3.287  1.00  0.00    -0.192 NA
HETATM    8  C   UNL     1      40.863 -13.655   3.188  1.00  0.00     0.106 C 
HETATM    9  C   UNL     1      40.932 -14.975   3.938  1.00  0.00     0.046 C 
HETATM   10  H   UNL     1      39.506 -14.080   6.725  1.00  0.00     0.166 HD
ENDROOT
BRANCH   4  11
HETATM   11  S   UNL     1      39.519 -11.376   6.386  1.00  0.00    -0.102 SA
BRANCH  11  12
HETATM   12  C   UNL     1      41.094 -11.174   7.294  1.00  0.00     0.184 C 
BRANCH  12  13
HETATM   13  C   UNL     1      40.872 -10.654   8.710  1.00  0.00     0.231 C 
HETATM   14  N   UNL     1      41.774 -11.144   9.638  1.00  0.00    -0.327 N 
HETATM   15  H   UNL     1      42.394 -11.874   9.299  1.00  0.00     0.169 HD
HETATM   16  O   UNL     1      39.997  -9.818   8.926  1.00  0.00    -0.272 OA
BRANCH  14  17
HETATM   17  C   UNL     1      41.866 -10.832  11.008  1.00  0.00     0.034 A 
HETATM   18  C   UNL     1      40.894 -11.170  11.952  1.00  0.00     0.031 A 
HETATM   19  C   UNL     1      41.064 -10.830  13.299  1.00  0.00     0.026 A 
HETATM   20  C   UNL     1      42.208 -10.149  13.705  1.00  0.00     0.034 A 
HETATM   21 CL   UNL     1      42.419  -9.738  15.362  1.00  0.00    -0.084 Cl
HETATM   22  C   UNL     1      43.183  -9.800  12.775  1.00  0.00     0.026 A 
HETATM   23  C   UNL     1      43.009 -10.138  11.429  1.00  0.00     0.031 A 
ENDBRANCH  14  17
ENDBRANCH  12  13
ENDBRANCH  11  12
ENDBRANCH   4  11
BRANCH   8  24
HETATM   24  C   UNL     1      39.872 -13.667   2.014  1.00  0.00    -0.044 A 
HETATM   25  C   UNL     1      38.667 -14.383   2.125  1.00  0.00     0.008 A 
HETATM   26  C   UNL     1      37.760 -14.425   1.065  1.00  0.00     0.001 A 
HETATM   27  C   UNL     1      38.043 -13.759  -0.124  1.00  0.00     0.000 A 
HETATM   28  C   UNL     1      39.239 -13.060  -0.259  1.00  0.00     0.001 A 
HETATM   29  C   UNL     1      40.153 -13.024   0.796  1.00  0.00     0.008 A 
ENDBRANCH   8  24
BRANCH   9  30
HETATM   30  C   UNL     1      41.761 -16.071   3.371  1.00  0.00     0.255 C 
HETATM   31  N   UNL     1      43.086 -15.979   3.693  1.00  0.00    -0.321 N 
HETATM   32  H   UNL     1      43.704 -15.825   2.901  1.00  0.00     0.169 HD
HETATM   33  O   UNL     1      41.304 -16.864   2.557  1.00  0.00    -0.268 OA
BRANCH  31  34
HETATM   34  C   UNL     1      43.718 -16.835   4.635  1.00  0.00     0.068 A 
HETATM   35  C   UNL     1      44.020 -16.306   5.901  1.00  0.00     0.095 A 
HETATM   36  C   UNL     1      44.519 -17.138   6.906  1.00  0.00     0.039 A 
HETATM   37  C   UNL     1      44.778 -18.482   6.634  1.00  0.00     0.003 A 
HETATM   38  C   UNL     1      44.553 -18.990   5.357  1.00  0.00     0.002 A 
HETATM   39  C   UNL     1      44.029 -18.169   4.357  1.00  0.00     0.032 A 
BRANCH  35  40
HETATM   40  O   UNL     1      43.750 -14.973   6.104  1.00  0.00    -0.354 OA
HETATM   41  C   UNL     1      44.732 -14.321   6.909  1.00  0.00     0.210 C 
ENDBRANCH  35  40
ENDBRANCH  31  34
ENDBRANCH   9  30
TORSDOF 8
ENDMDL
MODEL 8
REMARK VINA RESULT:      -8.9      5.001      7.784
REMARK  8 active torsions:
REMARK  status: ('A' for Active; 'I' for Inactive)
REMARK    1  A    between atoms: C_4  and  S_5 
REMARK    2  A    between atoms: S_5  and  C_6 
REMARK    3  A    between atoms: C_6  and  C_7 
REMARK       I    between atoms: C_7  and  N_8 
REMARK    4  A    between atoms: N_8  and  C_9 
REMARK    5  A    between atoms: C_20  and  C_21 
REMARK    6  A    between atoms: C_27  and  C_28 
REMARK       I    between atoms: C_28  and  N_29 
REMARK    7  A    between atoms: N_29  and  C_30 
REMARK    8  A    between atoms: C_31  and  O_32 
ROOT
HETATM    1  C   UNL     1      39.010 -11.757   2.813  1.00  0.00     0.069 C 
HETATM    2  C   UNL     1      39.919 -12.777   2.178  1.00  0.00     0.019 C 
HETATM    3  N   UNL     1      41.218 -12.828   2.670  1.00  0.00    -0.353 N 
HETATM    4  C   UNL     1      42.070 -13.906   2.477  1.00  0.00     0.088 C 
HETATM    5  C   UNL     1      41.765 -14.833   1.535  1.00  0.00     0.069 C 
HETATM    6  C   UNL     1      42.500 -16.043   1.369  1.00  0.00     0.099 C 
HETATM    7  N   UNL     1      43.096 -17.030   1.234  1.00  0.00    -0.192 NA
HETATM    8  C   UNL     1      40.553 -14.622   0.620  1.00  0.00     0.106 C 
HETATM    9  C   UNL     1      39.555 -13.632   1.195  1.00  0.00     0.046 C 
HETATM   10  H   UNL     1      41.406 -12.299   3.518  1.00  0.00     0.166 HD
ENDROOT
BRANCH   4  11
HETATM   11  S   UNL     1      43.472 -14.076   3.518  1.00  0.00    -0.102 SA
BRANCH  11  12
HETATM   12  C   UNL     1      42.674 -14.756   5.016  1.00  0.00     0.184 C 
BRANCH  12  13
HETATM   13  C   UNL     1      43.372 -16.018   5.511  1.00  0.00     0.231 C 
HETATM   14  N   UNL     1      43.106 -17.143   4.750  1.00  0.00    -0.327 N 
HETATM   15  H   UNL     1      42.394 -17.028   4.035  1.00  0.00     0.169 HD
HETATM   16  O   UNL     1      44.147 -15.956   6.462  1.00  0.00    -0.272 OA
BRANCH  14  17
HETATM   17  C   UNL     1      43.622 -18.444   4.915  1.00  0.00     0.034 A 
HETATM   18  C   UNL     1      43.572 -19.157   6.114  1.00  0.00     0.031 A 
HETATM   19  C   UNL     1      44.102 -20.450   6.194  1.00  0.00     0.026 A 
HETATM   20  C   UNL     1      44.682 -21.033   5.072  1.00  0.00     0.034 A 
HETATM   21 CL   UNL     1      45.325 -22.626   5.170  1.00  0.00    -0.084 Cl
HETATM   22  C   UNL     1      44.744 -20.333   3.871  1.00  0.00     0.026 A 
HETATM   23  C   UNL     1      44.218 -19.040   3.795  1.00  0.00     0.031 A 
ENDBRANCH  14  17
ENDBRANCH  12  13
ENDBRANCH  11  12
ENDBRANCH   4  11
BRANCH   8  24
HETATM   24  C   UNL     1      41.042 -14.251  -0.788  1.00  0.00    -0.044 A 
HETATM   25  C   UNL     1      41.569 -12.970  -1.030  1.00  0.00     0.008 A 
HETATM   26  C   UNL     1      42.001 -12.603  -2.305  1.00  0.00     0.001 A 
HETATM   27  C   UNL     1      41.911 -13.505  -3.361  1.00  0.00     0.000 A 
HETATM   28  C   UNL     1      41.376 -14.772  -3.145  1.00  0.00     0.001 A 
HETATM   29  C   UNL     1      40.933 -15.139  -1.873  1.00  0.00     0.008 A 
ENDBRANCH   8  24
BRANCH   9  30
HETATM   30  C   UNL     1      38.132 -13.732   0.776  1.00  0.00     0.255 C 
HETATM   31  N   UNL     1      37.667 -12.615   0.140  1.00  0.00    -0.321 N 
HETATM   32  H   UNL     1      36.930 -12.121   0.635  1.00  0.00     0.169 HD
HETATM   33  O   UNL     1      37.423 -14.664   1.135  1.00  0.00    -0.268 OA
BRANCH  31  34
HETATM   34  C   UNL     1      37.423 -12.563  -1.259  1.00  0.00     0.068 A 
HETATM   35  C   UNL     1      36.712 -11.460  -1.759  1.00  0.00     0.095 A 
HETATM   36  C   UNL     1      36.559 -11.293  -3.139  1.00  0.00     0.039 A 
HETATM   37  C   UNL     1      37.059 -12.255  -4.017  1.00  0.00     0.003 A 
HETATM   38  C   UNL     1      37.696 -13.390  -3.519  1.00  0.00     0.002 A 
HETATM   39  C   UNL     1      37.874 -13.547  -2.143  1.00  0.00     0.032 A 
BRANCH  35  40
HETATM   40  O   UNL     1      36.238 -10.552  -0.843  1.00  0.00    -0.354 OA
HETATM   41  C   UNL     1      34.832 -10.663  -0.621  1.00  0.00     0.210 C 
ENDBRANCH  35  40
ENDBRANCH  31  34
ENDBRANCH   9  30
TORSDOF 8
ENDMDL
MODEL 9
REMARK VINA RESULT:      -8.8      2.960      4.555
REMARK  8 active torsions:
REMARK  status: ('A' for Active; 'I' for Inactive)
REMARK    1  A    between atoms: C_4  and  S_5 
REMARK    2  A    between atoms: S_5  and  C_6 
REMARK    3  A    between atoms: C_6  and  C_7 
REMARK       I    between atoms: C_7  and  N_8 
REMARK    4  A    between atoms: N_8  and  C_9 
REMARK    5  A    between atoms: C_20  and  C_21 
REMARK    6  A    between atoms: C_27  and  C_28 
REMARK       I    between atoms: C_28  and  N_29 
REMARK    7  A    between atoms: N_29  and  C_30 
REMARK    8  A    between atoms: C_31  and  O_32 
ROOT
HETATM    1  C   UNL     1      40.818 -10.174   1.646  1.00  0.00     0.069 C 
HETATM    2  C   UNL     1      40.630 -10.808   2.999  1.00  0.00     0.019 C 
HETATM    3  N   UNL     1      41.094 -10.078   4.087  1.00  0.00    -0.353 N 
HETATM    4  C   UNL     1      40.700 -10.315   5.396  1.00  0.00     0.088 C 
HETATM    5  C   UNL     1      40.070 -11.477   5.699  1.00  0.00     0.069 C 
HETATM    6  C   UNL     1      39.501 -11.742   6.979  1.00  0.00     0.099 C 
HETATM    7  N   UNL     1      39.036 -11.958   8.020  1.00  0.00    -0.192 NA
HETATM    8  C   UNL     1      39.902 -12.559   4.625  1.00  0.00     0.106 C 
HETATM    9  C   UNL     1      40.039 -12.006   3.216  1.00  0.00     0.046 C 
HETATM   10  H   UNL     1      41.370  -9.116   3.906  1.00  0.00     0.166 HD
ENDROOT
BRANCH   4  11
HETATM   11  S   UNL     1      40.959  -9.065   6.600  1.00  0.00    -0.102 SA
BRANCH  11  12
HETATM   12  C   UNL     1      41.987  -9.988   7.798  1.00  0.00     0.184 C 
BRANCH  12  13
HETATM   13  C   UNL     1      41.676  -9.594   9.237  1.00  0.00     0.231 C 
HETATM   14  N   UNL     1      42.412 -10.287  10.182  1.00  0.00    -0.327 N 
HETATM   15  H   UNL     1      42.977 -11.050   9.821  1.00  0.00     0.169 HD
HETATM   16  O   UNL     1      40.885  -8.682   9.465  1.00  0.00    -0.272 OA
BRANCH  14  17
HETATM   17  C   UNL     1      42.392 -10.132  11.582  1.00  0.00     0.034 A 
HETATM   18  C   UNL     1      43.395  -9.489  12.311  1.00  0.00     0.031 A 
HETATM   19  C   UNL     1      43.296  -9.369  13.702  1.00  0.00     0.026 A 
HETATM   20  C   UNL     1      42.192  -9.894  14.368  1.00  0.00     0.034 A 
HETATM   21 CL   UNL     1      42.068  -9.739  16.076  1.00  0.00    -0.084 Cl
HETATM   22  C   UNL     1      41.188 -10.542  13.656  1.00  0.00     0.026 A 
HETATM   23  C   UNL     1      41.290 -10.664  12.266  1.00  0.00     0.031 A 
ENDBRANCH  14  17
ENDBRANCH  12  13
ENDBRANCH  11  12
ENDBRANCH   4  11
BRANCH   8  24
HETATM   24  C   UNL     1      40.862 -13.720   4.924  1.00  0.00    -0.044 A 
HETATM   25  C   UNL     1      40.382 -14.875   5.566  1.00  0.00     0.008 A 
HETATM   26  C   UNL     1      41.240 -15.935   5.866  1.00  0.00     0.001 A 
HETATM   27  C   UNL     1      42.589 -15.858   5.535  1.00  0.00     0.000 A 
HETATM   28  C   UNL     1      43.086 -14.716   4.915  1.00  0.00     0.001 A 
HETATM   29  C   UNL     1      42.233 -13.650   4.622  1.00  0.00     0.008 A 
ENDBRANCH   8  24
BRANCH   9  30
HETATM   30  C   UNL     1      39.368 -12.725   2.102  1.00  0.00     0.255 C 
HETATM   31  N   UNL     1      40.237 -13.317   1.228  1.00  0.00    -0.321 N 
HETATM   32  H   UNL     1      40.215 -12.937   0.286  1.00  0.00     0.169 HD
HETATM   33  O   UNL     1      38.161 -12.630   1.914  1.00  0.00    -0.268 OA
BRANCH  31  34
HETATM   34  C   UNL     1      40.448 -14.721   1.174  1.00  0.00     0.068 A 
HETATM   35  C   UNL     1      41.254 -15.223   0.140  1.00  0.00     0.095 A 
HETATM   36  C   UNL     1      41.601 -16.577   0.117  1.00  0.00     0.039 A 
HETATM   37  C   UNL     1      41.094 -17.443   1.087  1.00  0.00     0.003 A 
HETATM   38  C   UNL     1      40.231 -16.961   2.068  1.00  0.00     0.002 A 
HETATM   39  C   UNL     1      39.904 -15.605   2.111  1.00  0.00     0.032 A 
BRANCH  35  40
HETATM   40  O   UNL     1      41.715 -14.322  -0.790  1.00  0.00    -0.354 OA
HETATM   41  C   UNL     1      41.131 -14.501  -2.080  1.00  0.00     0.210 C 
ENDBRANCH  35  40
ENDBRANCH  31  34
ENDBRANCH   9  30
TORSDOF 8
ENDMDL
MODEL 10
REMARK VINA RESULT:      -8.8      3.050      6.043
REMARK  8 active torsions:
REMARK  status: ('A' for Active; 'I' for Inactive)
REMARK    1  A    between atoms: C_4  and  S_5 
REMARK    2  A    between atoms: S_5  and  C_6 
REMARK    3  A    between atoms: C_6  and  C_7 
REMARK       I    between atoms: C_7  and  N_8 
REMARK    4  A    between atoms: N_8  and  C_9 
REMARK    5  A    between atoms: C_20  and  C_21 
REMARK    6  A    between atoms: C_27  and  C_28 
REMARK       I    between atoms: C_28  and  N_29 
REMARK    7  A    between atoms: N_29  and  C_30 
REMARK    8  A    between atoms: C_31  and  O_32 
ROOT
HETATM    1  C   UNL     1      39.926 -13.952   6.255  1.00  0.00     0.069 C 
HETATM    2  C   UNL     1      40.544 -13.795   4.889  1.00  0.00     0.019 C 
HETATM    3  N   UNL     1      39.702 -13.325   3.888  1.00  0.00    -0.353 N 
HETATM    4  C   UNL     1      40.157 -12.785   2.694  1.00  0.00     0.088 C 
HETATM    5  C   UNL     1      41.450 -12.974   2.329  1.00  0.00     0.069 C 
HETATM    6  C   UNL     1      42.039 -12.336   1.199  1.00  0.00     0.099 C 
HETATM    7  N   UNL     1      42.521 -11.815   0.280  1.00  0.00    -0.192 NA
HETATM    8  C   UNL     1      42.359 -13.872   3.176  1.00  0.00     0.106 C 
HETATM    9  C   UNL     1      41.836 -14.061   4.590  1.00  0.00     0.046 C 
HETATM   10  H   UNL     1      38.795 -12.972   4.184  1.00  0.00     0.166 HD
ENDROOT
BRANCH   4  11
HETATM   11  S   UNL     1      39.062 -11.805   1.735  1.00  0.00    -0.102 SA
BRANCH  11  12
HETATM   12  C   UNL     1      39.364 -10.165   2.486  1.00  0.00     0.184 C 
BRANCH  12  13
HETATM   13  C   UNL     1      39.374 -10.230   4.009  1.00  0.00     0.231 C 
HETATM   14  N   UNL     1      40.574  -9.847   4.582  1.00  0.00    -0.327 N 
HETATM   15  H   UNL     1      41.336  -9.687   3.930  1.00  0.00     0.169 HD
HETATM   16  O   UNL     1      38.348 -10.531   4.616  1.00  0.00    -0.272 OA
BRANCH  14  17
HETATM   17  C   UNL     1      40.893  -9.757   5.950  1.00  0.00     0.034 A 
HETATM   18  C   UNL     1      41.609 -10.730   6.651  1.00  0.00     0.031 A 
HETATM   19  C   UNL     1      41.893 -10.562   8.011  1.00  0.00     0.026 A 
HETATM   20  C   UNL     1      41.460  -9.418   8.674  1.00  0.00     0.034 A 
HETATM   21 CL   UNL     1      41.815  -9.209  10.344  1.00  0.00    -0.084 Cl
HETATM   22  C   UNL     1      40.740  -8.442   7.991  1.00  0.00     0.026 A 
HETATM   23  C   UNL     1      40.455  -8.614   6.633  1.00  0.00     0.031 A 
ENDBRANCH  14  17
ENDBRANCH  12  13
ENDBRANCH  11  12
ENDBRANCH   4  11
BRANCH   8  24
HETATM   24  C   UNL     1      42.601 -15.192   2.429  1.00  0.00    -0.044 A 
HETATM   25  C   UNL     1      41.533 -15.828   1.771  1.00  0.00     0.008 A 
HETATM   26  C   UNL     1      41.724 -17.038   1.103  1.00  0.00     0.001 A 
HETATM   27  C   UNL     1      42.980 -17.637   1.085  1.00  0.00     0.000 A 
HETATM   28  C   UNL     1      44.045 -17.032   1.746  1.00  0.00     0.001 A 
HETATM   29  C   UNL     1      43.856 -15.826   2.423  1.00  0.00     0.008 A 
ENDBRANCH   8  24
BRANCH   9  30
HETATM   30  C   UNL     1      42.806 -14.386   5.669  1.00  0.00     0.255 C 
HETATM   31  N   UNL     1      42.539 -15.563   6.311  1.00  0.00    -0.321 N 
HETATM   32  H   UNL     1      42.296 -15.465   7.292  1.00  0.00     0.169 HD
HETATM   33  O   UNL     1      43.645 -13.575   6.041  1.00  0.00    -0.268 OA
BRANCH  31  34
HETATM   34  C   UNL     1      43.311 -16.741   6.123  1.00  0.00     0.068 A 
HETATM   35  C   UNL     1      42.795 -17.735   5.275  1.00  0.00     0.095 A 
HETATM   36  C   UNL     1      43.570 -18.852   4.952  1.00  0.00     0.039 A 
HETATM   37  C   UNL     1      44.834 -19.012   5.523  1.00  0.00     0.003 A 
HETATM   38  C   UNL     1      45.316 -18.066   6.425  1.00  0.00     0.002 A 
HETATM   39  C   UNL     1      44.556 -16.936   6.729  1.00  0.00     0.032 A 
BRANCH  35  40
HETATM   40  O   UNL     1      41.541 -17.523   4.752  1.00  0.00    -0.354 OA
HETATM   41  C   UNL     1      40.495 -17.775   5.690  1.00  0.00     0.210 C 
ENDBRANCH  35  40
ENDBRANCH  31  34
ENDBRANCH   9  30
TORSDOF 8
ENDMDL
