MODEL 1
REMARK VINA RESULT:      -9.5      0.000      0.000
REMARK  5 active torsions:
REMARK  status: ('A' for Active; 'I' for Inactive)
REMARK    1  A    between atoms: C_2  and  C_3 
REMARK    2  A    between atoms: C_14  and  C_17 
REMARK       I    between atoms: C_17  and  N_19 
REMARK    3  A    between atoms: N_19  and  C_20 
REMARK    4  A    between atoms: C_20  and  C_22 
REMARK    5  A    between atoms: C_26  and  O_27 
ROOT
HETATM    1  C   UNL     1      44.132 -18.196   5.393  1.00  0.00     0.162 C 
HETATM    2  O   UNL     1      44.935 -19.390   5.430  1.00  0.00    -0.339 OA
HETATM    3  C   UNL     1      44.692 -20.300   4.440  1.00  0.00     0.098 A 
HETATM    4  C   UNL     1      45.031 -21.623   4.693  1.00  0.00     0.153 A 
HETATM    5  N   UNL     1      44.850 -22.632   3.812  1.00  0.00    -0.270 NA
HETATM    6  C   UNL     1      44.316 -22.294   2.623  1.00  0.00     0.117 A 
HETATM    7  C   UNL     1      43.964 -20.997   2.271  1.00  0.00     0.034 A 
HETATM    8  C   UNL     1      44.163 -19.958   3.190  1.00  0.00     0.011 A 
HETATM    9  C   UNL     1      43.856 -18.547   2.915  1.00  0.00    -0.014 A 
HETATM   10  C   UNL     1      43.581 -18.032   1.641  1.00  0.00     0.014 A 
HETATM   11  C   UNL     1      43.289 -16.673   1.459  1.00  0.00     0.018 A 
HETATM   12  C   UNL     1      43.266 -15.790   2.543  1.00  0.00     0.032 A 
HETATM   13  C   UNL     1      43.557 -16.290   3.816  1.00  0.00     0.027 A 
HETATM   14  C   UNL     1      43.856 -17.657   4.000  1.00  0.00    -0.017 A 
ENDROOT
BRANCH  12  15
HETATM   15  C   UNL     1      42.900 -14.363   2.273  1.00  0.00     0.252 C 
HETATM   16  O   UNL     1      43.403 -13.466   2.941  1.00  0.00    -0.268 OA
HETATM   17  N   UNL     1      42.013 -14.111   1.250  1.00  0.00    -0.349 N 
HETATM   18  H   UNL     1      41.579 -14.855   0.730  1.00  0.00     0.163 HD
BRANCH  17  19
HETATM   19  C   UNL     1      41.660 -12.757   0.849  1.00  0.00     0.114 C 
HETATM   20  C   UNL     1      40.294 -12.363   1.416  1.00  0.00     0.037 C 
BRANCH  19  21
HETATM   21  C   UNL     1      41.781 -12.662  -0.665  1.00  0.00    -0.033 A 
HETATM   22  C   UNL     1      42.452 -11.555  -1.213  1.00  0.00     0.009 A 
HETATM   23  C   UNL     1      42.648 -11.448  -2.589  1.00  0.00     0.003 A 
HETATM   24  C   UNL     1      42.179 -12.450  -3.435  1.00  0.00     0.037 A 
HETATM   25  C   UNL     1      41.511 -13.561  -2.916  1.00  0.00     0.068 A 
HETATM   26  C   UNL     1      41.324 -13.669  -1.535  1.00  0.00     0.046 A 
BRANCH  25  27
HETATM   27  O   UNL     1      41.109 -14.471  -3.856  1.00  0.00    -0.356 OA
HETATM   28  C   UNL     1      39.987 -15.281  -3.529  1.00  0.00     0.210 C 
ENDBRANCH  25  27
ENDBRANCH  19  21
ENDBRANCH  17  19
ENDBRANCH  12  15
BRANCH   1  29
HETATM   29  C   UNL     1      42.828 -18.412   6.182  1.00  0.00     0.033 C 
HETATM   30  C   UNL     1      42.672 -17.417   7.325  1.00  0.00     0.008 C 
ENDBRANCH   1  29
TORSDOF 5
ENDMDL
MODEL 2
REMARK VINA RESULT:      -9.2      1.319      1.517
REMARK  5 active torsions:
REMARK  status: ('A' for Active; 'I' for Inactive)
REMARK    1  A    between atoms: C_2  and  C_3 
REMARK    2  A    between atoms: C_14  and  C_17 
REMARK       I    between atoms: C_17  and  N_19 
REMARK    3  A    between atoms: N_19  and  C_20 
REMARK    4  A    between atoms: C_20  and  C_22 
REMARK    5  A    between atoms: C_26  and  O_27 
ROOT
HETATM    1  C   UNL     1      43.830 -17.878   5.089  1.00  0.00     0.162 C 
HETATM    2  O   UNL     1      44.733 -18.995   5.191  1.00  0.00    -0.339 OA
HETATM    3  C   UNL     1      44.561 -19.984   4.263  1.00  0.00     0.098 A 
HETATM    4  C   UNL     1      45.014 -21.254   4.595  1.00  0.00     0.153 A 
HETATM    5  N   UNL     1      44.913 -22.329   3.782  1.00  0.00    -0.270 NA
HETATM    6  C   UNL     1      44.343 -22.114   2.581  1.00  0.00     0.117 A 
HETATM    7  C   UNL     1      43.880 -20.877   2.152  1.00  0.00     0.034 A 
HETATM    8  C   UNL     1      43.995 -19.768   3.001  1.00  0.00     0.011 A 
HETATM    9  C   UNL     1      43.568 -18.409   2.641  1.00  0.00    -0.014 A 
HETATM   10  C   UNL     1      43.240 -18.002   1.341  1.00  0.00     0.014 A 
HETATM   11  C   UNL     1      42.832 -16.687   1.077  1.00  0.00     0.018 A 
HETATM   12  C   UNL     1      42.741 -15.741   2.103  1.00  0.00     0.032 A 
HETATM   13  C   UNL     1      43.084 -16.133   3.401  1.00  0.00     0.027 A 
HETATM   14  C   UNL     1      43.499 -17.454   3.668  1.00  0.00    -0.017 A 
ENDROOT
BRANCH  12  15
HETATM   15  C   UNL     1      42.253 -14.371   1.748  1.00  0.00     0.252 C 
HETATM   16  O   UNL     1      42.891 -13.384   2.101  1.00  0.00    -0.268 OA
HETATM   17  N   UNL     1      41.097 -14.274   1.006  1.00  0.00    -0.349 N 
HETATM   18  H   UNL     1      40.562 -15.088   0.751  1.00  0.00     0.163 HD
BRANCH  17  19
HETATM   19  C   UNL     1      40.586 -12.995   0.535  1.00  0.00     0.114 C 
HETATM   20  C   UNL     1      39.694 -12.345   1.594  1.00  0.00     0.037 C 
BRANCH  19  21
HETATM   21  C   UNL     1      39.923 -13.218  -0.817  1.00  0.00    -0.033 A 
HETATM   22  C   UNL     1      38.921 -12.321  -1.226  1.00  0.00     0.009 A 
HETATM   23  C   UNL     1      38.324 -12.439  -2.479  1.00  0.00     0.003 A 
HETATM   24  C   UNL     1      38.725 -13.455  -3.344  1.00  0.00     0.037 A 
HETATM   25  C   UNL     1      39.720 -14.358  -2.964  1.00  0.00     0.068 A 
HETATM   26  C   UNL     1      40.322 -14.230  -1.709  1.00  0.00     0.046 A 
BRANCH  25  27
HETATM   27  O   UNL     1      40.021 -15.300  -3.910  1.00  0.00    -0.356 OA
HETATM   28  C   UNL     1      38.967 -16.163  -4.317  1.00  0.00     0.210 C 
ENDBRANCH  25  27
ENDBRANCH  19  21
ENDBRANCH  17  19
ENDBRANCH  12  15
BRANCH   1  29
HETATM   29  C   UNL     1      42.555 -18.152   5.906  1.00  0.00     0.033 C 
HETATM   30  C   UNL     1      42.369 -17.153   7.041  1.00  0.00     0.008 C 
ENDBRANCH   1  29
TORSDOF 5
ENDMDL
MODEL 3
REMARK VINA RESULT:      -9.1      1.371      2.142
REMARK  5 active torsions:
REMARK  status: ('A' for Active; 'I' for Inactive)
REMARK    1  A    between atoms: C_2  and  C_3 
REMARK    2  A    between atoms: C_14  and  C_17 
REMARK       I    between atoms: C_17  and  N_19 
REMARK    3  A    between atoms: N_19  and  C_20 
REMARK    4  A    between atoms: C_20  and  C_22 
REMARK    5  A    between atoms: C_26  and  O_27 
ROOT
HETATM    1  C   UNL     1      44.184 -18.415   5.191  1.00  0.00     0.162 C 
HETATM    2  O   UNL     1      44.936 -19.637   5.064  1.00  0.00    -0.339 OA
HETATM    3  C   UNL     1      44.599 -20.434   4.006  1.00  0.00     0.098 A 
HETATM    4  C   UNL     1      44.894 -21.787   4.109  1.00  0.00     0.153 A 
HETATM    5  N   UNL     1      44.622 -22.696   3.146  1.00  0.00    -0.270 NA
HETATM    6  C   UNL     1      44.038 -22.221   2.029  1.00  0.00     0.117 A 
HETATM    7  C   UNL     1      43.725 -20.884   1.826  1.00  0.00     0.034 A 
HETATM    8  C   UNL     1      44.018 -19.949   2.828  1.00  0.00     0.011 A 
HETATM    9  C   UNL     1      43.759 -18.508   2.711  1.00  0.00    -0.014 A 
HETATM   10  C   UNL     1      43.436 -17.858   1.511  1.00  0.00     0.014 A 
HETATM   11  C   UNL     1      43.194 -16.478   1.479  1.00  0.00     0.018 A 
HETATM   12  C   UNL     1      43.269 -15.706   2.644  1.00  0.00     0.032 A 
HETATM   13  C   UNL     1      43.608 -16.342   3.842  1.00  0.00     0.027 A 
HETATM   14  C   UNL     1      43.856 -17.730   3.875  1.00  0.00    -0.017 A 
ENDROOT
BRANCH  12  15
HETATM   15  C   UNL     1      42.951 -14.247   2.536  1.00  0.00     0.252 C 
HETATM   16  O   UNL     1      43.552 -13.437   3.234  1.00  0.00    -0.268 OA
HETATM   17  N   UNL     1      41.995 -13.865   1.622  1.00  0.00    -0.349 N 
HETATM   18  H   UNL     1      41.482 -14.540   1.078  1.00  0.00     0.163 HD
BRANCH  17  19
HETATM   19  C   UNL     1      41.674 -12.466   1.377  1.00  0.00     0.114 C 
HETATM   20  C   UNL     1      40.209 -12.179   1.711  1.00  0.00     0.037 C 
BRANCH  19  21
HETATM   21  C   UNL     1      42.090 -12.126  -0.047  1.00  0.00    -0.033 A 
HETATM   22  C   UNL     1      41.948 -13.114  -1.038  1.00  0.00     0.009 A 
HETATM   23  C   UNL     1      42.253 -12.839  -2.370  1.00  0.00     0.003 A 
HETATM   24  C   UNL     1      42.701 -11.570  -2.729  1.00  0.00     0.037 A 
HETATM   25  C   UNL     1      42.848 -10.571  -1.766  1.00  0.00     0.068 A 
HETATM   26  C   UNL     1      42.533 -10.848  -0.433  1.00  0.00     0.046 A 
BRANCH  25  27
HETATM   27  O   UNL     1      43.289  -9.372  -2.256  1.00  0.00    -0.356 OA
HETATM   28  C   UNL     1      43.821  -8.448  -1.314  1.00  0.00     0.210 C 
ENDBRANCH  25  27
ENDBRANCH  19  21
ENDBRANCH  17  19
ENDBRANCH  12  15
BRANCH   1  29
HETATM   29  C   UNL     1      42.917 -18.659   6.030  1.00  0.00     0.033 C 
HETATM   30  C   UNL     1      42.855 -17.760   7.258  1.00  0.00     0.008 C 
ENDBRANCH   1  29
TORSDOF 5
ENDMDL
MODEL 4
REMARK VINA RESULT:      -8.7      2.158      2.625
REMARK  5 active torsions:
REMARK  status: ('A' for Active; 'I' for Inactive)
REMARK    1  A    between atoms: C_2  and  C_3 
REMARK    2  A    between atoms: C_14  and  C_17 
REMARK       I    between atoms: C_17  and  N_19 
REMARK    3  A    between atoms: N_19  and  C_20 
REMARK    4  A    between atoms: C_20  and  C_22 
REMARK    5  A    between atoms: C_26  and  O_27 
ROOT
HETATM    1  C   UNL     1      44.149 -18.311   5.099  1.00  0.00     0.162 C 
HETATM    2  O   UNL     1      44.967 -19.472   4.864  1.00  0.00    -0.339 OA
HETATM    3  C   UNL     1      44.576 -20.275   3.829  1.00  0.00     0.098 A 
HETATM    4  C   UNL     1      44.976 -21.604   3.869  1.00  0.00     0.153 A 
HETATM    5  N   UNL     1      44.666 -22.515   2.919  1.00  0.00    -0.270 NA
HETATM    6  C   UNL     1      43.934 -22.067   1.881  1.00  0.00     0.117 A 
HETATM    7  C   UNL     1      43.506 -20.752   1.745  1.00  0.00     0.034 A 
HETATM    8  C   UNL     1      43.839 -19.815   2.732  1.00  0.00     0.011 A 
HETATM    9  C   UNL     1      43.467 -18.394   2.676  1.00  0.00    -0.014 A 
HETATM   10  C   UNL     1      42.973 -17.751   1.533  1.00  0.00     0.014 A 
HETATM   11  C   UNL     1      42.631 -16.392   1.560  1.00  0.00     0.018 A 
HETATM   12  C   UNL     1      42.776 -15.636   2.728  1.00  0.00     0.032 A 
HETATM   13  C   UNL     1      43.286 -16.264   3.869  1.00  0.00     0.027 A 
HETATM   14  C   UNL     1      43.634 -17.631   3.842  1.00  0.00    -0.017 A 
ENDROOT
BRANCH  12  15
HETATM   15  C   UNL     1      42.346 -14.202   2.689  1.00  0.00     0.252 C 
HETATM   16  O   UNL     1      43.180 -13.318   2.523  1.00  0.00    -0.268 OA
HETATM   17  N   UNL     1      41.003 -13.932   2.820  1.00  0.00    -0.349 N 
HETATM   18  H   UNL     1      40.330 -14.661   2.990  1.00  0.00     0.163 HD
BRANCH  17  19
HETATM   19  C   UNL     1      40.471 -12.581   2.708  1.00  0.00     0.114 C 
HETATM   20  C   UNL     1      40.186 -11.994   4.092  1.00  0.00     0.037 C 
BRANCH  19  21
HETATM   21  C   UNL     1      39.277 -12.617   1.765  1.00  0.00    -0.033 A 
HETATM   22  C   UNL     1      38.182 -11.781   2.042  1.00  0.00     0.009 A 
HETATM   23  C   UNL     1      37.088 -11.726   1.180  1.00  0.00     0.003 A 
HETATM   24  C   UNL     1      37.079 -12.504   0.024  1.00  0.00     0.037 A 
HETATM   25  C   UNL     1      38.155 -13.341  -0.276  1.00  0.00     0.068 A 
HETATM   26  C   UNL     1      39.254 -13.386   0.587  1.00  0.00     0.046 A 
BRANCH  25  27
HETATM   27  O   UNL     1      38.019 -14.043  -1.442  1.00  0.00    -0.356 OA
HETATM   28  C   UNL     1      37.880 -13.285  -2.638  1.00  0.00     0.210 C 
ENDBRANCH  25  27
ENDBRANCH  19  21
ENDBRANCH  17  19
ENDBRANCH  12  15
BRANCH   1  29
HETATM   29  C   UNL     1      43.000 -18.660   6.061  1.00  0.00     0.033 C 
HETATM   30  C   UNL     1      43.367 -18.401   7.517  1.00  0.00     0.008 C 
ENDBRANCH   1  29
TORSDOF 5
ENDMDL
MODEL 5
REMARK VINA RESULT:      -8.6      7.032     11.140
REMARK  5 active torsions:
REMARK  status: ('A' for Active; 'I' for Inactive)
REMARK    1  A    between atoms: C_2  and  C_3 
REMARK    2  A    between atoms: C_14  and  C_17 
REMARK       I    between atoms: C_17  and  N_19 
REMARK    3  A    between atoms: N_19  and  C_20 
REMARK    4  A    between atoms: C_20  and  C_22 
REMARK    5  A    between atoms: C_26  and  O_27 
ROOT
HETATM    1  C   UNL     1      41.354  -9.728   9.957  1.00  0.00     0.162 C 
HETATM    2  O   UNL     1      41.252  -8.613  10.863  1.00  0.00    -0.339 OA
HETATM    3  C   UNL     1      41.810  -8.799  12.098  1.00  0.00     0.098 A 
HETATM    4  C   UNL     1      41.324  -8.019  13.139  1.00  0.00     0.153 A 
HETATM    5  N   UNL     1      41.776  -8.091  14.411  1.00  0.00    -0.270 NA
HETATM    6  C   UNL     1      42.766  -8.974  14.642  1.00  0.00     0.117 A 
HETATM    7  C   UNL     1      43.330  -9.780  13.661  1.00  0.00     0.034 A 
HETATM    8  C   UNL     1      42.858  -9.693  12.345  1.00  0.00     0.011 A 
HETATM    9  C   UNL     1      43.399 -10.474  11.223  1.00  0.00    -0.014 A 
HETATM   10  C   UNL     1      44.601 -11.194  11.269  1.00  0.00     0.014 A 
HETATM   11  C   UNL     1      45.049 -11.923  10.159  1.00  0.00     0.018 A 
HETATM   12  C   UNL     1      44.311 -11.952   8.971  1.00  0.00     0.032 A 
HETATM   13  C   UNL     1      43.120 -11.222   8.909  1.00  0.00     0.027 A 
HETATM   14  C   UNL     1      42.670 -10.484  10.024  1.00  0.00    -0.017 A 
ENDROOT
BRANCH  12  15
HETATM   15  C   UNL     1      44.833 -12.791   7.846  1.00  0.00     0.252 C 
HETATM   16  O   UNL     1      46.038 -12.827   7.617  1.00  0.00    -0.268 OA
HETATM   17  N   UNL     1      43.923 -13.521   7.115  1.00  0.00    -0.349 N 
HETATM   18  H   UNL     1      42.933 -13.459   7.287  1.00  0.00     0.163 HD
BRANCH  17  19
HETATM   19  C   UNL     1      44.335 -14.435   6.059  1.00  0.00     0.114 C 
HETATM   20  C   UNL     1      43.719 -14.027   4.719  1.00  0.00     0.037 C 
BRANCH  19  21
HETATM   21  C   UNL     1      44.018 -15.854   6.508  1.00  0.00    -0.033 A 
HETATM   22  C   UNL     1      43.719 -16.074   7.864  1.00  0.00     0.009 A 
HETATM   23  C   UNL     1      43.361 -17.341   8.321  1.00  0.00     0.003 A 
HETATM   24  C   UNL     1      43.293 -18.406   7.425  1.00  0.00     0.037 A 
HETATM   25  C   UNL     1      43.583 -18.214   6.073  1.00  0.00     0.068 A 
HETATM   26  C   UNL     1      43.933 -16.940   5.617  1.00  0.00     0.046 A 
BRANCH  25  27
HETATM   27  O   UNL     1      43.471 -19.341   5.304  1.00  0.00    -0.356 OA
HETATM   28  C   UNL     1      44.656 -20.100   5.099  1.00  0.00     0.210 C 
ENDBRANCH  25  27
ENDBRANCH  19  21
ENDBRANCH  17  19
ENDBRANCH  12  15
BRANCH   1  29
HETATM   29  C   UNL     1      40.152 -10.671  10.142  1.00  0.00     0.033 C 
HETATM   30  C   UNL     1      39.492 -11.033   8.818  1.00  0.00     0.008 C 
ENDBRANCH   1  29
TORSDOF 5
ENDMDL
MODEL 6
REMARK VINA RESULT:      -8.5      2.728      4.098
REMARK  5 active torsions:
REMARK  status: ('A' for Active; 'I' for Inactive)
REMARK    1  A    between atoms: C_2  and  C_3 
REMARK    2  A    between atoms: C_14  and  C_17 
REMARK       I    between atoms: C_17  and  N_19 
REMARK    3  A    between atoms: N_19  and  C_20 
REMARK    4  A    between atoms: C_20  and  C_22 
REMARK    5  A    between atoms: C_26  and  O_27 
ROOT
HETATM    1  C   UNL     1      42.555 -17.916   3.267  1.00  0.00     0.162 C 
HETATM    2  O   UNL     1      42.741 -18.941   4.261  1.00  0.00    -0.339 OA
HETATM    3  C   UNL     1      42.961 -18.499   5.536  1.00  0.00     0.098 A 
HETATM    4  C   UNL     1      43.630 -19.356   6.400  1.00  0.00     0.153 A 
HETATM    5  N   UNL     1      43.917 -19.058   7.687  1.00  0.00    -0.270 NA
HETATM    6  C   UNL     1      43.505 -17.853   8.125  1.00  0.00     0.117 A 
HETATM    7  C   UNL     1      42.812 -16.939   7.342  1.00  0.00     0.034 A 
HETATM    8  C   UNL     1      42.513 -17.261   6.011  1.00  0.00     0.011 A 
HETATM    9  C   UNL     1      41.760 -16.386   5.102  1.00  0.00    -0.014 A 
HETATM   10  C   UNL     1      41.034 -15.259   5.511  1.00  0.00     0.014 A 
HETATM   11  C   UNL     1      40.347 -14.466   4.582  1.00  0.00     0.018 A 
HETATM   12  C   UNL     1      40.363 -14.777   3.218  1.00  0.00     0.032 A 
HETATM   13  C   UNL     1      41.070 -15.910   2.802  1.00  0.00     0.027 A 
HETATM   14  C   UNL     1      41.759 -16.711   3.736  1.00  0.00    -0.017 A 
ENDROOT
BRANCH  12  15
HETATM   15  C   UNL     1      39.642 -13.855   2.283  1.00  0.00     0.252 C 
HETATM   16  O   UNL     1      39.445 -12.688   2.607  1.00  0.00    -0.268 OA
HETATM   17  N   UNL     1      39.244 -14.359   1.066  1.00  0.00    -0.349 N 
HETATM   18  H   UNL     1      39.379 -15.327   0.823  1.00  0.00     0.163 HD
BRANCH  17  19
HETATM   19  C   UNL     1      38.615 -13.525   0.052  1.00  0.00     0.114 C 
HETATM   20  C   UNL     1      37.127 -13.333   0.354  1.00  0.00     0.037 C 
BRANCH  19  21
HETATM   21  C   UNL     1      38.924 -14.123  -1.313  1.00  0.00    -0.033 A 
HETATM   22  C   UNL     1      40.227 -14.590  -1.559  1.00  0.00     0.009 A 
HETATM   23  C   UNL     1      40.550 -15.203  -2.767  1.00  0.00     0.003 A 
HETATM   24  C   UNL     1      39.572 -15.361  -3.747  1.00  0.00     0.037 A 
HETATM   25  C   UNL     1      38.270 -14.908  -3.528  1.00  0.00     0.068 A 
HETATM   26  C   UNL     1      37.947 -14.302  -2.311  1.00  0.00     0.046 A 
BRANCH  25  27
HETATM   27  O   UNL     1      37.410 -15.132  -4.568  1.00  0.00    -0.356 OA
HETATM   28  C   UNL     1      36.216 -14.359  -4.594  1.00  0.00     0.210 C 
ENDBRANCH  25  27
ENDBRANCH  19  21
ENDBRANCH  17  19
ENDBRANCH  12  15
BRANCH   1  29
HETATM   29  C   UNL     1      43.915 -17.498   2.679  1.00  0.00     0.033 C 
HETATM   30  C   UNL     1      43.935 -17.575   1.158  1.00  0.00     0.008 C 
ENDBRANCH   1  29
TORSDOF 5
ENDMDL
MODEL 7
REMARK VINA RESULT:      -8.4      2.318      4.184
REMARK  5 active torsions:
REMARK  status: ('A' for Active; 'I' for Inactive)
REMARK    1  A    between atoms: C_2  and  C_3 
REMARK    2  A    between atoms: C_14  and  C_17 
REMARK       I    between atoms: C_17  and  N_19 
REMARK    3  A    between atoms: N_19  and  C_20 
REMARK    4  A    between atoms: C_20  and  C_22 
REMARK    5  A    between atoms: C_26  and  O_27 
ROOT
HETATM    1  C   UNL     1      42.538 -18.512   3.350  1.00  0.00     0.162 C 
HETATM    2  O   UNL     1      42.581 -18.994   4.706  1.00  0.00    -0.339 OA
HETATM    3  C   UNL     1      42.865 -18.057   5.660  1.00  0.00     0.098 A 
HETATM    4  C   UNL     1      43.408 -18.510   6.855  1.00  0.00     0.153 A 
HETATM    5  N   UNL     1      43.740 -17.704   7.888  1.00  0.00    -0.270 NA
HETATM    6  C   UNL     1      43.505 -16.389   7.716  1.00  0.00     0.117 A 
HETATM    7  C   UNL     1      42.946 -15.845   6.567  1.00  0.00     0.034 A 
HETATM    8  C   UNL     1      42.599 -16.691   5.505  1.00  0.00     0.011 A 
HETATM    9  C   UNL     1      41.975 -16.231   4.256  1.00  0.00    -0.014 A 
HETATM   10  C   UNL     1      41.418 -14.958   4.074  1.00  0.00     0.014 A 
HETATM   11  C   UNL     1      40.847 -14.588   2.849  1.00  0.00     0.018 A 
HETATM   12  C   UNL     1      40.814 -15.480   1.771  1.00  0.00     0.032 A 
HETATM   13  C   UNL     1      41.351 -16.758   1.949  1.00  0.00     0.027 A 
HETATM   14  C   UNL     1      41.923 -17.134   3.182  1.00  0.00    -0.017 A 
ENDROOT
BRANCH  12  15
HETATM   15  C   UNL     1      40.228 -14.994   0.481  1.00  0.00     0.252 C 
HETATM   16  O   UNL     1      39.179 -14.357   0.487  1.00  0.00    -0.268 OA
HETATM   17  N   UNL     1      40.917 -15.267  -0.679  1.00  0.00    -0.349 N 
HETATM   18  H   UNL     1      41.759 -15.819  -0.678  1.00  0.00     0.163 HD
BRANCH  17  19
HETATM   19  C   UNL     1      40.481 -14.765  -1.974  1.00  0.00     0.114 C 
HETATM   20  C   UNL     1      40.533 -15.871  -3.030  1.00  0.00     0.037 C 
BRANCH  19  21
HETATM   21  C   UNL     1      41.296 -13.522  -2.301  1.00  0.00    -0.033 A 
HETATM   22  C   UNL     1      41.163 -12.954  -3.580  1.00  0.00     0.009 A 
HETATM   23  C   UNL     1      41.837 -11.780  -3.914  1.00  0.00     0.003 A 
HETATM   24  C   UNL     1      42.650 -11.157  -2.971  1.00  0.00     0.037 A 
HETATM   25  C   UNL     1      42.798 -11.699  -1.693  1.00  0.00     0.068 A 
HETATM   26  C   UNL     1      42.113 -12.871  -1.359  1.00  0.00     0.046 A 
BRANCH  25  27
HETATM   27  O   UNL     1      43.620 -10.984  -0.865  1.00  0.00    -0.356 OA
HETATM   28  C   UNL     1      43.942  -9.658  -1.267  1.00  0.00     0.210 C 
ENDBRANCH  25  27
ENDBRANCH  19  21
ENDBRANCH  17  19
ENDBRANCH  12  15
BRANCH   1  29
HETATM   29  C   UNL     1      43.941 -18.582   2.721  1.00  0.00     0.033 C 
HETATM   30  C   UNL     1      44.511 -19.994   2.732  1.00  0.00     0.008 C 
ENDBRANCH   1  29
TORSDOF 5
ENDMDL
MODEL 8
REMARK VINA RESULT:      -8.4      2.266      3.889
REMARK  5 active torsions:
REMARK  status: ('A' for Active; 'I' for Inactive)
REMARK    1  A    between atoms: C_2  and  C_3 
REMARK    2  A    between atoms: C_14  and  C_17 
REMARK       I    between atoms: C_17  and  N_19 
REMARK    3  A    between atoms: N_19  and  C_20 
REMARK    4  A    between atoms: C_20  and  C_22 
REMARK    5  A    between atoms: C_26  and  O_27 
ROOT
HETATM    1  C   UNL     1      42.481 -18.139   2.800  1.00  0.00     0.162 C 
HETATM    2  O   UNL     1      42.413 -18.818   4.068  1.00  0.00    -0.339 OA
HETATM    3  C   UNL     1      43.146 -18.262   5.080  1.00  0.00     0.098 A 
HETATM    4  C   UNL     1      43.528 -19.096   6.122  1.00  0.00     0.153 A 
HETATM    5  N   UNL     1      44.253 -18.690   7.188  1.00  0.00    -0.270 NA
HETATM    6  C   UNL     1      44.598 -17.388   7.212  1.00  0.00     0.117 A 
HETATM    7  C   UNL     1      44.244 -16.474   6.227  1.00  0.00     0.034 A 
HETATM    8  C   UNL     1      43.487 -16.905   5.130  1.00  0.00     0.011 A 
HETATM    9  C   UNL     1      43.031 -16.022   4.047  1.00  0.00    -0.014 A 
HETATM   10  C   UNL     1      43.068 -14.622   4.101  1.00  0.00     0.014 A 
HETATM   11  C   UNL     1      42.623 -13.845   3.023  1.00  0.00     0.018 A 
HETATM   12  C   UNL     1      42.126 -14.444   1.860  1.00  0.00     0.032 A 
HETATM   13  C   UNL     1      42.068 -15.840   1.804  1.00  0.00     0.027 A 
HETATM   14  C   UNL     1      42.512 -16.623   2.890  1.00  0.00    -0.017 A 
ENDROOT
BRANCH  12  15
HETATM   15  C   UNL     1      41.713 -13.547   0.735  1.00  0.00     0.252 C 
HETATM   16  O   UNL     1      42.417 -12.591   0.425  1.00  0.00    -0.268 OA
HETATM   17  N   UNL     1      40.549 -13.852   0.065  1.00  0.00    -0.349 N 
HETATM   18  H   UNL     1      39.961 -14.618   0.348  1.00  0.00     0.163 HD
BRANCH  17  19
HETATM   19  C   UNL     1      40.106 -13.097  -1.098  1.00  0.00     0.114 C 
HETATM   20  C   UNL     1      39.079 -12.036  -0.695  1.00  0.00     0.037 C 
BRANCH  19  21
HETATM   21  C   UNL     1      39.632 -14.085  -2.154  1.00  0.00    -0.033 A 
HETATM   22  C   UNL     1      40.498 -15.126  -2.530  1.00  0.00     0.009 A 
HETATM   23  C   UNL     1      40.094 -16.096  -3.446  1.00  0.00     0.003 A 
HETATM   24  C   UNL     1      38.815 -16.039  -3.994  1.00  0.00     0.037 A 
HETATM   25  C   UNL     1      37.934 -15.017  -3.636  1.00  0.00     0.068 A 
HETATM   26  C   UNL     1      38.340 -14.052  -2.710  1.00  0.00     0.046 A 
BRANCH  25  27
HETATM   27  O   UNL     1      36.710 -15.085  -4.243  1.00  0.00    -0.356 OA
HETATM   28  C   UNL     1      36.150 -13.860  -4.701  1.00  0.00     0.210 C 
ENDBRANCH  25  27
ENDBRANCH  19  21
ENDBRANCH  17  19
ENDBRANCH  12  15
BRANCH   1  29
HETATM   29  C   UNL     1      43.664 -18.678   1.976  1.00  0.00     0.033 C 
HETATM   30  C   UNL     1      43.679 -20.200   1.912  1.00  0.00     0.008 C 
ENDBRANCH   1  29
TORSDOF 5
ENDMDL
MODEL 9
REMARK VINA RESULT:      -8.3      2.187      3.464
REMARK  5 active torsions:
REMARK  status: ('A' for Active; 'I' for Inactive)
REMARK    1  A    between atoms: C_2  and  C_3 
REMARK    2  A    between atoms: C_14  and  C_17 
REMARK       I    between atoms: C_17  and  N_19 
REMARK    3  A    between atoms: N_19  and  C_20 
REMARK    4  A    between atoms: C_20  and  C_22 
REMARK    5  A    between atoms: C_26  and  O_27 
ROOT
HETATM    1  C   UNL     1      42.394 -15.705   4.710  1.00  0.00     0.162 C 
HETATM    2  O   UNL     1      43.508 -16.225   5.459  1.00  0.00    -0.339 OA
HETATM    3  C   UNL     1      43.872 -17.510   5.167  1.00  0.00     0.098 A 
HETATM    4  C   UNL     1      44.552 -18.218   6.149  1.00  0.00     0.153 A 
HETATM    5  N   UNL     1      44.974 -19.494   6.005  1.00  0.00    -0.270 NA
HETATM    6  C   UNL     1      44.711 -20.077   4.820  1.00  0.00     0.117 A 
HETATM    7  C   UNL     1      44.057 -19.443   3.772  1.00  0.00     0.034 A 
HETATM    8  C   UNL     1      43.629 -18.118   3.930  1.00  0.00     0.011 A 
HETATM    9  C   UNL     1      42.956 -17.341   2.880  1.00  0.00    -0.014 A 
HETATM   10  C   UNL     1      42.890 -17.722   1.533  1.00  0.00     0.014 A 
HETATM   11  C   UNL     1      42.221 -16.931   0.590  1.00  0.00     0.018 A 
HETATM   12  C   UNL     1      41.600 -15.734   0.964  1.00  0.00     0.032 A 
HETATM   13  C   UNL     1      41.676 -15.335   2.302  1.00  0.00     0.027 A 
HETATM   14  C   UNL     1      42.353 -16.129   3.252  1.00  0.00    -0.017 A 
ENDROOT
BRANCH  12  15
HETATM   15  C   UNL     1      40.866 -14.969  -0.093  1.00  0.00     0.252 C 
HETATM   16  O   UNL     1      39.688 -14.671   0.074  1.00  0.00    -0.268 OA
HETATM   17  N   UNL     1      41.565 -14.603  -1.222  1.00  0.00    -0.349 N 
HETATM   18  H   UNL     1      42.521 -14.881  -1.366  1.00  0.00     0.163 HD
BRANCH  17  19
HETATM   19  C   UNL     1      40.969 -13.783  -2.267  1.00  0.00     0.114 C 
HETATM   20  C   UNL     1      40.863 -14.568  -3.577  1.00  0.00     0.037 C 
BRANCH  19  21
HETATM   21  C   UNL     1      41.756 -12.483  -2.357  1.00  0.00    -0.033 A 
HETATM   22  C   UNL     1      41.804 -11.816  -3.594  1.00  0.00     0.009 A 
HETATM   23  C   UNL     1      42.457 -10.591  -3.719  1.00  0.00     0.003 A 
HETATM   24  C   UNL     1      43.066 -10.014  -2.608  1.00  0.00     0.037 A 
HETATM   25  C   UNL     1      43.030 -10.654  -1.368  1.00  0.00     0.068 A 
HETATM   26  C   UNL     1      42.367 -11.878  -1.243  1.00  0.00     0.046 A 
BRANCH  25  27
HETATM   27  O   UNL     1      43.661  -9.975  -0.361  1.00  0.00    -0.356 OA
HETATM   28  C   UNL     1      43.328  -8.602  -0.202  1.00  0.00     0.210 C 
ENDBRANCH  25  27
ENDBRANCH  19  21
ENDBRANCH  17  19
ENDBRANCH  12  15
BRANCH   1  29
HETATM   29  C   UNL     1      41.074 -16.034   5.429  1.00  0.00     0.033 C 
HETATM   30  C   UNL     1      40.250 -14.787   5.725  1.00  0.00     0.008 C 
ENDBRANCH   1  29
TORSDOF 5
ENDMDL
MODEL 10
REMARK VINA RESULT:      -8.2      2.122      4.096
REMARK  5 active torsions:
REMARK  status: ('A' for Active; 'I' for Inactive)
REMARK    1  A    between atoms: C_2  and  C_3 
REMARK    2  A    between atoms: C_14  and  C_17 
REMARK       I    between atoms: C_17  and  N_19 
REMARK    3  A    between atoms: N_19  and  C_20 
REMARK    4  A    between atoms: C_20  and  C_22 
REMARK    5  A    between atoms: C_26  and  O_27 
ROOT
HETATM    1  C   UNL     1      44.044 -17.997   5.064  1.00  0.00     0.162 C 
HETATM    2  O   UNL     1      44.880 -19.167   5.002  1.00  0.00    -0.339 OA
HETATM    3  C   UNL     1      44.560 -20.075   4.031  1.00  0.00     0.098 A 
HETATM    4  C   UNL     1      44.961 -21.389   4.231  1.00  0.00     0.153 A 
HETATM    5  N   UNL     1      44.717 -22.394   3.361  1.00  0.00    -0.270 NA
HETATM    6  C   UNL     1      44.052 -22.061   2.238  1.00  0.00     0.117 A 
HETATM    7  C   UNL     1      43.630 -20.771   1.941  1.00  0.00     0.034 A 
HETATM    8  C   UNL     1      43.894 -19.736   2.848  1.00  0.00     0.011 A 
HETATM    9  C   UNL     1      43.522 -18.332   2.624  1.00  0.00    -0.014 A 
HETATM   10  C   UNL     1      43.100 -17.812   1.392  1.00  0.00     0.014 A 
HETATM   11  C   UNL     1      42.752 -16.462   1.259  1.00  0.00     0.018 A 
HETATM   12  C   UNL     1      42.818 -15.589   2.350  1.00  0.00     0.032 A 
HETATM   13  C   UNL     1      43.255 -16.094   3.579  1.00  0.00     0.027 A 
HETATM   14  C   UNL     1      43.609 -17.452   3.715  1.00  0.00    -0.017 A 
ENDROOT
BRANCH  12  15
HETATM   15  C   UNL     1      42.386 -14.171   2.138  1.00  0.00     0.252 C 
HETATM   16  O   UNL     1      43.111 -13.250   2.501  1.00  0.00    -0.268 OA
HETATM   17  N   UNL     1      41.180 -13.956   1.511  1.00  0.00    -0.349 N 
HETATM   18  H   UNL     1      40.576 -14.717   1.248  1.00  0.00     0.163 HD
BRANCH  17  19
HETATM   19  C   UNL     1      40.710 -12.619   1.178  1.00  0.00     0.114 C 
HETATM   20  C   UNL     1      41.719 -11.896   0.284  1.00  0.00     0.037 C 
BRANCH  19  21
HETATM   21  C   UNL     1      40.367 -11.900   2.475  1.00  0.00    -0.033 A 
HETATM   22  C   UNL     1      40.686 -10.535   2.587  1.00  0.00     0.009 A 
HETATM   23  C   UNL     1      40.340  -9.812   3.727  1.00  0.00     0.003 A 
HETATM   24  C   UNL     1      39.664 -10.442   4.768  1.00  0.00     0.037 A 
HETATM   25  C   UNL     1      39.333 -11.796   4.682  1.00  0.00     0.068 A 
HETATM   26  C   UNL     1      39.674 -12.516   3.534  1.00  0.00     0.046 A 
BRANCH  25  27
HETATM   27  O   UNL     1      38.666 -12.287   5.771  1.00  0.00    -0.356 OA
HETATM   28  C   UNL     1      39.375 -12.312   7.003  1.00  0.00     0.210 C 
ENDBRANCH  25  27
ENDBRANCH  19  21
ENDBRANCH  17  19
ENDBRANCH  12  15
BRANCH   1  29
HETATM   29  C   UNL     1      42.836 -18.258   5.982  1.00  0.00     0.033 C 
HETATM   30  C   UNL     1      43.252 -18.538   7.420  1.00  0.00     0.008 C 
ENDBRANCH   1  29
TORSDOF 5
ENDMDL
