MODEL 1
REMARK VINA RESULT:      -8.1      0.000      0.000
REMARK  4 active torsions:
REMARK  status: ('A' for Active; 'I' for Inactive)
REMARK    1  A    between atoms: C_9  and  N_10 
REMARK    2  A    between atoms: N_10  and  C_12 
REMARK    3  A    between atoms: C_12  and  C_13 
REMARK    4  A    between atoms: C_14  and  C_15 
ROOT
HETATM    1  C   UNL     1      43.148 -15.844   6.048  1.00  0.00     0.016 A 
HETATM    2  C   UNL     1      42.646 -14.696   5.353  1.00  0.00     0.096 A 
HETATM    3  N   UNL     1      43.122 -13.567   5.890  1.00  0.00    -0.174 NA
HETATM    4  N   UNL     1      43.923 -13.956   6.882  1.00  0.00    -0.288 N 
HETATM    5  H   UNL     1      44.408 -13.240   7.416  1.00  0.00     0.188 HD
HETATM    6  C   UNL     1      43.985 -15.315   7.017  1.00  0.00     0.120 A 
ENDROOT
BRANCH   1   7
HETATM    7  C   UNL     1      42.887 -17.272   5.717  1.00  0.00     0.277 C 
BRANCH   7   8
HETATM    8  N   UNL     1      43.912 -17.899   4.798  1.00  0.00    -0.065 N 
HETATM    9  H   UNL     1      44.310 -17.149   4.220  1.00  0.00     0.280 HD
HETATM   10  C   UNL     1      45.021 -18.591   5.544  1.00  0.00     0.270 C 
BRANCH   8  11
HETATM   11  C   UNL     1      43.232 -18.931   3.949  1.00  0.00     0.205 C 
HETATM   12  C   UNL     1      43.140 -18.592   2.372  1.00  0.00     0.008 C 
HETATM   13  C   UNL     1      44.219 -17.749   1.690  1.00  0.00     0.020 C 
HETATM   14  C   UNL     1      41.746 -18.141   1.924  1.00  0.00     0.020 C 
HETATM   15  C   UNL     1      43.303 -20.118   2.230  1.00  0.00     0.137 C 
HETATM   16  C   UNL     1      44.199 -20.082   3.502  1.00  0.00     0.049 C 
HETATM   17  O   UNL     1      44.063 -20.840   1.262  1.00  0.00    -0.385 OA
HETATM   18  C   UNL     1      44.374 -21.596   3.497  1.00  0.00     0.035 C 
HETATM   19  C   UNL     1      44.751 -21.876   2.011  1.00  0.00     0.168 C 
ENDBRANCH   8  11
ENDBRANCH   7   8
ENDBRANCH   1   7
BRANCH   2  20
HETATM   20  C   UNL     1      41.781 -14.638   4.178  1.00  0.00    -0.002 A 
HETATM   21  C   UNL     1      42.355 -14.703   2.899  1.00  0.00     0.053 A 
HETATM   22  C   UNL     1      41.548 -14.664   1.763  1.00  0.00     0.103 A 
HETATM   23  C   UNL     1      40.165 -14.532   1.894  1.00  0.00     0.102 A 
HETATM   24  O   UNL     1      42.187 -14.746   0.554  1.00  0.00    -0.346 OA
HETATM   25  O   UNL     1      39.315 -14.454   0.820  1.00  0.00    -0.346 OA
HETATM   26  C   UNL     1      39.585 -14.469   3.159  1.00  0.00     0.040 A 
HETATM   27  C   UNL     1      40.027 -14.118  -0.378  1.00  0.00     0.202 C 
HETATM   28  C   UNL     1      41.269 -14.981  -0.522  1.00  0.00     0.202 C 
HETATM   29  C   UNL     1      40.391 -14.510   4.301  1.00  0.00     0.017 A 
ENDBRANCH   2  20
TORSDOF 4
ENDMDL
MODEL 2
REMARK VINA RESULT:      -7.9      1.940      2.855
REMARK  4 active torsions:
REMARK  status: ('A' for Active; 'I' for Inactive)
REMARK    1  A    between atoms: C_9  and  N_10 
REMARK    2  A    between atoms: N_10  and  C_12 
REMARK    3  A    between atoms: C_12  and  C_13 
REMARK    4  A    between atoms: C_14  and  C_15 
ROOT
HETATM    1  C   UNL     1      41.742 -15.654   4.840  1.00  0.00     0.016 A 
HETATM    2  C   UNL     1      40.743 -14.819   4.244  1.00  0.00     0.096 A 
HETATM    3  N   UNL     1      39.843 -14.428   5.154  1.00  0.00    -0.174 NA
HETATM    4  N   UNL     1      40.248 -14.963   6.306  1.00  0.00    -0.288 N 
HETATM    5  H   UNL     1      39.703 -14.769   7.143  1.00  0.00     0.188 HD
HETATM    6  C   UNL     1      41.390 -15.702   6.179  1.00  0.00     0.120 A 
ENDROOT
BRANCH   1   7
HETATM    7  C   UNL     1      42.933 -16.241   4.166  1.00  0.00     0.277 C 
BRANCH   7   8
HETATM    8  N   UNL     1      42.743 -17.663   3.686  1.00  0.00    -0.065 N 
HETATM    9  H   UNL     1      41.990 -18.081   4.245  1.00  0.00     0.280 HD
HETATM   10  C   UNL     1      42.380 -17.744   2.227  1.00  0.00     0.270 C 
BRANCH   8  11
HETATM   11  C   UNL     1      44.030 -18.410   3.869  1.00  0.00     0.205 C 
HETATM   12  C   UNL     1      44.318 -18.955   5.362  1.00  0.00     0.008 C 
HETATM   13  C   UNL     1      43.164 -19.343   6.288  1.00  0.00     0.020 C 
HETATM   14  C   UNL     1      45.360 -18.128   6.124  1.00  0.00     0.020 C 
HETATM   15  C   UNL     1      44.980 -20.121   4.604  1.00  0.00     0.137 C 
HETATM   16  C   UNL     1      43.910 -19.928   3.490  1.00  0.00     0.049 C 
HETATM   17  O   UNL     1      44.943 -21.513   4.915  1.00  0.00    -0.385 OA
HETATM   18  C   UNL     1      44.523 -21.021   2.625  1.00  0.00     0.035 C 
HETATM   19  C   UNL     1      44.709 -22.182   3.648  1.00  0.00     0.168 C 
ENDBRANCH   8  11
ENDBRANCH   7   8
ENDBRANCH   1   7
BRANCH   2  20
HETATM   20  C   UNL     1      40.643 -14.344   2.867  1.00  0.00    -0.002 A 
HETATM   21  C   UNL     1      41.563 -13.392   2.401  1.00  0.00     0.053 A 
HETATM   22  C   UNL     1      41.496 -12.934   1.086  1.00  0.00     0.103 A 
HETATM   23  C   UNL     1      40.494 -13.402   0.234  1.00  0.00     0.102 A 
HETATM   24  O   UNL     1      42.440 -12.016   0.707  1.00  0.00    -0.346 OA
HETATM   25  O   UNL     1      40.349 -12.971  -1.060  1.00  0.00    -0.346 OA
HETATM   26  C   UNL     1      39.577 -14.348   0.686  1.00  0.00     0.040 A 
HETATM   27  C   UNL     1      41.054 -11.741  -1.275  1.00  0.00     0.202 C 
HETATM   28  C   UNL     1      42.463 -11.827  -0.713  1.00  0.00     0.202 C 
HETATM   29  C   UNL     1      39.642 -14.811   2.004  1.00  0.00     0.017 A 
ENDBRANCH   2  20
TORSDOF 4
ENDMDL
MODEL 3
REMARK VINA RESULT:      -7.7      1.946      6.154
REMARK  4 active torsions:
REMARK  status: ('A' for Active; 'I' for Inactive)
REMARK    1  A    between atoms: C_9  and  N_10 
REMARK    2  A    between atoms: N_10  and  C_12 
REMARK    3  A    between atoms: C_12  and  C_13 
REMARK    4  A    between atoms: C_14  and  C_15 
ROOT
HETATM    1  C   UNL     1      41.537 -15.115   4.828  1.00  0.00     0.016 A 
HETATM    2  C   UNL     1      41.647 -16.416   5.415  1.00  0.00     0.096 A 
HETATM    3  N   UNL     1      40.647 -16.636   6.277  1.00  0.00    -0.174 NA
HETATM    4  N   UNL     1      39.898 -15.534   6.240  1.00  0.00    -0.288 N 
HETATM    5  H   UNL     1      39.062 -15.503   6.820  1.00  0.00     0.188 HD
HETATM    6  C   UNL     1      40.379 -14.590   5.378  1.00  0.00     0.120 A 
ENDROOT
BRANCH   1   7
HETATM    7  C   UNL     1      42.428 -14.526   3.789  1.00  0.00     0.277 C 
BRANCH   7   8
HETATM    8  N   UNL     1      41.700 -13.805   2.676  1.00  0.00    -0.065 N 
HETATM    9  H   UNL     1      40.713 -13.727   2.950  1.00  0.00     0.280 HD
HETATM   10  C   UNL     1      42.250 -12.429   2.413  1.00  0.00     0.270 C 
BRANCH   8  11
HETATM   11  C   UNL     1      41.849 -14.596   1.411  1.00  0.00     0.205 C 
HETATM   12  C   UNL     1      40.588 -15.525   1.013  1.00  0.00     0.008 C 
HETATM   13  C   UNL     1      39.165 -15.121   1.404  1.00  0.00     0.020 C 
HETATM   14  C   UNL     1      40.816 -17.016   1.289  1.00  0.00     0.020 C 
HETATM   15  C   UNL     1      41.011 -15.155  -0.422  1.00  0.00     0.137 C 
HETATM   16  C   UNL     1      41.466 -13.773   0.132  1.00  0.00     0.049 C 
HETATM   17  O   UNL     1      40.179 -14.850  -1.539  1.00  0.00    -0.385 OA
HETATM   18  C   UNL     1      41.980 -13.326  -1.231  1.00  0.00     0.035 C 
HETATM   19  C   UNL     1      40.787 -13.691  -2.166  1.00  0.00     0.168 C 
ENDBRANCH   8  11
ENDBRANCH   7   8
ENDBRANCH   1   7
BRANCH   2  20
HETATM   20  C   UNL     1      42.627 -17.465   5.150  1.00  0.00    -0.002 A 
HETATM   21  C   UNL     1      42.487 -18.263   4.004  1.00  0.00     0.053 A 
HETATM   22  C   UNL     1      43.418 -19.261   3.723  1.00  0.00     0.103 A 
HETATM   23  C   UNL     1      44.481 -19.489   4.598  1.00  0.00     0.102 A 
HETATM   24  O   UNL     1      43.216 -19.984   2.577  1.00  0.00    -0.346 OA
HETATM   25  O   UNL     1      45.415 -20.474   4.402  1.00  0.00    -0.346 OA
HETATM   26  C   UNL     1      44.631 -18.702   5.738  1.00  0.00     0.040 A 
HETATM   27  C   UNL     1      44.943 -21.452   3.465  1.00  0.00     0.202 C 
HETATM   28  C   UNL     1      44.360 -20.776   2.235  1.00  0.00     0.202 C 
HETATM   29  C   UNL     1      43.699 -17.699   6.022  1.00  0.00     0.017 A 
ENDBRANCH   2  20
TORSDOF 4
ENDMDL
MODEL 4
REMARK VINA RESULT:      -7.6      5.135      7.440
REMARK  4 active torsions:
REMARK  status: ('A' for Active; 'I' for Inactive)
REMARK    1  A    between atoms: C_9  and  N_10 
REMARK    2  A    between atoms: N_10  and  C_12 
REMARK    3  A    between atoms: C_12  and  C_13 
REMARK    4  A    between atoms: C_14  and  C_15 
ROOT
HETATM    1  C   UNL     1      45.425 -12.878   8.019  1.00  0.00     0.016 A 
HETATM    2  C   UNL     1      45.451 -11.703   8.837  1.00  0.00     0.096 A 
HETATM    3  N   UNL     1      46.582 -11.014   8.645  1.00  0.00    -0.174 NA
HETATM    4  N   UNL     1      47.261 -11.695   7.723  1.00  0.00    -0.288 N 
HETATM    5  H   UNL     1      48.157 -11.325   7.416  1.00  0.00     0.188 HD
HETATM    6  C   UNL     1      46.609 -12.820   7.303  1.00  0.00     0.120 A 
ENDROOT
BRANCH   1   7
HETATM    7  C   UNL     1      44.316 -13.868   7.914  1.00  0.00     0.277 C 
BRANCH   7   8
HETATM    8  N   UNL     1      44.284 -14.635   6.611  1.00  0.00    -0.065 N 
HETATM    9  H   UNL     1      44.936 -14.175   5.964  1.00  0.00     0.280 HD
HETATM   10  C   UNL     1      44.682 -16.078   6.772  1.00  0.00     0.270 C 
BRANCH   8  11
HETATM   11  C   UNL     1      42.884 -14.613   6.073  1.00  0.00     0.205 C 
HETATM   12  C   UNL     1      42.697 -13.902   4.635  1.00  0.00     0.008 C 
HETATM   13  C   UNL     1      43.826 -13.916   3.603  1.00  0.00     0.020 C 
HETATM   14  C   UNL     1      42.068 -12.506   4.721  1.00  0.00     0.020 C 
HETATM   15  C   UNL     1      41.618 -14.987   4.452  1.00  0.00     0.137 C 
HETATM   16  C   UNL     1      42.506 -15.932   5.313  1.00  0.00     0.049 C 
HETATM   17  O   UNL     1      41.307 -15.737   3.279  1.00  0.00    -0.385 OA
HETATM   18  C   UNL     1      41.478 -17.055   5.253  1.00  0.00     0.035 C 
HETATM   19  C   UNL     1      41.136 -17.104   3.733  1.00  0.00     0.168 C 
ENDBRANCH   8  11
ENDBRANCH   7   8
ENDBRANCH   1   7
BRANCH   2  20
HETATM   20  C   UNL     1      44.427 -11.190   9.743  1.00  0.00    -0.002 A 
HETATM   21  C   UNL     1      43.139 -10.932   9.250  1.00  0.00     0.053 A 
HETATM   22  C   UNL     1      42.142 -10.455  10.100  1.00  0.00     0.103 A 
HETATM   23  C   UNL     1      42.431 -10.207  11.442  1.00  0.00     0.102 A 
HETATM   24  O   UNL     1      40.910 -10.243   9.541  1.00  0.00    -0.346 OA
HETATM   25  O   UNL     1      41.509  -9.707  12.327  1.00  0.00    -0.346 OA
HETATM   26  C   UNL     1      43.705 -10.461  11.943  1.00  0.00     0.040 A 
HETATM   27  C   UNL     1      40.403  -9.111  11.636  1.00  0.00     0.202 C 
HETATM   28  C   UNL     1      39.900 -10.032  10.536  1.00  0.00     0.202 C 
HETATM   29  C   UNL     1      44.708 -10.940  11.094  1.00  0.00     0.017 A 
ENDBRANCH   2  20
TORSDOF 4
ENDMDL
MODEL 5
REMARK VINA RESULT:      -7.5      1.212      2.369
REMARK  4 active torsions:
REMARK  status: ('A' for Active; 'I' for Inactive)
REMARK    1  A    between atoms: C_9  and  N_10 
REMARK    2  A    between atoms: N_10  and  C_12 
REMARK    3  A    between atoms: C_12  and  C_13 
REMARK    4  A    between atoms: C_14  and  C_15 
ROOT
HETATM    1  C   UNL     1      42.896 -15.273   6.165  1.00  0.00     0.016 A 
HETATM    2  C   UNL     1      42.957 -14.489   4.968  1.00  0.00     0.096 A 
HETATM    3  N   UNL     1      44.071 -13.749   4.939  1.00  0.00    -0.174 NA
HETATM    4  N   UNL     1      44.728 -14.051   6.058  1.00  0.00    -0.288 N 
HETATM    5  H   UNL     1      45.626 -13.603   6.224  1.00  0.00     0.188 HD
HETATM    6  C   UNL     1      44.074 -14.970   6.830  1.00  0.00     0.120 A 
ENDROOT
BRANCH   1   7
HETATM    7  C   UNL     1      41.840 -16.256   6.536  1.00  0.00     0.277 C 
BRANCH   7   8
HETATM    8  N   UNL     1      41.923 -17.572   5.795  1.00  0.00    -0.065 N 
HETATM    9  H   UNL     1      41.689 -18.318   6.462  1.00  0.00     0.280 HD
HETATM   10  C   UNL     1      40.981 -17.644   4.623  1.00  0.00     0.270 C 
BRANCH   8  11
HETATM   11  C   UNL     1      43.314 -17.740   5.263  1.00  0.00     0.205 C 
HETATM   12  C   UNL     1      44.244 -18.799   6.053  1.00  0.00     0.008 C 
HETATM   13  C   UNL     1      43.627 -20.013   6.749  1.00  0.00     0.020 C 
HETATM   14  C   UNL     1      45.290 -18.137   6.957  1.00  0.00     0.020 C 
HETATM   15  C   UNL     1      44.812 -19.060   4.644  1.00  0.00     0.137 C 
HETATM   16  C   UNL     1      43.391 -18.768   4.080  1.00  0.00     0.049 C 
HETATM   17  O   UNL     1      45.193 -20.305   4.061  1.00  0.00    -0.385 OA
HETATM   18  C   UNL     1      43.859 -18.939   2.641  1.00  0.00     0.035 C 
HETATM   19  C   UNL     1      44.656 -20.277   2.713  1.00  0.00     0.168 C 
ENDBRANCH   8  11
ENDBRANCH   7   8
ENDBRANCH   1   7
BRANCH   2  20
HETATM   20  C   UNL     1      42.030 -14.458   3.841  1.00  0.00    -0.002 A 
HETATM   21  C   UNL     1      42.477 -14.859   2.572  1.00  0.00     0.053 A 
HETATM   22  C   UNL     1      41.606 -14.852   1.484  1.00  0.00     0.103 A 
HETATM   23  C   UNL     1      40.289 -14.418   1.648  1.00  0.00     0.102 A 
HETATM   24  O   UNL     1      42.118 -15.272   0.285  1.00  0.00    -0.346 OA
HETATM   25  O   UNL     1      39.388 -14.354   0.616  1.00  0.00    -0.346 OA
HETATM   26  C   UNL     1      39.834 -14.020   2.903  1.00  0.00     0.040 A 
HETATM   27  C   UNL     1      40.055 -14.383  -0.653  1.00  0.00     0.202 C 
HETATM   28  C   UNL     1      41.090 -15.496  -0.688  1.00  0.00     0.202 C 
HETATM   29  C   UNL     1      40.705 -14.027   3.997  1.00  0.00     0.017 A 
ENDBRANCH   2  20
TORSDOF 4
ENDMDL
MODEL 6
REMARK VINA RESULT:      -7.5      1.763      6.427
REMARK  4 active torsions:
REMARK  status: ('A' for Active; 'I' for Inactive)
REMARK    1  A    between atoms: C_9  and  N_10 
REMARK    2  A    between atoms: N_10  and  C_12 
REMARK    3  A    between atoms: C_12  and  C_13 
REMARK    4  A    between atoms: C_14  and  C_15 
ROOT
HETATM    1  C   UNL     1      43.242 -15.115   4.623  1.00  0.00     0.016 A 
HETATM    2  C   UNL     1      43.183 -16.502   4.975  1.00  0.00     0.096 A 
HETATM    3  N   UNL     1      42.970 -16.652   6.288  1.00  0.00    -0.174 NA
HETATM    4  N   UNL     1      42.869 -15.415   6.774  1.00  0.00    -0.288 N 
HETATM    5  H   UNL     1      42.685 -15.304   7.769  1.00  0.00     0.188 HD
HETATM    6  C   UNL     1      43.014 -14.451   5.817  1.00  0.00     0.120 A 
ENDROOT
BRANCH   1   7
HETATM    7  C   UNL     1      43.413 -14.548   3.256  1.00  0.00     0.277 C 
BRANCH   7   8
HETATM    8  N   UNL     1      42.148 -13.976   2.653  1.00  0.00    -0.065 N 
HETATM    9  H   UNL     1      41.361 -14.547   2.985  1.00  0.00     0.280 HD
HETATM   10  C   UNL     1      41.915 -12.540   3.038  1.00  0.00     0.270 C 
BRANCH   8  11
HETATM   11  C   UNL     1      42.261 -14.027   1.159  1.00  0.00     0.205 C 
HETATM   12  C   UNL     1      41.023 -14.720   0.386  1.00  0.00     0.008 C 
HETATM   13  C   UNL     1      39.608 -14.657   0.964  1.00  0.00     0.020 C 
HETATM   14  C   UNL     1      41.332 -16.133  -0.120  1.00  0.00     0.020 C 
HETATM   15  C   UNL     1      41.348 -13.662  -0.686  1.00  0.00     0.137 C 
HETATM   16  C   UNL     1      41.771 -12.707   0.469  1.00  0.00     0.049 C 
HETATM   17  O   UNL     1      40.441 -12.901  -1.482  1.00  0.00    -0.385 OA
HETATM   18  C   UNL     1      42.187 -11.612  -0.506  1.00  0.00     0.035 C 
HETATM   19  C   UNL     1      40.961 -11.547  -1.466  1.00  0.00     0.168 C 
ENDBRANCH   8  11
ENDBRANCH   7   8
ENDBRANCH   1   7
BRANCH   2  20
HETATM   20  C   UNL     1      43.269 -17.675   4.111  1.00  0.00    -0.002 A 
HETATM   21  C   UNL     1      44.002 -18.793   4.540  1.00  0.00     0.053 A 
HETATM   22  C   UNL     1      44.086 -19.930   3.737  1.00  0.00     0.103 A 
HETATM   23  C   UNL     1      43.462 -19.949   2.488  1.00  0.00     0.102 A 
HETATM   24  O   UNL     1      44.807 -20.981   4.237  1.00  0.00    -0.346 OA
HETATM   25  O   UNL     1      43.531 -21.020   1.634  1.00  0.00    -0.346 OA
HETATM   26  C   UNL     1      42.732 -18.846   2.053  1.00  0.00     0.040 A 
HETATM   27  C   UNL     1      44.611 -21.894   1.988  1.00  0.00     0.202 C 
HETATM   28  C   UNL     1      44.599 -22.181   3.480  1.00  0.00     0.202 C 
HETATM   29  C   UNL     1      42.644 -17.705   2.856  1.00  0.00     0.017 A 
ENDBRANCH   2  20
TORSDOF 4
ENDMDL
MODEL 7
REMARK VINA RESULT:      -7.3      2.546      4.245
REMARK  4 active torsions:
REMARK  status: ('A' for Active; 'I' for Inactive)
REMARK    1  A    between atoms: C_9  and  N_10 
REMARK    2  A    between atoms: N_10  and  C_12 
REMARK    3  A    between atoms: C_12  and  C_13 
REMARK    4  A    between atoms: C_14  and  C_15 
ROOT
HETATM    1  C   UNL     1      40.680 -13.466   2.575  1.00  0.00     0.016 A 
HETATM    2  C   UNL     1      40.793 -12.944   1.246  1.00  0.00     0.096 A 
HETATM    3  N   UNL     1      41.181 -11.663   1.268  1.00  0.00    -0.174 NA
HETATM    4  N   UNL     1      41.339 -11.362   2.557  1.00  0.00    -0.288 N 
HETATM    5  H   UNL     1      41.654 -10.425   2.796  1.00  0.00     0.188 HD
HETATM    6  C   UNL     1      41.062 -12.411   3.388  1.00  0.00     0.120 A 
ENDROOT
BRANCH   1   7
HETATM    7  C   UNL     1      40.325 -14.860   2.959  1.00  0.00     0.277 C 
BRANCH   7   8
HETATM    8  N   UNL     1      41.259 -15.488   3.970  1.00  0.00    -0.065 N 
HETATM    9  H   UNL     1      42.155 -14.990   3.916  1.00  0.00     0.280 HD
HETATM   10  C   UNL     1      40.733 -15.410   5.379  1.00  0.00     0.270 C 
BRANCH   8  11
HETATM   11  C   UNL     1      41.427 -16.940   3.635  1.00  0.00     0.205 C 
HETATM   12  C   UNL     1      42.289 -17.256   2.306  1.00  0.00     0.008 C 
HETATM   13  C   UNL     1      43.410 -16.317   1.859  1.00  0.00     0.020 C 
HETATM   14  C   UNL     1      41.431 -17.674   1.106  1.00  0.00     0.020 C 
HETATM   15  C   UNL     1      42.739 -18.484   3.121  1.00  0.00     0.137 C 
HETATM   16  C   UNL     1      42.625 -17.604   4.400  1.00  0.00     0.049 C 
HETATM   17  O   UNL     1      44.036 -19.072   3.191  1.00  0.00    -0.385 OA
HETATM   18  C   UNL     1      42.996 -18.768   5.309  1.00  0.00     0.035 C 
HETATM   19  C   UNL     1      44.256 -19.349   4.599  1.00  0.00     0.168 C 
ENDBRANCH   8  11
ENDBRANCH   7   8
ENDBRANCH   1   7
BRANCH   2  20
HETATM   20  C   UNL     1      40.599 -13.626  -0.030  1.00  0.00    -0.002 A 
HETATM   21  C   UNL     1      39.316 -13.668  -0.598  1.00  0.00     0.053 A 
HETATM   22  C   UNL     1      39.109 -14.302  -1.822  1.00  0.00     0.103 A 
HETATM   23  C   UNL     1      40.175 -14.922  -2.475  1.00  0.00     0.102 A 
HETATM   24  O   UNL     1      37.831 -14.285  -2.314  1.00  0.00    -0.346 OA
HETATM   25  O   UNL     1      40.038 -15.592  -3.665  1.00  0.00    -0.346 OA
HETATM   26  C   UNL     1      41.453 -14.885  -1.921  1.00  0.00     0.040 A 
HETATM   27  C   UNL     1      38.665 -15.915  -3.918  1.00  0.00     0.202 C 
HETATM   28  C   UNL     1      37.778 -14.703  -3.684  1.00  0.00     0.202 C 
HETATM   29  C   UNL     1      41.664 -14.249  -0.694  1.00  0.00     0.017 A 
ENDBRANCH   2  20
TORSDOF 4
ENDMDL
MODEL 8
REMARK VINA RESULT:      -7.2      1.931      6.033
REMARK  4 active torsions:
REMARK  status: ('A' for Active; 'I' for Inactive)
REMARK    1  A    between atoms: C_9  and  N_10 
REMARK    2  A    between atoms: N_10  and  C_12 
REMARK    3  A    between atoms: C_12  and  C_13 
REMARK    4  A    between atoms: C_14  and  C_15 
ROOT
HETATM    1  C   UNL     1      42.400 -15.095   6.105  1.00  0.00     0.016 A 
HETATM    2  C   UNL     1      43.594 -15.853   6.333  1.00  0.00     0.096 A 
HETATM    3  N   UNL     1      44.640 -15.044   6.540  1.00  0.00    -0.174 NA
HETATM    4  N   UNL     1      44.150 -13.806   6.475  1.00  0.00    -0.288 N 
HETATM    5  H   UNL     1      44.788 -13.029   6.625  1.00  0.00     0.188 HD
HETATM    6  C   UNL     1      42.807 -13.776   6.225  1.00  0.00     0.120 A 
ENDROOT
BRANCH   1   7
HETATM    7  C   UNL     1      41.029 -15.634   5.888  1.00  0.00     0.277 C 
BRANCH   7   8
HETATM    8  N   UNL     1      40.459 -15.361   4.513  1.00  0.00    -0.065 N 
HETATM    9  H   UNL     1      39.752 -16.082   4.322  1.00  0.00     0.280 HD
HETATM   10  C   UNL     1      39.823 -14.002   4.403  1.00  0.00     0.270 C 
BRANCH   8  11
HETATM   11  C   UNL     1      41.572 -15.417   3.510  1.00  0.00     0.205 C 
HETATM   12  C   UNL     1      41.413 -16.527   2.347  1.00  0.00     0.008 C 
HETATM   13  C   UNL     1      40.027 -16.950   1.855  1.00  0.00     0.020 C 
HETATM   14  C   UNL     1      42.308 -17.755   2.547  1.00  0.00     0.020 C 
HETATM   15  C   UNL     1      42.121 -15.457   1.493  1.00  0.00     0.137 C 
HETATM   16  C   UNL     1      41.395 -14.378   2.349  1.00  0.00     0.049 C 
HETATM   17  O   UNL     1      41.861 -15.092   0.139  1.00  0.00    -0.385 OA
HETATM   18  C   UNL     1      42.090 -13.239   1.614  1.00  0.00     0.035 C 
HETATM   19  C   UNL     1      41.887 -13.641   0.122  1.00  0.00     0.168 C 
ENDBRANCH   8  11
ENDBRANCH   7   8
ENDBRANCH   1   7
BRANCH   2  20
HETATM   20  C   UNL     1      43.763 -17.301   6.412  1.00  0.00    -0.002 A 
HETATM   21  C   UNL     1      44.229 -18.000   5.288  1.00  0.00     0.053 A 
HETATM   22  C   UNL     1      44.412 -19.381   5.345  1.00  0.00     0.103 A 
HETATM   23  C   UNL     1      44.106 -20.078   6.515  1.00  0.00     0.102 A 
HETATM   24  O   UNL     1      44.883 -19.985   4.209  1.00  0.00    -0.346 OA
HETATM   25  O   UNL     1      44.230 -21.439   6.631  1.00  0.00    -0.346 OA
HETATM   26  C   UNL     1      43.645 -19.393   7.637  1.00  0.00     0.040 A 
HETATM   27  C   UNL     1      44.304 -22.061   5.341  1.00  0.00     0.202 C 
HETATM   28  C   UNL     1      45.301 -21.334   4.453  1.00  0.00     0.202 C 
HETATM   29  C   UNL     1      43.461 -18.008   7.584  1.00  0.00     0.017 A 
ENDBRANCH   2  20
TORSDOF 4
ENDMDL
MODEL 9
REMARK VINA RESULT:      -7.1      1.853      6.671
REMARK  4 active torsions:
REMARK  status: ('A' for Active; 'I' for Inactive)
REMARK    1  A    between atoms: C_9  and  N_10 
REMARK    2  A    between atoms: N_10  and  C_12 
REMARK    3  A    between atoms: C_12  and  C_13 
REMARK    4  A    between atoms: C_14  and  C_15 
ROOT
HETATM    1  C   UNL     1      42.147 -15.666   5.202  1.00  0.00     0.016 A 
HETATM    2  C   UNL     1      43.321 -16.389   5.590  1.00  0.00     0.096 A 
HETATM    3  N   UNL     1      44.099 -15.644   6.386  1.00  0.00    -0.174 NA
HETATM    4  N   UNL     1      43.452 -14.489   6.534  1.00  0.00    -0.288 N 
HETATM    5  H   UNL     1      43.871 -13.776   7.127  1.00  0.00     0.188 HD
HETATM    6  C   UNL     1      42.268 -14.449   5.853  1.00  0.00     0.120 A 
ENDROOT
BRANCH   1   7
HETATM    7  C   UNL     1      41.023 -16.172   4.367  1.00  0.00     0.277 C 
BRANCH   7   8
HETATM    8  N   UNL     1      40.900 -15.507   3.013  1.00  0.00    -0.065 N 
HETATM    9  H   UNL     1      41.797 -15.048   2.811  1.00  0.00     0.280 HD
HETATM   10  C   UNL     1      40.582 -16.480   1.910  1.00  0.00     0.270 C 
BRANCH   8  11
HETATM   11  C   UNL     1      39.783 -14.508   3.066  1.00  0.00     0.205 C 
HETATM   12  C   UNL     1      40.216 -12.962   2.895  1.00  0.00     0.008 C 
HETATM   13  C   UNL     1      41.434 -12.580   2.052  1.00  0.00     0.020 C 
HETATM   14  C   UNL     1      40.208 -12.175   4.210  1.00  0.00     0.020 C 
HETATM   15  C   UNL     1      38.856 -12.859   2.178  1.00  0.00     0.137 C 
HETATM   16  C   UNL     1      39.074 -14.318   1.680  1.00  0.00     0.049 C 
HETATM   17  O   UNL     1      38.528 -12.114   1.006  1.00  0.00    -0.385 OA
HETATM   18  C   UNL     1      37.717 -14.351   0.989  1.00  0.00     0.035 C 
HETATM   19  C   UNL     1      37.721 -13.008   0.197  1.00  0.00     0.168 C 
ENDBRANCH   8  11
ENDBRANCH   7   8
ENDBRANCH   1   7
BRANCH   2  20
HETATM   20  C   UNL     1      43.700 -17.764   5.278  1.00  0.00    -0.002 A 
HETATM   21  C   UNL     1      43.687 -18.194   3.942  1.00  0.00     0.053 A 
HETATM   22  C   UNL     1      44.058 -19.498   3.619  1.00  0.00     0.103 A 
HETATM   23  C   UNL     1      44.419 -20.391   4.629  1.00  0.00     0.102 A 
HETATM   24  O   UNL     1      44.031 -19.832   2.291  1.00  0.00    -0.346 OA
HETATM   25  O   UNL     1      44.763 -21.696   4.387  1.00  0.00    -0.346 OA
HETATM   26  C   UNL     1      44.437 -19.974   5.958  1.00  0.00     0.040 A 
HETATM   27  C   UNL     1      44.319 -22.114   3.089  1.00  0.00     0.202 C 
HETATM   28  C   UNL     1      44.690 -21.079   2.039  1.00  0.00     0.202 C 
HETATM   29  C   UNL     1      44.067 -18.666   6.286  1.00  0.00     0.017 A 
ENDBRANCH   2  20
TORSDOF 4
ENDMDL
MODEL 10
REMARK VINA RESULT:      -7.0      3.714      5.098
REMARK  4 active torsions:
REMARK  status: ('A' for Active; 'I' for Inactive)
REMARK    1  A    between atoms: C_9  and  N_10 
REMARK    2  A    between atoms: N_10  and  C_12 
REMARK    3  A    between atoms: C_12  and  C_13 
REMARK    4  A    between atoms: C_14  and  C_15 
ROOT
HETATM    1  C   UNL     1      40.260 -14.831   3.575  1.00  0.00     0.016 A 
HETATM    2  C   UNL     1      39.906 -13.444   3.628  1.00  0.00     0.096 A 
HETATM    3  N   UNL     1      39.224 -13.084   2.535  1.00  0.00    -0.174 NA
HETATM    4  N   UNL     1      39.113 -14.193   1.804  1.00  0.00    -0.288 N 
HETATM    5  H   UNL     1      38.604 -14.140   0.925  1.00  0.00     0.188 HD
HETATM    6  C   UNL     1      39.708 -15.277   2.385  1.00  0.00     0.120 A 
ENDROOT
BRANCH   1   7
HETATM    7  C   UNL     1      40.974 -15.611   4.625  1.00  0.00     0.277 C 
BRANCH   7   8
HETATM    8  N   UNL     1      42.367 -16.055   4.235  1.00  0.00    -0.065 N 
HETATM    9  H   UNL     1      42.663 -15.480   3.436  1.00  0.00     0.280 HD
HETATM   10  C   UNL     1      43.363 -15.900   5.352  1.00  0.00     0.270 C 
BRANCH   8  11
HETATM   11  C   UNL     1      42.325 -17.508   3.869  1.00  0.00     0.205 C 
HETATM   12  C   UNL     1      42.909 -17.880   2.410  1.00  0.00     0.008 C 
HETATM   13  C   UNL     1      44.027 -17.048   1.780  1.00  0.00     0.020 C 
HETATM   14  C   UNL     1      41.819 -18.183   1.375  1.00  0.00     0.020 C 
HETATM   15  C   UNL     1      43.363 -19.165   3.129  1.00  0.00     0.137 C 
HETATM   16  C   UNL     1      43.562 -18.305   4.412  1.00  0.00     0.049 C 
HETATM   17  O   UNL     1      44.587 -19.882   2.972  1.00  0.00    -0.385 OA
HETATM   18  C   UNL     1      43.962 -19.521   5.239  1.00  0.00     0.035 C 
HETATM   19  C   UNL     1      45.015 -20.209   4.319  1.00  0.00     0.168 C 
ENDBRANCH   8  11
ENDBRANCH   7   8
ENDBRANCH   1   7
BRANCH   2  20
HETATM   20  C   UNL     1      40.146 -12.474   4.693  1.00  0.00    -0.002 A 
HETATM   21  C   UNL     1      39.455 -12.603   5.908  1.00  0.00     0.053 A 
HETATM   22  C   UNL     1      39.678 -11.696   6.943  1.00  0.00     0.103 A 
HETATM   23  C   UNL     1      40.572 -10.639   6.765  1.00  0.00     0.102 A 
HETATM   24  O   UNL     1      38.974 -11.902   8.100  1.00  0.00    -0.346 OA
HETATM   25  O   UNL     1      40.815  -9.693   7.727  1.00  0.00    -0.346 OA
HETATM   26  C   UNL     1      41.264 -10.503   5.563  1.00  0.00     0.040 A 
HETATM   27  C   UNL     1      39.779  -9.689   8.719  1.00  0.00     0.202 C 
HETATM   28  C   UNL     1      39.476 -11.105   9.181  1.00  0.00     0.202 C 
HETATM   29  C   UNL     1      41.044 -11.411   4.523  1.00  0.00     0.017 A 
ENDBRANCH   2  20
TORSDOF 4
ENDMDL
