MODEL 1
REMARK VINA RESULT:      -9.0      0.000      0.000
REMARK  4 active torsions:
REMARK  status: ('A' for Active; 'I' for Inactive)
REMARK    1  A    between atoms: C_2  and  C_3 
REMARK       I    between atoms: C_3  and  N_4 
REMARK    2  A    between atoms: N_4  and  C_5 
REMARK    3  A    between atoms: C_12  and  C_13 
REMARK       I    between atoms: C_13  and  N_14 
REMARK    4  A    between atoms: C_19  and  C_20 
ROOT
HETATM    1  C   UNL     1      42.006 -15.788   4.388  1.00  0.00     0.036 A 
HETATM    2  C   UNL     1      41.922 -15.717   2.985  1.00  0.00     0.046 A 
HETATM    3  C   UNL     1      40.875 -14.994   2.379  1.00  0.00     0.030 A 
HETATM    4  C   UNL     1      39.943 -14.361   3.188  1.00  0.00     0.063 A 
HETATM    5  N   UNL     1      39.068 -13.756   2.330  1.00  0.00    -0.277 N 
HETATM    6  H   UNL     1      38.255 -13.202   2.574  1.00  0.00     0.189 HD
HETATM    7  N   UNL     1      39.349 -13.940   1.028  1.00  0.00    -0.168 NA
HETATM    8  C   UNL     1      40.465 -14.704   1.044  1.00  0.00     0.156 A 
HETATM    9  C   UNL     1      39.996 -14.408   4.583  1.00  0.00     0.034 A 
HETATM   10  C   UNL     1      41.047 -15.134   5.163  1.00  0.00     0.032 A 
ENDROOT
BRANCH   1  11
HETATM   11  N   UNL     1      43.075 -16.550   4.915  1.00  0.00    -0.323 N 
HETATM   12  C   UNL     1      43.032 -17.839   5.415  1.00  0.00     0.251 C 
HETATM   13  O   UNL     1      42.009 -18.503   5.533  1.00  0.00    -0.268 OA
HETATM   14  H   UNL     1      43.961 -16.069   4.918  1.00  0.00     0.169 HD
BRANCH  12  15
HETATM   15  C   UNL     1      44.383 -18.404   5.814  1.00  0.00     0.007 C 
HETATM   16  C   UNL     1      45.104 -17.807   6.996  1.00  0.00     0.054 C 
HETATM   17  C   UNL     1      44.983 -19.420   5.154  1.00  0.00     0.025 C 
BRANCH  17  18
HETATM   18  C   UNL     1      44.532 -20.189   3.982  1.00  0.00    -0.014 A 
HETATM   19  C   UNL     1      44.722 -21.579   3.890  1.00  0.00     0.044 A 
HETATM   20 CL   UNL     1      45.436 -22.490   5.179  1.00  0.00    -0.083 Cl
HETATM   21  C   UNL     1      44.347 -22.274   2.735  1.00  0.00     0.024 A 
HETATM   22  C   UNL     1      43.782 -21.591   1.660  1.00  0.00     0.002 A 
HETATM   23  C   UNL     1      43.595 -20.213   1.736  1.00  0.00     0.001 A 
HETATM   24  C   UNL     1      43.976 -19.515   2.885  1.00  0.00     0.013 A 
ENDBRANCH  17  18
ENDBRANCH  12  15
ENDBRANCH   1  11
BRANCH   8  25
HETATM   25  C   UNL     1      41.115 -15.142  -0.198  1.00  0.00     0.270 C 
HETATM   26  N   UNL     1      41.001 -16.483  -0.448  1.00  0.00    -0.365 N 
HETATM   27  H   UNL     1      40.493 -17.057   0.215  1.00  0.00     0.159 HD
HETATM   28  H   UNL     1      41.411 -16.877  -1.278  1.00  0.00     0.159 HD
HETATM   29  O   UNL     1      41.715 -14.398  -0.967  1.00  0.00    -0.266 OA
ENDBRANCH   8  25
TORSDOF 4
ENDMDL
MODEL 2
REMARK VINA RESULT:      -8.7      1.964      3.109
REMARK  4 active torsions:
REMARK  status: ('A' for Active; 'I' for Inactive)
REMARK    1  A    between atoms: C_2  and  C_3 
REMARK       I    between atoms: C_3  and  N_4 
REMARK    2  A    between atoms: N_4  and  C_5 
REMARK    3  A    between atoms: C_12  and  C_13 
REMARK       I    between atoms: C_13  and  N_14 
REMARK    4  A    between atoms: C_19  and  C_20 
ROOT
HETATM    1  C   UNL     1      42.290 -15.767   4.035  1.00  0.00     0.036 A 
HETATM    2  C   UNL     1      41.687 -14.792   4.851  1.00  0.00     0.046 A 
HETATM    3  C   UNL     1      40.674 -13.965   4.326  1.00  0.00     0.030 A 
HETATM    4  C   UNL     1      40.291 -14.133   3.004  1.00  0.00     0.063 A 
HETATM    5  N   UNL     1      39.311 -13.204   2.789  1.00  0.00    -0.277 N 
HETATM    6  H   UNL     1      38.800 -13.040   1.928  1.00  0.00     0.189 HD
HETATM    7  N   UNL     1      39.022 -12.443   3.859  1.00  0.00    -0.168 NA
HETATM    8  C   UNL     1      39.858 -12.903   4.817  1.00  0.00     0.156 A 
HETATM    9  C   UNL     1      40.865 -15.090   2.165  1.00  0.00     0.034 A 
HETATM   10  C   UNL     1      41.872 -15.902   2.710  1.00  0.00     0.032 A 
ENDROOT
BRANCH   1  11
HETATM   11  N   UNL     1      43.312 -16.542   4.633  1.00  0.00    -0.323 N 
HETATM   12  C   UNL     1      43.182 -17.744   5.304  1.00  0.00     0.251 C 
HETATM   13  O   UNL     1      42.112 -18.295   5.537  1.00  0.00    -0.268 OA
HETATM   14  H   UNL     1      44.233 -16.142   4.548  1.00  0.00     0.169 HD
BRANCH  12  15
HETATM   15  C   UNL     1      44.496 -18.365   5.741  1.00  0.00     0.007 C 
HETATM   16  C   UNL     1      45.228 -17.772   6.918  1.00  0.00     0.054 C 
HETATM   17  C   UNL     1      45.053 -19.429   5.120  1.00  0.00     0.025 C 
BRANCH  17  18
HETATM   18  C   UNL     1      44.581 -20.207   3.962  1.00  0.00    -0.014 A 
HETATM   19  C   UNL     1      44.689 -21.608   3.918  1.00  0.00     0.044 A 
HETATM   20 CL   UNL     1      45.319 -22.517   5.250  1.00  0.00    -0.083 Cl
HETATM   21  C   UNL     1      44.297 -22.317   2.776  1.00  0.00     0.024 A 
HETATM   22  C   UNL     1      43.797 -21.636   1.668  1.00  0.00     0.002 A 
HETATM   23  C   UNL     1      43.692 -20.247   1.697  1.00  0.00     0.001 A 
HETATM   24  C   UNL     1      44.091 -19.537   2.832  1.00  0.00     0.013 A 
ENDBRANCH  17  18
ENDBRANCH  12  15
ENDBRANCH   1  11
BRANCH   8  25
HETATM   25  C   UNL     1      39.867 -12.330   6.170  1.00  0.00     0.270 C 
HETATM   26  N   UNL     1      39.339 -13.150   7.129  1.00  0.00    -0.365 N 
HETATM   27  H   UNL     1      38.994 -14.061   6.851  1.00  0.00     0.159 HD
HETATM   28  H   UNL     1      39.305 -12.845   8.088  1.00  0.00     0.159 HD
HETATM   29  O   UNL     1      40.303 -11.217   6.448  1.00  0.00    -0.266 OA
ENDBRANCH   8  25
TORSDOF 4
ENDMDL
MODEL 3
REMARK VINA RESULT:      -8.7      2.152      4.228
REMARK  4 active torsions:
REMARK  status: ('A' for Active; 'I' for Inactive)
REMARK    1  A    between atoms: C_2  and  C_3 
REMARK       I    between atoms: C_3  and  N_4 
REMARK    2  A    between atoms: N_4  and  C_5 
REMARK    3  A    between atoms: C_12  and  C_13 
REMARK       I    between atoms: C_13  and  N_14 
REMARK    4  A    between atoms: C_19  and  C_20 
ROOT
HETATM    1  C   UNL     1      41.572 -17.377   2.820  1.00  0.00     0.036 A 
HETATM    2  C   UNL     1      41.502 -16.386   3.817  1.00  0.00     0.046 A 
HETATM    3  C   UNL     1      40.728 -15.228   3.605  1.00  0.00     0.030 A 
HETATM    4  C   UNL     1      40.044 -15.091   2.406  1.00  0.00     0.063 A 
HETATM    5  N   UNL     1      39.398 -13.890   2.492  1.00  0.00    -0.277 N 
HETATM    6  H   UNL     1      38.800 -13.463   1.792  1.00  0.00     0.189 HD
HETATM    7  N   UNL     1      39.601 -13.230   3.646  1.00  0.00    -0.168 NA
HETATM    8  C   UNL     1      40.423 -14.047   4.344  1.00  0.00     0.156 A 
HETATM    9  C   UNL     1      40.088 -16.053   1.395  1.00  0.00     0.034 A 
HETATM   10  C   UNL     1      40.866 -17.198   1.629  1.00  0.00     0.032 A 
ENDROOT
BRANCH   1  11
HETATM   11  N   UNL     1      42.387 -18.497   3.105  1.00  0.00    -0.323 N 
HETATM   12  C   UNL     1      43.674 -18.745   2.662  1.00  0.00     0.251 C 
HETATM   13  O   UNL     1      44.287 -18.028   1.880  1.00  0.00    -0.268 OA
HETATM   14  H   UNL     1      41.949 -19.183   3.699  1.00  0.00     0.169 HD
BRANCH  12  15
HETATM   15  C   UNL     1      44.305 -20.001   3.234  1.00  0.00     0.007 C 
HETATM   16  C   UNL     1      44.613 -21.150   2.309  1.00  0.00     0.054 C 
HETATM   17  C   UNL     1      44.602 -20.147   4.545  1.00  0.00     0.025 C 
BRANCH  17  18
HETATM   18  C   UNL     1      44.417 -19.215   5.670  1.00  0.00    -0.014 A 
HETATM   19  C   UNL     1      43.893 -19.638   6.904  1.00  0.00     0.044 A 
HETATM   20 CL   UNL     1      43.496 -21.297   7.206  1.00  0.00    -0.083 Cl
HETATM   21  C   UNL     1      43.662 -18.718   7.933  1.00  0.00     0.024 A 
HETATM   22  C   UNL     1      43.948 -17.368   7.741  1.00  0.00     0.002 A 
HETATM   23  C   UNL     1      44.461 -16.935   6.521  1.00  0.00     0.001 A 
HETATM   24  C   UNL     1      44.685 -17.850   5.489  1.00  0.00     0.013 A 
ENDBRANCH  17  18
ENDBRANCH  12  15
ENDBRANCH   1  11
BRANCH   8  25
HETATM   25  C   UNL     1      40.899 -13.693   5.687  1.00  0.00     0.270 C 
HETATM   26  N   UNL     1      39.993 -13.933   6.685  1.00  0.00    -0.365 N 
HETATM   27  H   UNL     1      39.092 -14.324   6.436  1.00  0.00     0.159 HD
HETATM   28  H   UNL     1      40.231 -13.725   7.641  1.00  0.00     0.159 HD
HETATM   29  O   UNL     1      42.006 -13.223   5.929  1.00  0.00    -0.266 OA
ENDBRANCH   8  25
TORSDOF 4
ENDMDL
MODEL 4
REMARK VINA RESULT:      -8.7      2.446      4.161
REMARK  4 active torsions:
REMARK  status: ('A' for Active; 'I' for Inactive)
REMARK    1  A    between atoms: C_2  and  C_3 
REMARK       I    between atoms: C_3  and  N_4 
REMARK    2  A    between atoms: N_4  and  C_5 
REMARK    3  A    between atoms: C_12  and  C_13 
REMARK       I    between atoms: C_13  and  N_14 
REMARK    4  A    between atoms: C_19  and  C_20 
ROOT
HETATM    1  C   UNL     1      41.045 -16.288   1.353  1.00  0.00     0.036 A 
HETATM    2  C   UNL     1      41.316 -15.893   0.029  1.00  0.00     0.046 A 
HETATM    3  C   UNL     1      40.670 -14.765  -0.515  1.00  0.00     0.030 A 
HETATM    4  C   UNL     1      39.774 -14.062   0.276  1.00  0.00     0.063 A 
HETATM    5  N   UNL     1      39.317 -13.042  -0.511  1.00  0.00    -0.277 N 
HETATM    6  H   UNL     1      38.644 -12.327  -0.259  1.00  0.00     0.189 HD
HETATM    7  N   UNL     1      39.839 -13.020  -1.751  1.00  0.00    -0.168 NA
HETATM    8  C   UNL     1      40.679 -14.081  -1.766  1.00  0.00     0.156 A 
HETATM    9  C   UNL     1      39.481 -14.422   1.593  1.00  0.00     0.034 A 
HETATM   10  C   UNL     1      40.136 -15.549   2.113  1.00  0.00     0.032 A 
ENDROOT
BRANCH   1  11
HETATM   11  N   UNL     1      41.720 -17.442   1.815  1.00  0.00    -0.323 N 
HETATM   12  C   UNL     1      42.992 -17.523   2.352  1.00  0.00     0.251 C 
HETATM   13  O   UNL     1      43.765 -16.577   2.449  1.00  0.00    -0.268 OA
HETATM   14  H   UNL     1      41.188 -18.293   1.724  1.00  0.00     0.169 HD
BRANCH  12  15
HETATM   15  C   UNL     1      43.380 -18.906   2.842  1.00  0.00     0.007 C 
HETATM   16  C   UNL     1      43.480 -20.032   1.844  1.00  0.00     0.054 C 
HETATM   17  C   UNL     1      43.638 -19.185   4.139  1.00  0.00     0.025 C 
BRANCH  17  18
HETATM   18  C   UNL     1      43.619 -18.307   5.321  1.00  0.00    -0.014 A 
HETATM   19  C   UNL     1      42.427 -17.740   5.804  1.00  0.00     0.044 A 
HETATM   20 CL   UNL     1      40.892 -18.094   5.084  1.00  0.00    -0.083 Cl
HETATM   21  C   UNL     1      42.447 -16.854   6.887  1.00  0.00     0.024 A 
HETATM   22  C   UNL     1      43.656 -16.521   7.495  1.00  0.00     0.002 A 
HETATM   23  C   UNL     1      44.845 -17.070   7.022  1.00  0.00     0.001 A 
HETATM   24  C   UNL     1      44.828 -17.949   5.936  1.00  0.00     0.013 A 
ENDBRANCH  17  18
ENDBRANCH  12  15
ENDBRANCH   1  11
BRANCH   8  25
HETATM   25  C   UNL     1      41.465 -14.422  -2.958  1.00  0.00     0.270 C 
HETATM   26  N   UNL     1      42.677 -13.792  -3.030  1.00  0.00    -0.365 N 
HETATM   27  H   UNL     1      42.939 -13.159  -2.283  1.00  0.00     0.159 HD
HETATM   28  H   UNL     1      43.289 -13.966  -3.811  1.00  0.00     0.159 HD
HETATM   29  O   UNL     1      41.096 -15.201  -3.832  1.00  0.00    -0.266 OA
ENDBRANCH   8  25
TORSDOF 4
ENDMDL
MODEL 5
REMARK VINA RESULT:      -8.5      3.171      7.510
REMARK  4 active torsions:
REMARK  status: ('A' for Active; 'I' for Inactive)
REMARK    1  A    between atoms: C_2  and  C_3 
REMARK       I    between atoms: C_3  and  N_4 
REMARK    2  A    between atoms: N_4  and  C_5 
REMARK    3  A    between atoms: C_12  and  C_13 
REMARK       I    between atoms: C_13  and  N_14 
REMARK    4  A    between atoms: C_19  and  C_20 
ROOT
HETATM    1  C   UNL     1      43.491 -18.485   2.166  1.00  0.00     0.036 A 
HETATM    2  C   UNL     1      43.728 -18.428   3.552  1.00  0.00     0.046 A 
HETATM    3  C   UNL     1      44.129 -19.587   4.246  1.00  0.00     0.030 A 
HETATM    4  C   UNL     1      44.283 -20.770   3.538  1.00  0.00     0.063 A 
HETATM    5  N   UNL     1      44.669 -21.699   4.463  1.00  0.00    -0.277 N 
HETATM    6  H   UNL     1      44.871 -22.680   4.300  1.00  0.00     0.189 HD
HETATM    7  N   UNL     1      44.779 -21.224   5.716  1.00  0.00    -0.168 NA
HETATM    8  C   UNL     1      44.448 -19.918   5.596  1.00  0.00     0.156 A 
HETATM    9  C   UNL     1      44.059 -20.865   2.163  1.00  0.00     0.034 A 
HETATM   10  C   UNL     1      43.660 -19.697   1.494  1.00  0.00     0.032 A 
ENDROOT
BRANCH   1  11
HETATM   11  N   UNL     1      43.073 -17.282   1.551  1.00  0.00    -0.323 N 
HETATM   12  C   UNL     1      41.786 -16.906   1.210  1.00  0.00     0.251 C 
HETATM   13  O   UNL     1      40.798 -17.618   1.345  1.00  0.00    -0.268 OA
HETATM   14  H   UNL     1      43.825 -16.644   1.342  1.00  0.00     0.169 HD
BRANCH  12  15
HETATM   15  C   UNL     1      41.670 -15.500   0.650  1.00  0.00     0.007 C 
HETATM   16  C   UNL     1      41.344 -15.322  -0.811  1.00  0.00     0.054 C 
HETATM   17  C   UNL     1      41.851 -14.389   1.398  1.00  0.00     0.025 C 
BRANCH  17  18
HETATM   18  C   UNL     1      42.175 -14.249   2.828  1.00  0.00    -0.014 A 
HETATM   19  C   UNL     1      41.174 -14.219   3.815  1.00  0.00     0.044 A 
HETATM   20 CL   UNL     1      39.498 -14.414   3.422  1.00  0.00    -0.083 Cl
HETATM   21  C   UNL     1      41.505 -14.014   5.159  1.00  0.00     0.024 A 
HETATM   22  C   UNL     1      42.836 -13.836   5.532  1.00  0.00     0.002 A 
HETATM   23  C   UNL     1      43.836 -13.857   4.563  1.00  0.00     0.001 A 
HETATM   24  C   UNL     1      43.507 -14.052   3.219  1.00  0.00     0.013 A 
ENDBRANCH  17  18
ENDBRANCH  12  15
ENDBRANCH   1  11
BRANCH   8  25
HETATM   25  C   UNL     1      44.440 -19.017   6.755  1.00  0.00     0.270 C 
HETATM   26  N   UNL     1      43.681 -19.460   7.804  1.00  0.00    -0.365 N 
HETATM   27  H   UNL     1      43.198 -20.346   7.712  1.00  0.00     0.159 HD
HETATM   28  H   UNL     1      43.617 -18.910   8.646  1.00  0.00     0.159 HD
HETATM   29  O   UNL     1      45.050 -17.953   6.811  1.00  0.00    -0.266 OA
ENDBRANCH   8  25
TORSDOF 4
ENDMDL
MODEL 6
REMARK VINA RESULT:      -8.2      3.605      7.364
REMARK  4 active torsions:
REMARK  status: ('A' for Active; 'I' for Inactive)
REMARK    1  A    between atoms: C_2  and  C_3 
REMARK       I    between atoms: C_3  and  N_4 
REMARK    2  A    between atoms: N_4  and  C_5 
REMARK    3  A    between atoms: C_12  and  C_13 
REMARK       I    between atoms: C_13  and  N_14 
REMARK    4  A    between atoms: C_19  and  C_20 
ROOT
HETATM    1  C   UNL     1      43.836 -17.824   3.483  1.00  0.00     0.036 A 
HETATM    2  C   UNL     1      44.175 -19.010   4.160  1.00  0.00     0.046 A 
HETATM    3  C   UNL     1      44.181 -20.238   3.469  1.00  0.00     0.030 A 
HETATM    4  C   UNL     1      43.849 -20.249   2.122  1.00  0.00     0.063 A 
HETATM    5  N   UNL     1      43.940 -21.556   1.736  1.00  0.00    -0.277 N 
HETATM    6  H   UNL     1      43.765 -21.937   0.813  1.00  0.00     0.189 HD
HETATM    7  N   UNL     1      44.302 -22.402   2.717  1.00  0.00    -0.168 NA
HETATM    8  C   UNL     1      44.454 -21.599   3.795  1.00  0.00     0.156 A 
HETATM    9  C   UNL     1      43.510 -19.092   1.416  1.00  0.00     0.034 A 
HETATM   10  C   UNL     1      43.511 -17.881   2.126  1.00  0.00     0.032 A 
ENDROOT
BRANCH   1  11
HETATM   11  N   UNL     1      43.836 -16.638   4.254  1.00  0.00    -0.323 N 
HETATM   12  C   UNL     1      42.889 -16.226   5.175  1.00  0.00     0.251 C 
HETATM   13  O   UNL     1      41.848 -16.825   5.414  1.00  0.00    -0.268 OA
HETATM   14  H   UNL     1      44.629 -16.039   4.088  1.00  0.00     0.169 HD
BRANCH  12  15
HETATM   15  C   UNL     1      43.241 -14.943   5.905  1.00  0.00     0.007 C 
HETATM   16  C   UNL     1      44.085 -15.020   7.152  1.00  0.00     0.054 C 
HETATM   17  C   UNL     1      42.828 -13.722   5.495  1.00  0.00     0.025 C 
BRANCH  17  18
HETATM   18  C   UNL     1      42.006 -13.338   4.336  1.00  0.00    -0.014 A 
HETATM   19  C   UNL     1      40.606 -13.241   4.420  1.00  0.00     0.044 A 
HETATM   20 CL   UNL     1      39.762 -13.498   5.911  1.00  0.00    -0.083 Cl
HETATM   21  C   UNL     1      39.843 -12.942   3.286  1.00  0.00     0.024 A 
HETATM   22  C   UNL     1      40.467 -12.741   2.056  1.00  0.00     0.002 A 
HETATM   23  C   UNL     1      41.853 -12.841   1.958  1.00  0.00     0.001 A 
HETATM   24  C   UNL     1      42.616 -13.148   3.088  1.00  0.00     0.013 A 
ENDBRANCH  17  18
ENDBRANCH  12  15
ENDBRANCH   1  11
BRANCH   8  25
HETATM   25  C   UNL     1      44.852 -22.135   5.103  1.00  0.00     0.270 C 
HETATM   26  N   UNL     1      45.817 -23.102   5.043  1.00  0.00    -0.365 N 
HETATM   27  H   UNL     1      46.178 -23.370   4.134  1.00  0.00     0.159 HD
HETATM   28  H   UNL     1      46.157 -23.528   5.890  1.00  0.00     0.159 HD
HETATM   29  O   UNL     1      44.380 -21.768   6.175  1.00  0.00    -0.266 OA
ENDBRANCH   8  25
TORSDOF 4
ENDMDL
MODEL 7
REMARK VINA RESULT:      -8.0      2.621      4.454
REMARK  4 active torsions:
REMARK  status: ('A' for Active; 'I' for Inactive)
REMARK    1  A    between atoms: C_2  and  C_3 
REMARK       I    between atoms: C_3  and  N_4 
REMARK    2  A    between atoms: N_4  and  C_5 
REMARK    3  A    between atoms: C_12  and  C_13 
REMARK       I    between atoms: C_13  and  N_14 
REMARK    4  A    between atoms: C_19  and  C_20 
ROOT
HETATM    1  C   UNL     1      41.791 -15.867   0.646  1.00  0.00     0.036 A 
HETATM    2  C   UNL     1      41.038 -15.934  -0.541  1.00  0.00     0.046 A 
HETATM    3  C   UNL     1      40.645 -14.747  -1.192  1.00  0.00     0.030 A 
HETATM    4  C   UNL     1      41.015 -13.529  -0.643  1.00  0.00     0.063 A 
HETATM    5  N   UNL     1      40.498 -12.581  -1.480  1.00  0.00    -0.277 N 
HETATM    6  H   UNL     1      40.573 -11.573  -1.387  1.00  0.00     0.189 HD
HETATM    7  N   UNL     1      39.820 -13.076  -2.530  1.00  0.00    -0.168 NA
HETATM    8  C   UNL     1      39.904 -14.416  -2.364  1.00  0.00     0.156 A 
HETATM    9  C   UNL     1      41.764 -13.423   0.532  1.00  0.00     0.034 A 
HETATM   10  C   UNL     1      42.143 -14.619   1.162  1.00  0.00     0.032 A 
ENDROOT
BRANCH   1  11
HETATM   11  N   UNL     1      42.127 -17.103   1.247  1.00  0.00    -0.323 N 
HETATM   12  C   UNL     1      43.384 -17.559   1.603  1.00  0.00     0.251 C 
HETATM   13  O   UNL     1      44.428 -16.957   1.383  1.00  0.00    -0.268 OA
HETATM   14  H   UNL     1      41.337 -17.705   1.418  1.00  0.00     0.169 HD
BRANCH  12  15
HETATM   15  C   UNL     1      43.386 -18.897   2.321  1.00  0.00     0.007 C 
HETATM   16  C   UNL     1      43.748 -20.139   1.548  1.00  0.00     0.054 C 
HETATM   17  C   UNL     1      43.071 -19.034   3.629  1.00  0.00     0.025 C 
BRANCH  17  18
HETATM   18  C   UNL     1      42.681 -18.021   4.623  1.00  0.00    -0.014 A 
HETATM   19  C   UNL     1      43.539 -17.643   5.671  1.00  0.00     0.044 A 
HETATM   20 CL   UNL     1      45.138 -18.292   5.821  1.00  0.00    -0.083 Cl
HETATM   21  C   UNL     1      43.116 -16.729   6.643  1.00  0.00     0.024 A 
HETATM   22  C   UNL     1      41.834 -16.186   6.582  1.00  0.00     0.002 A 
HETATM   23  C   UNL     1      40.973 -16.558   5.553  1.00  0.00     0.001 A 
HETATM   24  C   UNL     1      41.389 -17.476   4.586  1.00  0.00     0.013 A 
ENDBRANCH  17  18
ENDBRANCH  12  15
ENDBRANCH   1  11
BRANCH   8  25
HETATM   25  C   UNL     1      39.282 -15.349  -3.313  1.00  0.00     0.270 C 
HETATM   26  N   UNL     1      37.961 -15.604  -3.065  1.00  0.00    -0.365 N 
HETATM   27  H   UNL     1      37.520 -15.148  -2.274  1.00  0.00     0.159 HD
HETATM   28  H   UNL     1      37.448 -16.229  -3.664  1.00  0.00     0.159 HD
HETATM   29  O   UNL     1      39.867 -15.871  -4.257  1.00  0.00    -0.266 OA
ENDBRANCH   8  25
TORSDOF 4
ENDMDL
MODEL 8
REMARK VINA RESULT:      -8.0      2.745      4.823
REMARK  4 active torsions:
REMARK  status: ('A' for Active; 'I' for Inactive)
REMARK    1  A    between atoms: C_2  and  C_3 
REMARK       I    between atoms: C_3  and  N_4 
REMARK    2  A    between atoms: N_4  and  C_5 
REMARK    3  A    between atoms: C_12  and  C_13 
REMARK       I    between atoms: C_13  and  N_14 
REMARK    4  A    between atoms: C_19  and  C_20 
ROOT
HETATM    1  C   UNL     1      41.107 -14.366   2.924  1.00  0.00     0.036 A 
HETATM    2  C   UNL     1      40.845 -13.784   4.178  1.00  0.00     0.046 A 
HETATM    3  C   UNL     1      39.865 -12.778   4.296  1.00  0.00     0.030 A 
HETATM    4  C   UNL     1      39.175 -12.381   3.161  1.00  0.00     0.063 A 
HETATM    5  N   UNL     1      38.311 -11.409   3.582  1.00  0.00    -0.277 N 
HETATM    6  H   UNL     1      37.647 -10.891   3.017  1.00  0.00     0.189 HD
HETATM    7  N   UNL     1      38.380 -11.137   4.897  1.00  0.00    -0.168 NA
HETATM    8  C   UNL     1      39.338 -11.977   5.351  1.00  0.00     0.156 A 
HETATM    9  C   UNL     1      39.405 -12.937   1.900  1.00  0.00     0.034 A 
HETATM   10  C   UNL     1      40.386 -13.937   1.808  1.00  0.00     0.032 A 
ENDROOT
BRANCH   1  11
HETATM   11  N   UNL     1      42.119 -15.354   2.889  1.00  0.00    -0.323 N 
HETATM   12  C   UNL     1      41.995 -16.705   3.164  1.00  0.00     0.251 C 
HETATM   13  O   UNL     1      40.965 -17.242   3.551  1.00  0.00    -0.268 OA
HETATM   14  H   UNL     1      43.028 -15.002   2.635  1.00  0.00     0.169 HD
BRANCH  12  15
HETATM   15  C   UNL     1      43.262 -17.510   2.936  1.00  0.00     0.007 C 
HETATM   16  C   UNL     1      43.669 -17.846   1.524  1.00  0.00     0.054 C 
HETATM   17  C   UNL     1      44.048 -17.950   3.944  1.00  0.00     0.025 C 
BRANCH  17  18
HETATM   18  C   UNL     1      43.909 -17.783   5.400  1.00  0.00    -0.014 A 
HETATM   19  C   UNL     1      43.935 -18.881   6.278  1.00  0.00     0.044 A 
HETATM   20 CL   UNL     1      44.204 -20.496   5.711  1.00  0.00    -0.083 Cl
HETATM   21  C   UNL     1      43.729 -18.701   7.650  1.00  0.00     0.024 A 
HETATM   22  C   UNL     1      43.493 -17.426   8.161  1.00  0.00     0.002 A 
HETATM   23  C   UNL     1      43.458 -16.331   7.301  1.00  0.00     0.001 A 
HETATM   24  C   UNL     1      43.654 -16.509   5.929  1.00  0.00     0.013 A 
ENDBRANCH  17  18
ENDBRANCH  12  15
ENDBRANCH   1  11
BRANCH   8  25
HETATM   25  C   UNL     1      39.731 -12.002   6.766  1.00  0.00     0.270 C 
HETATM   26  N   UNL     1      39.233 -13.066   7.467  1.00  0.00    -0.365 N 
HETATM   27  H   UNL     1      38.651 -13.737   6.980  1.00  0.00     0.159 HD
HETATM   28  H   UNL     1      39.451 -13.171   8.445  1.00  0.00     0.159 HD
HETATM   29  O   UNL     1      40.444 -11.160   7.302  1.00  0.00    -0.266 OA
ENDBRANCH   8  25
TORSDOF 4
ENDMDL
MODEL 9
REMARK VINA RESULT:      -8.0      3.340      7.431
REMARK  4 active torsions:
REMARK  status: ('A' for Active; 'I' for Inactive)
REMARK    1  A    between atoms: C_2  and  C_3 
REMARK       I    between atoms: C_3  and  N_4 
REMARK    2  A    between atoms: N_4  and  C_5 
REMARK    3  A    between atoms: C_12  and  C_13 
REMARK       I    between atoms: C_13  and  N_14 
REMARK    4  A    between atoms: C_19  and  C_20 
ROOT
HETATM    1  C   UNL     1      42.853 -16.645   2.910  1.00  0.00     0.036 A 
HETATM    2  C   UNL     1      43.206 -17.341   4.082  1.00  0.00     0.046 A 
HETATM    3  C   UNL     1      43.813 -18.610   3.990  1.00  0.00     0.030 A 
HETATM    4  C   UNL     1      44.052 -19.148   2.734  1.00  0.00     0.063 A 
HETATM    5  N   UNL     1      44.635 -20.362   2.964  1.00  0.00    -0.277 N 
HETATM    6  H   UNL     1      44.945 -21.035   2.271  1.00  0.00     0.189 HD
HETATM    7  N   UNL     1      44.798 -20.664   4.265  1.00  0.00    -0.168 NA
HETATM    8  C   UNL     1      44.293 -19.587   4.911  1.00  0.00     0.156 A 
HETATM    9  C   UNL     1      43.717 -18.486   1.550  1.00  0.00     0.034 A 
HETATM   10  C   UNL     1      43.114 -17.224   1.667  1.00  0.00     0.032 A 
ENDROOT
BRANCH   1  11
HETATM   11  N   UNL     1      42.231 -15.388   3.091  1.00  0.00    -0.323 N 
HETATM   12  C   UNL     1      42.836 -14.147   3.181  1.00  0.00     0.251 C 
HETATM   13  O   UNL     1      44.047 -13.965   3.180  1.00  0.00    -0.268 OA
HETATM   14  H   UNL     1      41.227 -15.433   3.164  1.00  0.00     0.169 HD
BRANCH  12  15
HETATM   15  C   UNL     1      41.868 -12.982   3.275  1.00  0.00     0.007 C 
HETATM   16  C   UNL     1      41.658 -12.313   4.610  1.00  0.00     0.054 C 
HETATM   17  C   UNL     1      41.172 -12.511   2.215  1.00  0.00     0.025 C 
BRANCH  17  18
HETATM   18  C   UNL     1      41.166 -12.955   0.811  1.00  0.00    -0.014 A 
HETATM   19  C   UNL     1      40.313 -13.977   0.361  1.00  0.00     0.044 A 
HETATM   20 CL   UNL     1      39.162 -14.734   1.411  1.00  0.00    -0.083 Cl
HETATM   21  C   UNL     1      40.377 -14.427  -0.963  1.00  0.00     0.024 A 
HETATM   22  C   UNL     1      41.295 -13.865  -1.849  1.00  0.00     0.002 A 
HETATM   23  C   UNL     1      42.151 -12.857  -1.413  1.00  0.00     0.001 A 
HETATM   24  C   UNL     1      42.094 -12.412  -0.089  1.00  0.00     0.013 A 
ENDBRANCH  17  18
ENDBRANCH  12  15
ENDBRANCH   1  11
BRANCH   8  25
HETATM   25  C   UNL     1      44.276 -19.509   6.377  1.00  0.00     0.270 C 
HETATM   26  N   UNL     1      43.695 -20.587   6.989  1.00  0.00    -0.365 N 
HETATM   27  H   UNL     1      43.334 -21.336   6.410  1.00  0.00     0.159 HD
HETATM   28  H   UNL     1      43.640 -20.625   7.993  1.00  0.00     0.159 HD
HETATM   29  O   UNL     1      44.733 -18.574   7.027  1.00  0.00    -0.266 OA
ENDBRANCH   8  25
TORSDOF 4
ENDMDL
MODEL 10
REMARK VINA RESULT:      -8.0      3.266      7.643
REMARK  4 active torsions:
REMARK  status: ('A' for Active; 'I' for Inactive)
REMARK    1  A    between atoms: C_2  and  C_3 
REMARK       I    between atoms: C_3  and  N_4 
REMARK    2  A    between atoms: N_4  and  C_5 
REMARK    3  A    between atoms: C_12  and  C_13 
REMARK       I    between atoms: C_13  and  N_14 
REMARK    4  A    between atoms: C_19  and  C_20 
ROOT
HETATM    1  C   UNL     1      43.300 -17.833   2.117  1.00  0.00     0.036 A 
HETATM    2  C   UNL     1      43.270 -17.472   3.477  1.00  0.00     0.046 A 
HETATM    3  C   UNL     1      43.740 -18.371   4.455  1.00  0.00     0.030 A 
HETATM    4  C   UNL     1      44.228 -19.605   4.049  1.00  0.00     0.063 A 
HETATM    5  N   UNL     1      44.600 -20.243   5.198  1.00  0.00    -0.277 N 
HETATM    6  H   UNL     1      45.001 -21.172   5.282  1.00  0.00     0.189 HD
HETATM    7  N   UNL     1      44.397 -19.532   6.321  1.00  0.00    -0.168 NA
HETATM    8  C   UNL     1      43.865 -18.371   5.875  1.00  0.00     0.156 A 
HETATM    9  C   UNL     1      44.276 -19.997   2.709  1.00  0.00     0.034 A 
HETATM   10  C   UNL     1      43.802 -19.084   1.754  1.00  0.00     0.032 A 
ENDROOT
BRANCH   1  11
HETATM   11  N   UNL     1      42.791 -16.881   1.203  1.00  0.00    -0.323 N 
HETATM   12  C   UNL     1      41.478 -16.706   0.803  1.00  0.00     0.251 C 
HETATM   13  O   UNL     1      40.546 -17.420   1.153  1.00  0.00    -0.268 OA
HETATM   14  H   UNL     1      43.493 -16.275   0.807  1.00  0.00     0.169 HD
BRANCH  12  15
HETATM   15  C   UNL     1      41.256 -15.523  -0.122  1.00  0.00     0.007 C 
HETATM   16  C   UNL     1      41.198 -15.761  -1.609  1.00  0.00     0.054 C 
HETATM   17  C   UNL     1      41.111 -14.255   0.323  1.00  0.00     0.025 C 
BRANCH  17  18
HETATM   18  C   UNL     1      41.125 -13.722   1.696  1.00  0.00    -0.014 A 
HETATM   19  C   UNL     1      39.940 -13.366   2.363  1.00  0.00     0.044 A 
HETATM   20 CL   UNL     1      38.382 -13.595   1.642  1.00  0.00    -0.083 Cl
HETATM   21  C   UNL     1      39.986 -12.796   3.641  1.00  0.00     0.024 A 
HETATM   22  C   UNL     1      41.213 -12.574   4.264  1.00  0.00     0.002 A 
HETATM   23  C   UNL     1      42.394 -12.916   3.610  1.00  0.00     0.001 A 
HETATM   24  C   UNL     1      42.351 -13.477   2.331  1.00  0.00     0.013 A 
ENDBRANCH  17  18
ENDBRANCH  12  15
ENDBRANCH   1  11
BRANCH   8  25
HETATM   25  C   UNL     1      43.487 -17.294   6.798  1.00  0.00     0.270 C 
HETATM   26  N   UNL     1      44.329 -16.215   6.777  1.00  0.00    -0.365 N 
HETATM   27  H   UNL     1      45.123 -16.234   6.147  1.00  0.00     0.159 HD
HETATM   28  H   UNL     1      44.149 -15.425   7.374  1.00  0.00     0.159 HD
HETATM   29  O   UNL     1      42.508 -17.325   7.538  1.00  0.00    -0.266 OA
ENDBRANCH   8  25
TORSDOF 4
ENDMDL
