MODEL 1
REMARK VINA RESULT:      -9.8      0.000      0.000
REMARK  8 active torsions:
REMARK  status: ('A' for Active; 'I' for Inactive)
REMARK    1  A    between atoms: C_4  and  C_5 
REMARK    2  A    between atoms: C_9  and  C_10 
REMARK       I    between atoms: C_10  and  N_11 
REMARK    3  A    between atoms: N_11  and  C_12 
REMARK    4  A    between atoms: C_12  and  C_13 
REMARK    5  A    between atoms: C_13  and  C_14 
REMARK    6  A    between atoms: C_14  and  C_15 
REMARK    7  A    between atoms: C_15  and  O_16 
REMARK    8  A    between atoms: O_16  and  C_17 
ROOT
HETATM    1  C   UNL     1      45.154 -11.663   9.367  1.00  0.00     0.270 C 
HETATM    2  N   UNL     1      44.825 -12.828   8.724  1.00  0.00    -0.345 N 
HETATM    3  O   UNL     1      46.041 -10.916   8.967  1.00  0.00    -0.266 OA
HETATM    4  H   UNL     1      44.019 -13.356   9.021  1.00  0.00     0.163 HD
ENDROOT
BRANCH   2   5
HETATM    5  C   UNL     1      45.477 -13.213   7.500  1.00  0.00     0.217 C 
BRANCH   5   6
HETATM    6  C   UNL     1      44.553 -14.144   6.731  1.00  0.00    -0.085 C 
BRANCH   6   7
HETATM    7  C   UNL     1      43.761 -14.942   6.072  1.00  0.00    -0.078 C 
BRANCH   7   8
HETATM    8  C   UNL     1      42.837 -15.873   5.302  1.00  0.00     0.269 C 
BRANCH   8   9
HETATM    9  O   UNL     1      43.401 -16.104   4.014  1.00  0.00    -0.339 OA
BRANCH   9  10
HETATM   10  C   UNL     1      43.589 -17.408   3.645  1.00  0.00     0.072 A 
HETATM   11  C   UNL     1      44.063 -18.435   4.465  1.00  0.00     0.069 A 
HETATM   12  C   UNL     1      44.224 -19.732   3.990  1.00  0.00     0.069 A 
HETATM   13  C   UNL     1      43.896 -20.005   2.645  1.00  0.00    -0.007 A 
HETATM   14  N   UNL     1      44.687 -20.682   4.822  1.00  0.00    -0.260 NA
HETATM   15  C   UNL     1      43.415 -18.980   1.816  1.00  0.00     0.016 A 
HETATM   16  C   UNL     1      44.065 -21.314   2.178  1.00  0.00     0.015 A 
HETATM   17  C   UNL     1      43.265 -17.689   2.319  1.00  0.00     0.038 A 
HETATM   18  C   UNL     1      44.544 -22.297   3.035  1.00  0.00     0.020 A 
HETATM   19  C   UNL     1      44.838 -21.934   4.335  1.00  0.00     0.117 A 
ENDBRANCH   9  10
ENDBRANCH   8   9
ENDBRANCH   7   8
ENDBRANCH   6   7
ENDBRANCH   5   6
ENDBRANCH   2   5
BRANCH   1  20
HETATM   20  C   UNL     1      44.369 -11.372  10.535  1.00  0.00     0.120 A 
HETATM   21  N   UNL     1      43.637 -12.335  11.170  1.00  0.00    -0.272 N 
HETATM   22  N   UNL     1      42.988 -11.906  12.263  1.00  0.00    -0.174 NA
HETATM   23  H   UNL     1      43.559 -13.313  10.904  1.00  0.00     0.189 HD
HETATM   24  C   UNL     1      43.271 -10.595  12.330  1.00  0.00     0.089 A 
HETATM   25  C   UNL     1      44.136 -10.223  11.264  1.00  0.00     0.071 A 
BRANCH  24  26
HETATM   26  C   UNL     1      42.736  -9.740  13.395  1.00  0.00    -0.006 A 
HETATM   27  C   UNL     1      42.630  -8.354  13.206  1.00  0.00     0.014 A 
HETATM   28  C   UNL     1      42.104  -7.534  14.208  1.00  0.00     0.001 A 
HETATM   29  C   UNL     1      41.682  -8.091  15.414  1.00  0.00     0.000 A 
HETATM   30  C   UNL     1      41.790  -9.464  15.619  1.00  0.00     0.001 A 
HETATM   31  C   UNL     1      42.313 -10.285  14.616  1.00  0.00     0.014 A 
ENDBRANCH  24  26
ENDBRANCH   1  20
TORSDOF 8
ENDMDL
MODEL 2
REMARK VINA RESULT:      -9.3      1.062      1.401
REMARK  8 active torsions:
REMARK  status: ('A' for Active; 'I' for Inactive)
REMARK    1  A    between atoms: C_4  and  C_5 
REMARK    2  A    between atoms: C_9  and  C_10 
REMARK       I    between atoms: C_10  and  N_11 
REMARK    3  A    between atoms: N_11  and  C_12 
REMARK    4  A    between atoms: C_12  and  C_13 
REMARK    5  A    between atoms: C_13  and  C_14 
REMARK    6  A    between atoms: C_14  and  C_15 
REMARK    7  A    between atoms: C_15  and  O_16 
REMARK    8  A    between atoms: O_16  and  C_17 
ROOT
HETATM    1  C   UNL     1      44.941 -12.087   8.985  1.00  0.00     0.270 C 
HETATM    2  N   UNL     1      44.395 -13.114   8.260  1.00  0.00    -0.345 N 
HETATM    3  O   UNL     1      46.096 -11.707   8.825  1.00  0.00    -0.266 OA
HETATM    4  H   UNL     1      43.411 -13.321   8.344  1.00  0.00     0.163 HD
ENDROOT
BRANCH   2   5
HETATM    5  C   UNL     1      45.142 -13.775   7.222  1.00  0.00     0.217 C 
BRANCH   5   6
HETATM    6  C   UNL     1      44.204 -14.076   6.065  1.00  0.00    -0.085 C 
BRANCH   6   7
HETATM    7  C   UNL     1      43.399 -14.335   5.073  1.00  0.00    -0.078 C 
BRANCH   7   8
HETATM    8  C   UNL     1      42.461 -14.638   3.916  1.00  0.00     0.269 C 
BRANCH   8   9
HETATM    9  O   UNL     1      41.749 -15.836   4.213  1.00  0.00    -0.339 OA
BRANCH   9  10
HETATM   10  C   UNL     1      42.262 -17.001   3.715  1.00  0.00     0.072 A 
HETATM   11  C   UNL     1      43.087 -17.897   4.400  1.00  0.00     0.069 A 
HETATM   12  C   UNL     1      43.563 -19.057   3.798  1.00  0.00     0.069 A 
HETATM   13  C   UNL     1      43.194 -19.326   2.463  1.00  0.00    -0.007 A 
HETATM   14  N   UNL     1      44.356 -19.883   4.503  1.00  0.00    -0.260 NA
HETATM   15  C   UNL     1      42.363 -18.434   1.769  1.00  0.00     0.016 A 
HETATM   16  C   UNL     1      43.681 -20.496   1.867  1.00  0.00     0.015 A 
HETATM   17  C   UNL     1      41.902 -17.278   2.397  1.00  0.00     0.038 A 
HETATM   18  C   UNL     1      44.502 -21.350   2.593  1.00  0.00     0.020 A 
HETATM   19  C   UNL     1      44.808 -21.002   3.895  1.00  0.00     0.117 A 
ENDBRANCH   9  10
ENDBRANCH   8   9
ENDBRANCH   7   8
ENDBRANCH   6   7
ENDBRANCH   5   6
ENDBRANCH   2   5
BRANCH   1  20
HETATM   20  C   UNL     1      44.053 -11.475   9.935  1.00  0.00     0.120 A 
HETATM   21  N   UNL     1      42.701 -11.447   9.743  1.00  0.00    -0.272 N 
HETATM   22  N   UNL     1      42.013 -10.868  10.739  1.00  0.00    -0.174 NA
HETATM   23  H   UNL     1      42.191 -11.827   8.950  1.00  0.00     0.189 HD
HETATM   24  C   UNL     1      42.954 -10.460  11.606  1.00  0.00     0.089 A 
HETATM   25  C   UNL     1      44.247 -10.824  11.137  1.00  0.00     0.071 A 
BRANCH  24  26
HETATM   26  C   UNL     1      42.612  -9.758  12.848  1.00  0.00    -0.006 A 
HETATM   27  C   UNL     1      42.467 -10.469  14.047  1.00  0.00     0.014 A 
HETATM   28  C   UNL     1      42.161  -9.807  15.239  1.00  0.00     0.001 A 
HETATM   29  C   UNL     1      41.990  -8.424  15.243  1.00  0.00     0.000 A 
HETATM   30  C   UNL     1      42.122  -7.705  14.057  1.00  0.00     0.001 A 
HETATM   31  C   UNL     1      42.432  -8.367  12.866  1.00  0.00     0.014 A 
ENDBRANCH  24  26
ENDBRANCH   1  20
TORSDOF 8
ENDMDL
MODEL 3
REMARK VINA RESULT:      -9.1      2.060      3.059
REMARK  8 active torsions:
REMARK  status: ('A' for Active; 'I' for Inactive)
REMARK    1  A    between atoms: C_4  and  C_5 
REMARK    2  A    between atoms: C_9  and  C_10 
REMARK       I    between atoms: C_10  and  N_11 
REMARK    3  A    between atoms: N_11  and  C_12 
REMARK    4  A    between atoms: C_12  and  C_13 
REMARK    5  A    between atoms: C_13  and  C_14 
REMARK    6  A    between atoms: C_14  and  C_15 
REMARK    7  A    between atoms: C_15  and  O_16 
REMARK    8  A    between atoms: O_16  and  C_17 
ROOT
HETATM    1  C   UNL     1      44.739 -12.833   8.349  1.00  0.00     0.270 C 
HETATM    2  N   UNL     1      43.972 -13.460   7.402  1.00  0.00    -0.345 N 
HETATM    3  O   UNL     1      45.963 -12.907   8.363  1.00  0.00    -0.266 OA
HETATM    4  H   UNL     1      42.980 -13.284   7.360  1.00  0.00     0.163 HD
ENDROOT
BRANCH   2   5
HETATM    5  C   UNL     1      44.575 -14.208   6.330  1.00  0.00     0.217 C 
BRANCH   5   6
HETATM    6  C   UNL     1      44.471 -15.689   6.653  1.00  0.00    -0.085 C 
BRANCH   6   7
HETATM    7  C   UNL     1      44.381 -16.960   6.930  1.00  0.00    -0.078 C 
BRANCH   7   8
HETATM    8  C   UNL     1      44.275 -18.442   7.254  1.00  0.00     0.269 C 
BRANCH   8   9
HETATM    9  O   UNL     1      43.172 -18.984   6.533  1.00  0.00    -0.339 OA
BRANCH   9  10
HETATM   10  C   UNL     1      43.056 -18.627   5.217  1.00  0.00     0.072 A 
HETATM   11  C   UNL     1      42.051 -17.830   4.666  1.00  0.00     0.069 A 
HETATM   12  C   UNL     1      42.020 -17.529   3.308  1.00  0.00     0.069 A 
HETATM   13  C   UNL     1      43.037 -18.047   2.479  1.00  0.00    -0.007 A 
HETATM   14  N   UNL     1      41.027 -16.759   2.830  1.00  0.00    -0.260 NA
HETATM   15  C   UNL     1      44.053 -18.845   3.025  1.00  0.00     0.016 A 
HETATM   16  C   UNL     1      42.994 -17.739   1.113  1.00  0.00     0.015 A 
HETATM   17  C   UNL     1      44.058 -19.131   4.389  1.00  0.00     0.038 A 
HETATM   18  C   UNL     1      41.968 -16.945   0.616  1.00  0.00     0.020 A 
HETATM   19  C   UNL     1      41.018 -16.484   1.507  1.00  0.00     0.117 A 
ENDBRANCH   9  10
ENDBRANCH   8   9
ENDBRANCH   7   8
ENDBRANCH   6   7
ENDBRANCH   5   6
ENDBRANCH   2   5
BRANCH   1  20
HETATM   20  C   UNL     1      44.002 -12.064   9.314  1.00  0.00     0.120 A 
HETATM   21  N   UNL     1      42.899 -11.337   8.966  1.00  0.00    -0.272 N 
HETATM   22  N   UNL     1      42.309 -10.704   9.992  1.00  0.00    -0.174 NA
HETATM   23  H   UNL     1      42.495 -11.252   8.038  1.00  0.00     0.189 HD
HETATM   24  C   UNL     1      43.078 -10.991  11.054  1.00  0.00     0.089 A 
HETATM   25  C   UNL     1      44.151 -11.843  10.669  1.00  0.00     0.071 A 
BRANCH  24  26
HETATM   26  C   UNL     1      42.778 -10.473  12.393  1.00  0.00    -0.006 A 
HETATM   27  C   UNL     1      41.644 -10.918  13.087  1.00  0.00     0.014 A 
HETATM   28  C   UNL     1      41.360 -10.444  14.371  1.00  0.00     0.001 A 
HETATM   29  C   UNL     1      42.205  -9.513  14.973  1.00  0.00     0.000 A 
HETATM   30  C   UNL     1      43.330  -9.055  14.291  1.00  0.00     0.001 A 
HETATM   31  C   UNL     1      43.616  -9.531  13.009  1.00  0.00     0.014 A 
ENDBRANCH  24  26
ENDBRANCH   1  20
TORSDOF 8
ENDMDL
MODEL 4
REMARK VINA RESULT:      -8.9      2.059      2.267
REMARK  8 active torsions:
REMARK  status: ('A' for Active; 'I' for Inactive)
REMARK    1  A    between atoms: C_4  and  C_5 
REMARK    2  A    between atoms: C_9  and  C_10 
REMARK       I    between atoms: C_10  and  N_11 
REMARK    3  A    between atoms: N_11  and  C_12 
REMARK    4  A    between atoms: C_12  and  C_13 
REMARK    5  A    between atoms: C_13  and  C_14 
REMARK    6  A    between atoms: C_14  and  C_15 
REMARK    7  A    between atoms: C_15  and  O_16 
REMARK    8  A    between atoms: O_16  and  C_17 
ROOT
HETATM    1  C   UNL     1      44.601 -12.093  10.354  1.00  0.00     0.270 C 
HETATM    2  N   UNL     1      44.678 -12.008   8.988  1.00  0.00    -0.345 N 
HETATM    3  O   UNL     1      45.311 -12.848  11.009  1.00  0.00    -0.266 OA
HETATM    4  H   UNL     1      44.157 -11.297   8.498  1.00  0.00     0.163 HD
ENDROOT
BRANCH   2   5
HETATM    5  C   UNL     1      45.647 -12.772   8.247  1.00  0.00     0.217 C 
BRANCH   5   6
HETATM    6  C   UNL     1      44.909 -13.787   7.389  1.00  0.00    -0.085 C 
BRANCH   6   7
HETATM    7  C   UNL     1      44.277 -14.657   6.652  1.00  0.00    -0.078 C 
BRANCH   7   8
HETATM    8  C   UNL     1      43.539 -15.672   5.794  1.00  0.00     0.269 C 
BRANCH   8   9
HETATM    9  O   UNL     1      44.045 -16.970   6.095  1.00  0.00    -0.339 OA
BRANCH   9  10
HETATM   10  C   UNL     1      43.976 -17.907   5.101  1.00  0.00     0.072 A 
HETATM   11  C   UNL     1      44.457 -19.217   5.169  1.00  0.00     0.069 A 
HETATM   12  C   UNL     1      44.342 -20.093   4.095  1.00  0.00     0.069 A 
HETATM   13  C   UNL     1      43.720 -19.637   2.914  1.00  0.00    -0.007 A 
HETATM   14  N   UNL     1      44.826 -21.343   4.215  1.00  0.00    -0.260 NA
HETATM   15  C   UNL     1      43.230 -18.325   2.839  1.00  0.00     0.016 A 
HETATM   16  C   UNL     1      43.612 -20.528   1.839  1.00  0.00     0.015 A 
HETATM   17  C   UNL     1      43.360 -17.468   3.930  1.00  0.00     0.038 A 
HETATM   18  C   UNL     1      44.112 -21.819   1.960  1.00  0.00     0.020 A 
HETATM   19  C   UNL     1      44.704 -22.174   3.157  1.00  0.00     0.117 A 
ENDBRANCH   9  10
ENDBRANCH   8   9
ENDBRANCH   7   8
ENDBRANCH   6   7
ENDBRANCH   5   6
ENDBRANCH   2   5
BRANCH   1  20
HETATM   20  C   UNL     1      43.637 -11.218  10.963  1.00  0.00     0.120 A 
HETATM   21  N   UNL     1      43.998 -10.284  11.893  1.00  0.00    -0.272 N 
HETATM   22  N   UNL     1      42.984  -9.527  12.337  1.00  0.00    -0.174 NA
HETATM   23  H   UNL     1      44.934 -10.112  12.249  1.00  0.00     0.189 HD
HETATM   24  C   UNL     1      41.901 -10.007  11.705  1.00  0.00     0.089 A 
HETATM   25  C   UNL     1      42.271 -11.068  10.832  1.00  0.00     0.071 A 
BRANCH  24  26
HETATM   26  C   UNL     1      40.563  -9.449  11.925  1.00  0.00    -0.006 A 
HETATM   27  C   UNL     1      40.316  -8.612  13.023  1.00  0.00     0.014 A 
HETATM   28  C   UNL     1      39.048  -8.060  13.230  1.00  0.00     0.001 A 
HETATM   29  C   UNL     1      38.011  -8.344  12.344  1.00  0.00     0.000 A 
HETATM   30  C   UNL     1      38.240  -9.181  11.255  1.00  0.00     0.001 A 
HETATM   31  C   UNL     1      39.508  -9.730  11.045  1.00  0.00     0.014 A 
ENDBRANCH  24  26
ENDBRANCH   1  20
TORSDOF 8
ENDMDL
MODEL 5
REMARK VINA RESULT:      -8.7      2.719     12.205
REMARK  8 active torsions:
REMARK  status: ('A' for Active; 'I' for Inactive)
REMARK    1  A    between atoms: C_4  and  C_5 
REMARK    2  A    between atoms: C_9  and  C_10 
REMARK       I    between atoms: C_10  and  N_11 
REMARK    3  A    between atoms: N_11  and  C_12 
REMARK    4  A    between atoms: C_12  and  C_13 
REMARK    5  A    between atoms: C_13  and  C_14 
REMARK    6  A    between atoms: C_14  and  C_15 
REMARK    7  A    between atoms: C_15  and  O_16 
REMARK    8  A    between atoms: O_16  and  C_17 
ROOT
HETATM    1  C   UNL     1      42.918 -14.252   3.508  1.00  0.00     0.270 C 
HETATM    2  N   UNL     1      41.700 -13.649   3.683  1.00  0.00    -0.345 N 
HETATM    3  O   UNL     1      43.942 -13.619   3.278  1.00  0.00    -0.266 OA
HETATM    4  H   UNL     1      40.906 -14.195   3.979  1.00  0.00     0.163 HD
ENDROOT
BRANCH   2   5
HETATM    5  C   UNL     1      41.567 -12.216   3.655  1.00  0.00     0.217 C 
BRANCH   5   6
HETATM    6  C   UNL     1      41.474 -11.710   5.085  1.00  0.00    -0.085 C 
BRANCH   6   7
HETATM    7  C   UNL     1      41.395 -11.276   6.312  1.00  0.00    -0.078 C 
BRANCH   7   8
HETATM    8  C   UNL     1      41.302 -10.770   7.742  1.00  0.00     0.269 C 
BRANCH   8   9
HETATM    9  O   UNL     1      42.624 -10.590   8.244  1.00  0.00    -0.339 OA
BRANCH   9  10
HETATM   10  C   UNL     1      42.747 -10.297   9.574  1.00  0.00     0.072 A 
HETATM   11  C   UNL     1      41.787  -9.668  10.371  1.00  0.00     0.069 A 
HETATM   12  C   UNL     1      42.012  -9.408  11.718  1.00  0.00     0.069 A 
HETATM   13  C   UNL     1      43.245  -9.797  12.284  1.00  0.00    -0.007 A 
HETATM   14  N   UNL     1      41.054  -8.797  12.437  1.00  0.00    -0.260 NA
HETATM   15  C   UNL     1      44.213 -10.434  11.492  1.00  0.00     0.016 A 
HETATM   16  C   UNL     1      43.462  -9.529  13.641  1.00  0.00     0.015 A 
HETATM   17  C   UNL     1      43.960 -10.680  10.144  1.00  0.00     0.038 A 
HETATM   18  C   UNL     1      42.474  -8.896  14.385  1.00  0.00     0.020 A 
HETATM   19  C   UNL     1      41.299  -8.554  13.744  1.00  0.00     0.117 A 
ENDBRANCH   9  10
ENDBRANCH   8   9
ENDBRANCH   7   8
ENDBRANCH   6   7
ENDBRANCH   5   6
ENDBRANCH   2   5
BRANCH   1  20
HETATM   20  C   UNL     1      42.909 -15.684   3.635  1.00  0.00     0.120 A 
HETATM   21  N   UNL     1      42.049 -16.328   4.479  1.00  0.00    -0.272 N 
HETATM   22  N   UNL     1      42.148 -17.666   4.453  1.00  0.00    -0.174 NA
HETATM   23  H   UNL     1      41.357 -15.898   5.086  1.00  0.00     0.189 HD
HETATM   24  C   UNL     1      43.143 -17.915   3.587  1.00  0.00     0.089 A 
HETATM   25  C   UNL     1      43.646 -16.696   3.052  1.00  0.00     0.071 A 
BRANCH  24  26
HETATM   26  C   UNL     1      43.580 -19.280   3.279  1.00  0.00    -0.006 A 
HETATM   27  C   UNL     1      43.216 -19.885   2.067  1.00  0.00     0.014 A 
HETATM   28  C   UNL     1      43.644 -21.179   1.757  1.00  0.00     0.001 A 
HETATM   29  C   UNL     1      44.437 -21.886   2.658  1.00  0.00     0.000 A 
HETATM   30  C   UNL     1      44.798 -21.302   3.870  1.00  0.00     0.001 A 
HETATM   31  C   UNL     1      44.373 -20.007   4.179  1.00  0.00     0.014 A 
ENDBRANCH  24  26
ENDBRANCH   1  20
TORSDOF 8
ENDMDL
MODEL 6
REMARK VINA RESULT:      -8.7      6.150     10.692
REMARK  8 active torsions:
REMARK  status: ('A' for Active; 'I' for Inactive)
REMARK    1  A    between atoms: C_4  and  C_5 
REMARK    2  A    between atoms: C_9  and  C_10 
REMARK       I    between atoms: C_10  and  N_11 
REMARK    3  A    between atoms: N_11  and  C_12 
REMARK    4  A    between atoms: C_12  and  C_13 
REMARK    5  A    between atoms: C_13  and  C_14 
REMARK    6  A    between atoms: C_14  and  C_15 
REMARK    7  A    between atoms: C_15  and  O_16 
REMARK    8  A    between atoms: O_16  and  C_17 
ROOT
HETATM    1  C   UNL     1      40.935 -15.996   0.753  1.00  0.00     0.270 C 
HETATM    2  N   UNL     1      39.881 -15.940   1.627  1.00  0.00    -0.345 N 
HETATM    3  O   UNL     1      41.028 -15.254  -0.218  1.00  0.00    -0.266 OA
HETATM    4  H   UNL     1      39.897 -16.490   2.472  1.00  0.00     0.163 HD
ENDROOT
BRANCH   2   5
HETATM    5  C   UNL     1      38.839 -14.958   1.476  1.00  0.00     0.217 C 
BRANCH   5   6
HETATM    6  C   UNL     1      39.229 -13.713   2.257  1.00  0.00    -0.085 C 
BRANCH   6   7
HETATM    7  C   UNL     1      39.564 -12.646   2.925  1.00  0.00    -0.078 C 
BRANCH   7   8
HETATM    8  C   UNL     1      39.955 -11.401   3.705  1.00  0.00     0.269 C 
BRANCH   8   9
HETATM    9  O   UNL     1      41.299 -11.554   4.155  1.00  0.00    -0.339 OA
BRANCH   9  10
HETATM   10  C   UNL     1      41.729 -12.829   4.400  1.00  0.00     0.072 A 
HETATM   11  C   UNL     1      41.203 -13.706   5.352  1.00  0.00     0.069 A 
HETATM   12  C   UNL     1      41.718 -14.986   5.527  1.00  0.00     0.069 A 
HETATM   13  C   UNL     1      42.796 -15.398   4.715  1.00  0.00    -0.007 A 
HETATM   14  N   UNL     1      41.176 -15.789   6.460  1.00  0.00    -0.260 NA
HETATM   15  C   UNL     1      43.327 -14.524   3.754  1.00  0.00     0.016 A 
HETATM   16  C   UNL     1      43.308 -16.688   4.902  1.00  0.00     0.015 A 
HETATM   17  C   UNL     1      42.792 -13.247   3.601  1.00  0.00     0.038 A 
HETATM   18  C   UNL     1      42.750 -17.518   5.867  1.00  0.00     0.020 A 
HETATM   19  C   UNL     1      41.696 -17.027   6.612  1.00  0.00     0.117 A 
ENDBRANCH   9  10
ENDBRANCH   8   9
ENDBRANCH   7   8
ENDBRANCH   6   7
ENDBRANCH   5   6
ENDBRANCH   2   5
BRANCH   1  20
HETATM   20  C   UNL     1      41.936 -16.978   1.072  1.00  0.00     0.120 A 
HETATM   21  N   UNL     1      43.218 -16.875   0.614  1.00  0.00    -0.272 N 
HETATM   22  N   UNL     1      44.034 -17.856   1.030  1.00  0.00    -0.174 NA
HETATM   23  H   UNL     1      43.596 -16.140   0.023  1.00  0.00     0.189 HD
HETATM   24  C   UNL     1      43.247 -18.663   1.760  1.00  0.00     0.089 A 
HETATM   25  C   UNL     1      41.923 -18.144   1.811  1.00  0.00     0.071 A 
BRANCH  24  26
HETATM   26  C   UNL     1      43.761 -19.880   2.396  1.00  0.00    -0.006 A 
HETATM   27  C   UNL     1      44.312 -19.829   3.684  1.00  0.00     0.014 A 
HETATM   28  C   UNL     1      44.787 -20.987   4.305  1.00  0.00     0.001 A 
HETATM   29  C   UNL     1      44.721 -22.211   3.642  1.00  0.00     0.000 A 
HETATM   30  C   UNL     1      44.185 -22.276   2.358  1.00  0.00     0.001 A 
HETATM   31  C   UNL     1      43.707 -21.118   1.738  1.00  0.00     0.014 A 
ENDBRANCH  24  26
ENDBRANCH   1  20
TORSDOF 8
ENDMDL
MODEL 7
REMARK VINA RESULT:      -8.6      5.161      9.603
REMARK  8 active torsions:
REMARK  status: ('A' for Active; 'I' for Inactive)
REMARK    1  A    between atoms: C_4  and  C_5 
REMARK    2  A    between atoms: C_9  and  C_10 
REMARK       I    between atoms: C_10  and  N_11 
REMARK    3  A    between atoms: N_11  and  C_12 
REMARK    4  A    between atoms: C_12  and  C_13 
REMARK    5  A    between atoms: C_13  and  C_14 
REMARK    6  A    between atoms: C_14  and  C_15 
REMARK    7  A    between atoms: C_15  and  O_16 
REMARK    8  A    between atoms: O_16  and  C_17 
ROOT
HETATM    1  C   UNL     1      44.099 -16.426   7.293  1.00  0.00     0.270 C 
HETATM    2  N   UNL     1      44.601 -15.369   6.580  1.00  0.00    -0.345 N 
HETATM    3  O   UNL     1      43.646 -16.303   8.425  1.00  0.00    -0.266 OA
HETATM    4  H   UNL     1      44.861 -15.492   5.613  1.00  0.00     0.163 HD
ENDROOT
BRANCH   2   5
HETATM    5  C   UNL     1      44.573 -14.031   7.110  1.00  0.00     0.217 C 
BRANCH   5   6
HETATM    6  C   UNL     1      43.334 -13.326   6.581  1.00  0.00    -0.085 C 
BRANCH   6   7
HETATM    7  C   UNL     1      42.273 -12.721   6.127  1.00  0.00    -0.078 C 
BRANCH   7   8
HETATM    8  C   UNL     1      41.035 -12.016   5.598  1.00  0.00     0.269 C 
BRANCH   8   9
HETATM    9  O   UNL     1      40.037 -12.997   5.326  1.00  0.00    -0.339 OA
BRANCH   9  10
HETATM   10  C   UNL     1      40.385 -14.016   4.482  1.00  0.00     0.072 A 
HETATM   11  C   UNL     1      40.528 -13.924   3.095  1.00  0.00     0.069 A 
HETATM   12  C   UNL     1      40.881 -15.026   2.324  1.00  0.00     0.069 A 
HETATM   13  C   UNL     1      41.101 -16.261   2.970  1.00  0.00    -0.007 A 
HETATM   14  N   UNL     1      41.002 -14.882   0.992  1.00  0.00    -0.260 NA
HETATM   15  C   UNL     1      40.964 -16.360   4.363  1.00  0.00     0.016 A 
HETATM   16  C   UNL     1      41.454 -17.363   2.183  1.00  0.00     0.015 A 
HETATM   17  C   UNL     1      40.608 -15.240   5.110  1.00  0.00     0.038 A 
HETATM   18  C   UNL     1      41.578 -17.218   0.807  1.00  0.00     0.020 A 
HETATM   19  C   UNL     1      41.344 -15.968   0.265  1.00  0.00     0.117 A 
ENDBRANCH   9  10
ENDBRANCH   8   9
ENDBRANCH   7   8
ENDBRANCH   6   7
ENDBRANCH   5   6
ENDBRANCH   2   5
BRANCH   1  20
HETATM   20  C   UNL     1      44.128 -17.689   6.607  1.00  0.00     0.120 A 
HETATM   21  N   UNL     1      44.059 -18.876   7.279  1.00  0.00    -0.272 N 
HETATM   22  N   UNL     1      44.064 -19.960   6.488  1.00  0.00    -0.174 NA
HETATM   23  H   UNL     1      43.990 -19.002   8.285  1.00  0.00     0.189 HD
HETATM   24  C   UNL     1      44.183 -19.470   5.243  1.00  0.00     0.089 A 
HETATM   25  C   UNL     1      44.224 -18.048   5.277  1.00  0.00     0.071 A 
BRANCH  24  26
HETATM   26  C   UNL     1      44.238 -20.343   4.067  1.00  0.00    -0.006 A 
HETATM   27  C   UNL     1      44.685 -21.667   4.187  1.00  0.00     0.014 A 
HETATM   28  C   UNL     1      44.723 -22.512   3.075  1.00  0.00     0.001 A 
HETATM   29  C   UNL     1      44.318 -22.042   1.828  1.00  0.00     0.000 A 
HETATM   30  C   UNL     1      43.880 -20.727   1.691  1.00  0.00     0.001 A 
HETATM   31  C   UNL     1      43.839 -19.882   2.804  1.00  0.00     0.014 A 
ENDBRANCH  24  26
ENDBRANCH   1  20
TORSDOF 8
ENDMDL
MODEL 8
REMARK VINA RESULT:      -8.5      6.940     10.874
REMARK  8 active torsions:
REMARK  status: ('A' for Active; 'I' for Inactive)
REMARK    1  A    between atoms: C_4  and  C_5 
REMARK    2  A    between atoms: C_9  and  C_10 
REMARK       I    between atoms: C_10  and  N_11 
REMARK    3  A    between atoms: N_11  and  C_12 
REMARK    4  A    between atoms: C_12  and  C_13 
REMARK    5  A    between atoms: C_13  and  C_14 
REMARK    6  A    between atoms: C_14  and  C_15 
REMARK    7  A    between atoms: C_15  and  O_16 
REMARK    8  A    between atoms: O_16  and  C_17 
ROOT
HETATM    1  C   UNL     1      41.323 -16.140   0.534  1.00  0.00     0.270 C 
HETATM    2  N   UNL     1      41.660 -15.577  -0.670  1.00  0.00    -0.345 N 
HETATM    3  O   UNL     1      40.272 -15.886   1.111  1.00  0.00    -0.266 OA
HETATM    4  H   UNL     1      42.480 -15.897  -1.162  1.00  0.00     0.163 HD
ENDROOT
BRANCH   2   5
HETATM    5  C   UNL     1      40.761 -14.685  -1.353  1.00  0.00     0.217 C 
BRANCH   5   6
HETATM    6  C   UNL     1      40.568 -13.443  -0.498  1.00  0.00    -0.085 C 
BRANCH   6   7
HETATM    7  C   UNL     1      40.402 -12.378   0.234  1.00  0.00    -0.078 C 
BRANCH   7   8
HETATM    8  C   UNL     1      40.208 -11.135   1.088  1.00  0.00     0.269 C 
BRANCH   8   9
HETATM    9  O   UNL     1      41.127 -11.187   2.176  1.00  0.00    -0.339 OA
BRANCH   9  10
HETATM   10  C   UNL     1      41.176 -12.352   2.891  1.00  0.00     0.072 A 
HETATM   11  C   UNL     1      42.285 -13.190   3.024  1.00  0.00     0.069 A 
HETATM   12  C   UNL     1      42.230 -14.361   3.772  1.00  0.00     0.069 A 
HETATM   13  C   UNL     1      41.017 -14.698   4.410  1.00  0.00    -0.007 A 
HETATM   14  N   UNL     1      43.327 -15.133   3.864  1.00  0.00    -0.260 NA
HETATM   15  C   UNL     1      39.900 -13.859   4.285  1.00  0.00     0.016 A 
HETATM   16  C   UNL     1      40.973 -15.880   5.159  1.00  0.00     0.015 A 
HETATM   17  C   UNL     1      39.984 -12.693   3.528  1.00  0.00     0.038 A 
HETATM   18  C   UNL     1      42.105 -16.680   5.254  1.00  0.00     0.020 A 
HETATM   19  C   UNL     1      43.246 -16.267   4.595  1.00  0.00     0.117 A 
ENDBRANCH   9  10
ENDBRANCH   8   9
ENDBRANCH   7   8
ENDBRANCH   6   7
ENDBRANCH   5   6
ENDBRANCH   2   5
BRANCH   1  20
HETATM   20  C   UNL     1      42.288 -17.067   1.061  1.00  0.00     0.120 A 
HETATM   21  N   UNL     1      43.632 -16.850   0.950  1.00  0.00    -0.272 N 
HETATM   22  N   UNL     1      44.393 -17.795   1.524  1.00  0.00    -0.174 NA
HETATM   23  H   UNL     1      44.085 -16.059   0.502  1.00  0.00     0.189 HD
HETATM   24  C   UNL     1      43.516 -18.694   1.998  1.00  0.00     0.089 A 
HETATM   25  C   UNL     1      42.184 -18.271   1.729  1.00  0.00     0.071 A 
BRANCH  24  26
HETATM   26  C   UNL     1      43.950 -19.906   2.699  1.00  0.00    -0.006 A 
HETATM   27  C   UNL     1      43.940 -21.146   2.045  1.00  0.00     0.014 A 
HETATM   28  C   UNL     1      44.371 -22.304   2.699  1.00  0.00     0.001 A 
HETATM   29  C   UNL     1      44.812 -22.235   4.018  1.00  0.00     0.000 A 
HETATM   30  C   UNL     1      44.819 -21.012   4.685  1.00  0.00     0.001 A 
HETATM   31  C   UNL     1      44.392 -19.854   4.030  1.00  0.00     0.014 A 
ENDBRANCH  24  26
ENDBRANCH   1  20
TORSDOF 8
ENDMDL
MODEL 9
REMARK VINA RESULT:      -8.5      2.977      3.305
REMARK  8 active torsions:
REMARK  status: ('A' for Active; 'I' for Inactive)
REMARK    1  A    between atoms: C_4  and  C_5 
REMARK    2  A    between atoms: C_9  and  C_10 
REMARK       I    between atoms: C_10  and  N_11 
REMARK    3  A    between atoms: N_11  and  C_12 
REMARK    4  A    between atoms: C_12  and  C_13 
REMARK    5  A    between atoms: C_13  and  C_14 
REMARK    6  A    between atoms: C_14  and  C_15 
REMARK    7  A    between atoms: C_15  and  O_16 
REMARK    8  A    between atoms: O_16  and  C_17 
ROOT
HETATM    1  C   UNL     1      39.507 -11.105   7.586  1.00  0.00     0.270 C 
HETATM    2  N   UNL     1      39.784 -12.424   7.337  1.00  0.00    -0.345 N 
HETATM    3  O   UNL     1      39.059 -10.351   6.730  1.00  0.00    -0.266 OA
HETATM    4  H   UNL     1      40.045 -13.035   8.095  1.00  0.00     0.163 HD
ENDROOT
BRANCH   2   5
HETATM    5  C   UNL     1      39.510 -13.013   6.053  1.00  0.00     0.217 C 
BRANCH   5   6
HETATM    6  C   UNL     1      40.358 -14.267   5.904  1.00  0.00    -0.085 C 
BRANCH   6   7
HETATM    7  C   UNL     1      41.086 -15.340   5.777  1.00  0.00    -0.078 C 
BRANCH   7   8
HETATM    8  C   UNL     1      41.935 -16.593   5.628  1.00  0.00     0.269 C 
BRANCH   8   9
HETATM    9  O   UNL     1      42.614 -16.532   4.377  1.00  0.00    -0.339 OA
BRANCH   9  10
HETATM   10  C   UNL     1      42.965 -17.723   3.804  1.00  0.00     0.072 A 
HETATM   11  C   UNL     1      43.608 -18.786   4.443  1.00  0.00     0.069 A 
HETATM   12  C   UNL     1      43.927 -19.958   3.766  1.00  0.00     0.069 A 
HETATM   13  C   UNL     1      43.586 -20.065   2.401  1.00  0.00    -0.007 A 
HETATM   14  N   UNL     1      44.549 -20.949   4.429  1.00  0.00    -0.260 NA
HETATM   15  C   UNL     1      42.936 -19.004   1.753  1.00  0.00     0.016 A 
HETATM   16  C   UNL     1      43.914 -21.249   1.730  1.00  0.00     0.015 A 
HETATM   17  C   UNL     1      42.629 -17.840   2.456  1.00  0.00     0.038 A 
HETATM   18  C   UNL     1      44.558 -22.274   2.412  1.00  0.00     0.020 A 
HETATM   19  C   UNL     1      44.850 -22.077   3.749  1.00  0.00     0.117 A 
ENDBRANCH   9  10
ENDBRANCH   8   9
ENDBRANCH   7   8
ENDBRANCH   6   7
ENDBRANCH   5   6
ENDBRANCH   2   5
BRANCH   1  20
HETATM   20  C   UNL     1      39.763 -10.676   8.934  1.00  0.00     0.120 A 
HETATM   21  N   UNL     1      38.765 -10.220   9.748  1.00  0.00    -0.272 N 
HETATM   22  N   UNL     1      39.167  -9.890  10.984  1.00  0.00    -0.174 NA
HETATM   23  H   UNL     1      37.781 -10.129   9.510  1.00  0.00     0.189 HD
HETATM   24  C   UNL     1      40.494 -10.098  10.975  1.00  0.00     0.089 A 
HETATM   25  C   UNL     1      40.905 -10.592   9.706  1.00  0.00     0.071 A 
BRANCH  24  26
HETATM   26  C   UNL     1      41.327  -9.843  12.154  1.00  0.00    -0.006 A 
HETATM   27  C   UNL     1      40.740  -9.691  13.418  1.00  0.00     0.014 A 
HETATM   28  C   UNL     1      41.529  -9.466  14.550  1.00  0.00     0.001 A 
HETATM   29  C   UNL     1      42.914  -9.385  14.429  1.00  0.00     0.000 A 
HETATM   30  C   UNL     1      43.511  -9.524  13.179  1.00  0.00     0.001 A 
HETATM   31  C   UNL     1      42.723  -9.752  12.047  1.00  0.00     0.014 A 
ENDBRANCH  24  26
ENDBRANCH   1  20
TORSDOF 8
ENDMDL
MODEL 10
REMARK VINA RESULT:      -8.0      6.850     10.995
REMARK  8 active torsions:
REMARK  status: ('A' for Active; 'I' for Inactive)
REMARK    1  A    between atoms: C_4  and  C_5 
REMARK    2  A    between atoms: C_9  and  C_10 
REMARK       I    between atoms: C_10  and  N_11 
REMARK    3  A    between atoms: N_11  and  C_12 
REMARK    4  A    between atoms: C_12  and  C_13 
REMARK    5  A    between atoms: C_13  and  C_14 
REMARK    6  A    between atoms: C_14  and  C_15 
REMARK    7  A    between atoms: C_15  and  O_16 
REMARK    8  A    between atoms: O_16  and  C_17 
ROOT
HETATM    1  C   UNL     1      41.855 -15.387   4.656  1.00  0.00     0.270 C 
HETATM    2  N   UNL     1      40.787 -14.919   3.935  1.00  0.00    -0.345 N 
HETATM    3  O   UNL     1      42.179 -14.914   5.740  1.00  0.00    -0.266 OA
HETATM    4  H   UNL     1      40.489 -15.406   3.105  1.00  0.00     0.163 HD
ENDROOT
BRANCH   2   5
HETATM    5  C   UNL     1      39.948 -13.867   4.445  1.00  0.00     0.217 C 
BRANCH   5   6
HETATM    6  C   UNL     1      39.504 -12.994   3.282  1.00  0.00    -0.085 C 
BRANCH   6   7
HETATM    7  C   UNL     1      39.124 -12.245   2.286  1.00  0.00    -0.078 C 
BRANCH   7   8
HETATM    8  C   UNL     1      38.680 -11.372   1.123  1.00  0.00     0.269 C 
BRANCH   8   9
HETATM    9  O   UNL     1      39.716 -11.365   0.143  1.00  0.00    -0.339 OA
BRANCH   9  10
HETATM   10  C   UNL     1      39.775 -12.438  -0.703  1.00  0.00     0.072 A 
HETATM   11  C   UNL     1      38.726 -12.930  -1.483  1.00  0.00     0.069 A 
HETATM   12  C   UNL     1      38.888 -14.036  -2.311  1.00  0.00     0.069 A 
HETATM   13  C   UNL     1      40.149 -14.667  -2.355  1.00  0.00    -0.007 A 
HETATM   14  N   UNL     1      37.844 -14.469  -3.038  1.00  0.00    -0.260 NA
HETATM   15  C   UNL     1      41.209 -14.177  -1.578  1.00  0.00     0.016 A 
HETATM   16  C   UNL     1      40.300 -15.781  -3.190  1.00  0.00     0.015 A 
HETATM   17  C   UNL     1      41.017 -13.067  -0.757  1.00  0.00     0.038 A 
HETATM   18  C   UNL     1      39.222 -16.231  -3.942  1.00  0.00     0.020 A 
HETATM   19  C   UNL     1      38.026 -15.547  -3.832  1.00  0.00     0.117 A 
ENDBRANCH   9  10
ENDBRANCH   8   9
ENDBRANCH   7   8
ENDBRANCH   6   7
ENDBRANCH   5   6
ENDBRANCH   2   5
BRANCH   1  20
HETATM   20  C   UNL     1      42.557 -16.488   4.055  1.00  0.00     0.120 A 
HETATM   21  N   UNL     1      43.392 -16.314   2.988  1.00  0.00    -0.272 N 
HETATM   22  N   UNL     1      43.994 -17.437   2.568  1.00  0.00    -0.174 NA
HETATM   23  H   UNL     1      43.601 -15.439   2.515  1.00  0.00     0.189 HD
HETATM   24  C   UNL     1      43.505 -18.401   3.365  1.00  0.00     0.089 A 
HETATM   25  C   UNL     1      42.600 -17.844   4.312  1.00  0.00     0.071 A 
BRANCH  24  26
HETATM   26  C   UNL     1      43.909 -19.803   3.225  1.00  0.00    -0.006 A 
HETATM   27  C   UNL     1      44.455 -20.497   4.314  1.00  0.00     0.014 A 
HETATM   28  C   UNL     1      44.825 -21.839   4.195  1.00  0.00     0.001 A 
HETATM   29  C   UNL     1      44.658 -22.502   2.981  1.00  0.00     0.000 A 
HETATM   30  C   UNL     1      44.126 -21.824   1.887  1.00  0.00     0.001 A 
HETATM   31  C   UNL     1      43.752 -20.483   2.007  1.00  0.00     0.014 A 
ENDBRANCH  24  26
ENDBRANCH   1  20
TORSDOF 8
ENDMDL
