MODEL 1
REMARK VINA RESULT:      -8.6      0.000      0.000
REMARK  7 active torsions:
REMARK  status: ('A' for Active; 'I' for Inactive)
REMARK    1  A    between atoms: O_2  and  C_3 
REMARK    2  A    between atoms: C_3  and  C_4 
REMARK    3  A    between atoms: C_8  and  C_9 
REMARK    4  A    between atoms: C_9  and  N_10 
REMARK    5  A    between atoms: C_13  and  C_14 
REMARK    6  A    between atoms: C_14  and  N_15 
REMARK       I    between atoms: N_15  and  C_16 
REMARK       I    between atoms: C_16  and  N_17 
REMARK    7  A    between atoms: N_17  and  C_18 
ROOT
HETATM    1  N   UNL     1      41.691 -13.915   2.915  1.00  0.00    -0.067 N 
HETATM    2  H   UNL     1      41.618 -14.951   2.827  1.00  0.00     0.280 HD
HETATM    3  C   UNL     1      42.760 -13.658   3.943  1.00  0.00     0.241 C 
HETATM    4  C   UNL     1      42.345 -14.118   5.346  1.00  0.00     0.029 C 
HETATM    5  C   UNL     1      41.013 -13.457   5.727  1.00  0.00     0.009 C 
HETATM    6  C   UNL     1      39.930 -13.729   4.686  1.00  0.00     0.028 C 
HETATM    7  C   UNL     1      40.359 -13.323   3.286  1.00  0.00     0.235 C 
ENDROOT
BRANCH   4   8
HETATM    8  C   UNL     1      42.262 -15.642   5.571  1.00  0.00     0.130 C 
BRANCH   8   9
HETATM    9  N   UNL     1      43.213 -16.417   4.804  1.00  0.00    -0.342 N 
HETATM   10  C   UNL     1      42.985 -17.769   4.612  1.00  0.00     0.320 C 
HETATM   11  N   UNL     1      44.060 -18.374   4.012  1.00  0.00    -0.309 N 
HETATM   12  O   UNL     1      41.908 -18.271   4.920  1.00  0.00    -0.247 OA
HETATM   13  H   UNL     1      44.764 -17.754   3.634  1.00  0.00     0.170 HD
HETATM   14  H   UNL     1      44.188 -16.165   4.921  1.00  0.00     0.164 HD
BRANCH  11  15
HETATM   15  C   UNL     1      44.235 -19.745   3.738  1.00  0.00     0.039 A 
HETATM   16  C   UNL     1      44.010 -20.319   2.489  1.00  0.00     0.071 A 
HETATM   17  C   UNL     1      44.223 -21.684   2.306  1.00  0.00     0.118 A 
HETATM   18  F   UNL     1      44.040 -22.217   1.091  1.00  0.00    -0.206 F 
HETATM   19  C   UNL     1      44.639 -22.498   3.352  1.00  0.00     0.042 A 
HETATM   20  C   UNL     1      44.845 -21.937   4.608  1.00  0.00     0.005 A 
HETATM   21  C   UNL     1      44.645 -20.565   4.799  1.00  0.00     0.030 A 
ENDBRANCH  11  15
ENDBRANCH   8   9
ENDBRANCH   4   8
BRANCH   1  22
HETATM   22  C   UNL     1      42.096 -13.439   1.529  1.00  0.00     0.274 C 
BRANCH  22  23
HETATM   23  C   UNL     1      41.704 -14.350   0.420  1.00  0.00    -0.015 A 
HETATM   24  C   UNL     1      41.658 -15.731   0.464  1.00  0.00     0.097 A 
HETATM   25  N   UNL     1      41.264 -16.195  -0.765  1.00  0.00    -0.360 N 
HETATM   26  C   UNL     1      41.083 -15.139  -1.628  1.00  0.00     0.108 A 
HETATM   27  H   UNL     1      41.169 -17.170  -1.030  1.00  0.00     0.165 HD
HETATM   28  C   UNL     1      41.292 -13.985  -0.893  1.00  0.00     0.046 A 
BRANCH  26  29
HETATM   29  C   UNL     1      40.758 -15.261  -3.030  1.00  0.00     0.309 C 
HETATM   30  O   UNL     1      41.134 -14.494  -3.904  1.00  0.00    -0.258 OA
BRANCH  29  31
HETATM   31  O   UNL     1      40.000 -16.375  -3.228  1.00  0.00    -0.321 OA
HETATM   32  C   UNL     1      38.999 -16.217  -4.233  1.00  0.00     0.213 C 
ENDBRANCH  29  31
ENDBRANCH  26  29
ENDBRANCH  22  23
ENDBRANCH   1  22
TORSDOF 7
ENDMDL
MODEL 2
REMARK VINA RESULT:      -8.3      2.727      6.361
REMARK  7 active torsions:
REMARK  status: ('A' for Active; 'I' for Inactive)
REMARK    1  A    between atoms: O_2  and  C_3 
REMARK    2  A    between atoms: C_3  and  C_4 
REMARK    3  A    between atoms: C_8  and  C_9 
REMARK    4  A    between atoms: C_9  and  N_10 
REMARK    5  A    between atoms: C_13  and  C_14 
REMARK    6  A    between atoms: C_14  and  N_15 
REMARK       I    between atoms: N_15  and  C_16 
REMARK       I    between atoms: C_16  and  N_17 
REMARK    7  A    between atoms: N_17  and  C_18 
ROOT
HETATM    1  N   UNL     1      40.874 -14.074   3.040  1.00  0.00    -0.067 N 
HETATM    2  H   UNL     1      41.611 -14.784   2.841  1.00  0.00     0.280 HD
HETATM    3  C   UNL     1      39.686 -14.457   2.198  1.00  0.00     0.241 C 
HETATM    4  C   UNL     1      39.956 -14.295   0.697  1.00  0.00     0.029 C 
HETATM    5  C   UNL     1      40.421 -12.859   0.414  1.00  0.00     0.009 C 
HETATM    6  C   UNL     1      41.631 -12.480   1.264  1.00  0.00     0.028 C 
HETATM    7  C   UNL     1      41.384 -12.691   2.749  1.00  0.00     0.235 C 
ENDROOT
BRANCH   4   8
HETATM    8  C   UNL     1      40.939 -15.301   0.064  1.00  0.00     0.130 C 
BRANCH   8   9
HETATM    9  N   UNL     1      40.978 -16.594   0.713  1.00  0.00    -0.342 N 
HETATM   10  C   UNL     1      42.084 -16.937   1.471  1.00  0.00     0.320 C 
HETATM   11  N   UNL     1      42.026 -18.249   1.869  1.00  0.00    -0.309 N 
HETATM   12  O   UNL     1      42.935 -16.098   1.751  1.00  0.00    -0.247 OA
HETATM   13  H   UNL     1      41.141 -18.718   1.728  1.00  0.00     0.170 HD
HETATM   14  H   UNL     1      40.566 -17.363   0.195  1.00  0.00     0.164 HD
BRANCH  11  15
HETATM   15  C   UNL     1      43.004 -18.979   2.575  1.00  0.00     0.039 A 
HETATM   16  C   UNL     1      43.491 -18.610   3.826  1.00  0.00     0.071 A 
HETATM   17  C   UNL     1      44.448 -19.402   4.457  1.00  0.00     0.118 A 
HETATM   18  F   UNL     1      44.881 -19.059   5.677  1.00  0.00    -0.206 F 
HETATM   19  C   UNL     1      44.949 -20.550   3.855  1.00  0.00     0.042 A 
HETATM   20  C   UNL     1      44.484 -20.913   2.595  1.00  0.00     0.005 A 
HETATM   21  C   UNL     1      43.515 -20.131   1.958  1.00  0.00     0.030 A 
ENDBRANCH  11  15
ENDBRANCH   8   9
ENDBRANCH   4   8
BRANCH   1  22
HETATM   22  C   UNL     1      40.596 -14.216   4.528  1.00  0.00     0.274 C 
BRANCH  22  23
HETATM   23  C   UNL     1      41.797 -14.505   5.359  1.00  0.00    -0.015 A 
HETATM   24  C   UNL     1      42.062 -15.673   6.048  1.00  0.00     0.097 A 
HETATM   25  N   UNL     1      43.259 -15.533   6.701  1.00  0.00    -0.360 N 
HETATM   26  C   UNL     1      43.770 -14.275   6.479  1.00  0.00     0.108 A 
HETATM   27  H   UNL     1      43.691 -16.224   7.306  1.00  0.00     0.165 HD
HETATM   28  C   UNL     1      42.906 -13.646   5.600  1.00  0.00     0.046 A 
BRANCH  26  29
HETATM   29  C   UNL     1      44.970 -13.750   7.086  1.00  0.00     0.309 C 
HETATM   30  O   UNL     1      45.984 -13.440   6.476  1.00  0.00    -0.258 OA
BRANCH  29  31
HETATM   31  O   UNL     1      44.786 -13.623   8.429  1.00  0.00    -0.321 OA
HETATM   32  C   UNL     1      44.617 -12.272   8.860  1.00  0.00     0.213 C 
ENDBRANCH  29  31
ENDBRANCH  26  29
ENDBRANCH  22  23
ENDBRANCH   1  22
TORSDOF 7
ENDMDL
MODEL 3
REMARK VINA RESULT:      -7.9      2.807      6.001
REMARK  7 active torsions:
REMARK  status: ('A' for Active; 'I' for Inactive)
REMARK    1  A    between atoms: O_2  and  C_3 
REMARK    2  A    between atoms: C_3  and  C_4 
REMARK    3  A    between atoms: C_8  and  C_9 
REMARK    4  A    between atoms: C_9  and  N_10 
REMARK    5  A    between atoms: C_13  and  C_14 
REMARK    6  A    between atoms: C_14  and  N_15 
REMARK       I    between atoms: N_15  and  C_16 
REMARK       I    between atoms: C_16  and  N_17 
REMARK    7  A    between atoms: N_17  and  C_18 
ROOT
HETATM    1  N   UNL     1      41.125 -13.903   4.011  1.00  0.00    -0.067 N 
HETATM    2  H   UNL     1      42.034 -13.860   3.503  1.00  0.00     0.280 HD
HETATM    3  C   UNL     1      40.600 -15.300   3.811  1.00  0.00     0.241 C 
HETATM    4  C   UNL     1      40.219 -15.578   2.351  1.00  0.00     0.029 C 
HETATM    5  C   UNL     1      39.219 -14.516   1.873  1.00  0.00     0.009 C 
HETATM    6  C   UNL     1      39.760 -13.102   2.070  1.00  0.00     0.028 C 
HETATM    7  C   UNL     1      40.188 -12.841   3.505  1.00  0.00     0.235 C 
ENDROOT
BRANCH   4   8
HETATM    8  C   UNL     1      41.386 -15.694   1.348  1.00  0.00     0.130 C 
BRANCH   8   9
HETATM    9  N   UNL     1      42.549 -16.391   1.854  1.00  0.00    -0.342 N 
HETATM   10  C   UNL     1      42.562 -17.774   1.852  1.00  0.00     0.320 C 
HETATM   11  N   UNL     1      43.661 -18.262   2.515  1.00  0.00    -0.309 N 
HETATM   12  O   UNL     1      41.691 -18.407   1.262  1.00  0.00    -0.247 OA
HETATM   13  H   UNL     1      44.379 -17.586   2.740  1.00  0.00     0.170 HD
HETATM   14  H   UNL     1      43.009 -15.964   2.651  1.00  0.00     0.164 HD
BRANCH  11  15
HETATM   15  C   UNL     1      43.970 -19.608   2.795  1.00  0.00     0.039 A 
HETATM   16  C   UNL     1      44.518 -20.040   4.000  1.00  0.00     0.071 A 
HETATM   17  C   UNL     1      44.778 -21.395   4.195  1.00  0.00     0.118 A 
HETATM   18  F   UNL     1      45.269 -21.804   5.372  1.00  0.00    -0.206 F 
HETATM   19  C   UNL     1      44.520 -22.332   3.201  1.00  0.00     0.042 A 
HETATM   20  C   UNL     1      43.994 -21.905   1.987  1.00  0.00     0.005 A 
HETATM   21  C   UNL     1      43.719 -20.549   1.785  1.00  0.00     0.030 A 
ENDBRANCH  11  15
ENDBRANCH   8   9
ENDBRANCH   4   8
BRANCH   1  22
HETATM   22  C   UNL     1      41.482 -13.623   5.462  1.00  0.00     0.274 C 
BRANCH  22  23
HETATM   23  C   UNL     1      42.630 -14.414   5.983  1.00  0.00    -0.015 A 
HETATM   24  C   UNL     1      43.878 -13.930   6.326  1.00  0.00     0.097 A 
HETATM   25  N   UNL     1      44.654 -14.979   6.745  1.00  0.00    -0.360 N 
HETATM   26  C   UNL     1      43.945 -16.155   6.649  1.00  0.00     0.108 A 
HETATM   27  H   UNL     1      45.625 -14.923   7.033  1.00  0.00     0.165 HD
HETATM   28  C   UNL     1      42.668 -15.815   6.236  1.00  0.00     0.046 A 
BRANCH  26  29
HETATM   29  C   UNL     1      44.479 -17.469   6.919  1.00  0.00     0.309 C 
HETATM   30  O   UNL     1      45.579 -17.863   6.560  1.00  0.00    -0.258 OA
BRANCH  29  31
HETATM   31  O   UNL     1      43.585 -18.183   7.657  1.00  0.00    -0.321 OA
HETATM   32  C   UNL     1      43.790 -19.594   7.599  1.00  0.00     0.213 C 
ENDBRANCH  29  31
ENDBRANCH  26  29
ENDBRANCH  22  23
ENDBRANCH   1  22
TORSDOF 7
ENDMDL
MODEL 4
REMARK VINA RESULT:      -7.7      1.822      2.144
REMARK  7 active torsions:
REMARK  status: ('A' for Active; 'I' for Inactive)
REMARK    1  A    between atoms: O_2  and  C_3 
REMARK    2  A    between atoms: C_3  and  C_4 
REMARK    3  A    between atoms: C_8  and  C_9 
REMARK    4  A    between atoms: C_9  and  N_10 
REMARK    5  A    between atoms: C_13  and  C_14 
REMARK    6  A    between atoms: C_14  and  N_15 
REMARK       I    between atoms: N_15  and  C_16 
REMARK       I    between atoms: C_16  and  N_17 
REMARK    7  A    between atoms: N_17  and  C_18 
ROOT
HETATM    1  N   UNL     1      42.115 -15.639   3.449  1.00  0.00    -0.067 N 
HETATM    2  H   UNL     1      42.306 -16.610   3.776  1.00  0.00     0.280 HD
HETATM    3  C   UNL     1      43.064 -14.750   4.209  1.00  0.00     0.241 C 
HETATM    4  C   UNL     1      42.746 -14.702   5.709  1.00  0.00     0.029 C 
HETATM    5  C   UNL     1      41.283 -14.282   5.908  1.00  0.00     0.009 C 
HETATM    6  C   UNL     1      40.325 -15.193   5.143  1.00  0.00     0.028 C 
HETATM    7  C   UNL     1      40.671 -15.284   3.665  1.00  0.00     0.235 C 
ENDROOT
BRANCH   4   8
HETATM    8  C   UNL     1      43.041 -15.984   6.513  1.00  0.00     0.130 C 
BRANCH   8   9
HETATM    9  N   UNL     1      44.018 -16.864   5.909  1.00  0.00    -0.342 N 
HETATM   10  C   UNL     1      43.594 -18.038   5.312  1.00  0.00     0.320 C 
HETATM   11  N   UNL     1      44.658 -18.822   4.944  1.00  0.00    -0.309 N 
HETATM   12  O   UNL     1      42.399 -18.249   5.127  1.00  0.00    -0.247 OA
HETATM   13  H   UNL     1      45.567 -18.381   4.979  1.00  0.00     0.170 HD
HETATM   14  H   UNL     1      44.910 -16.931   6.386  1.00  0.00     0.164 HD
BRANCH  11  15
HETATM   15  C   UNL     1      44.623 -20.119   4.393  1.00  0.00     0.039 A 
HETATM   16  C   UNL     1      44.421 -20.379   3.039  1.00  0.00     0.071 A 
HETATM   17  C   UNL     1      44.417 -21.694   2.581  1.00  0.00     0.118 A 
HETATM   18  F   UNL     1      44.261 -21.930   1.272  1.00  0.00    -0.206 F 
HETATM   19  C   UNL     1      44.592 -22.764   3.451  1.00  0.00     0.042 A 
HETATM   20  C   UNL     1      44.771 -22.514   4.807  1.00  0.00     0.005 A 
HETATM   21  C   UNL     1      44.789 -21.196   5.275  1.00  0.00     0.030 A 
ENDBRANCH  11  15
ENDBRANCH   8   9
ENDBRANCH   4   8
BRANCH   1  22
HETATM   22  C   UNL     1      42.420 -15.668   1.960  1.00  0.00     0.274 C 
BRANCH  22  23
HETATM   23  C   UNL     1      41.658 -14.678   1.151  1.00  0.00    -0.015 A 
HETATM   24  C   UNL     1      41.875 -13.314   1.097  1.00  0.00     0.097 A 
HETATM   25  N   UNL     1      40.951 -12.757   0.251  1.00  0.00    -0.360 N 
HETATM   26  C   UNL     1      40.106 -13.732  -0.227  1.00  0.00     0.108 A 
HETATM   27  H   UNL     1      40.856 -11.769   0.040  1.00  0.00     0.165 HD
HETATM   28  C   UNL     1      40.567 -14.937   0.273  1.00  0.00     0.046 A 
BRANCH  26  29
HETATM   29  C   UNL     1      38.958 -13.493  -1.070  1.00  0.00     0.309 C 
HETATM   30  O   UNL     1      39.003 -13.003  -2.190  1.00  0.00    -0.258 OA
BRANCH  29  31
HETATM   31  O   UNL     1      37.831 -13.926  -0.442  1.00  0.00    -0.321 OA
HETATM   32  C   UNL     1      37.357 -13.035   0.567  1.00  0.00     0.213 C 
ENDBRANCH  29  31
ENDBRANCH  26  29
ENDBRANCH  22  23
ENDBRANCH   1  22
TORSDOF 7
ENDMDL
MODEL 5
REMARK VINA RESULT:      -7.6      4.679      8.614
REMARK  7 active torsions:
REMARK  status: ('A' for Active; 'I' for Inactive)
REMARK    1  A    between atoms: O_2  and  C_3 
REMARK    2  A    between atoms: C_3  and  C_4 
REMARK    3  A    between atoms: C_8  and  C_9 
REMARK    4  A    between atoms: C_9  and  N_10 
REMARK    5  A    between atoms: C_13  and  C_14 
REMARK    6  A    between atoms: C_14  and  N_15 
REMARK       I    between atoms: N_15  and  C_16 
REMARK       I    between atoms: C_16  and  N_17 
REMARK    7  A    between atoms: N_17  and  C_18 
ROOT
HETATM    1  N   UNL     1      40.410 -11.565   6.588  1.00  0.00    -0.067 N 
HETATM    2  H   UNL     1      41.340 -11.875   6.945  1.00  0.00     0.280 HD
HETATM    3  C   UNL     1      39.578 -12.813   6.451  1.00  0.00     0.241 C 
HETATM    4  C   UNL     1      40.101 -13.745   5.351  1.00  0.00     0.029 C 
HETATM    5  C   UNL     1      40.198 -12.972   4.029  1.00  0.00     0.009 C 
HETATM    6  C   UNL     1      41.050 -11.713   4.172  1.00  0.00     0.028 C 
HETATM    7  C   UNL     1      40.567 -10.812   5.296  1.00  0.00     0.235 C 
ENDROOT
BRANCH   4   8
HETATM    8  C   UNL     1      41.433 -14.466   5.640  1.00  0.00     0.130 C 
BRANCH   8   9
HETATM    9  N   UNL     1      41.996 -15.169   4.507  1.00  0.00    -0.342 N 
HETATM   10  C   UNL     1      42.220 -16.532   4.600  1.00  0.00     0.320 C 
HETATM   11  N   UNL     1      42.907 -16.998   3.507  1.00  0.00    -0.309 N 
HETATM   12  O   UNL     1      41.780 -17.174   5.548  1.00  0.00    -0.247 OA
HETATM   13  H   UNL     1      42.988 -16.358   2.728  1.00  0.00     0.170 HD
HETATM   14  H   UNL     1      42.692 -14.662   3.972  1.00  0.00     0.164 HD
BRANCH  11  15
HETATM   15  C   UNL     1      43.390 -18.303   3.286  1.00  0.00     0.039 A 
HETATM   16  C   UNL     1      44.290 -18.948   4.131  1.00  0.00     0.071 A 
HETATM   17  C   UNL     1      44.703 -20.247   3.841  1.00  0.00     0.118 A 
HETATM   18  F   UNL     1      45.538 -20.871   4.682  1.00  0.00    -0.206 F 
HETATM   19  C   UNL     1      44.250 -20.914   2.709  1.00  0.00     0.042 A 
HETATM   20  C   UNL     1      43.369 -20.269   1.848  1.00  0.00     0.005 A 
HETATM   21  C   UNL     1      42.940 -18.969   2.136  1.00  0.00     0.030 A 
ENDBRANCH  11  15
ENDBRANCH   8   9
ENDBRANCH   4   8
BRANCH   1  22
HETATM   22  C   UNL     1      39.878 -10.632   7.665  1.00  0.00     0.274 C 
BRANCH  22  23
HETATM   23  C   UNL     1      40.516 -10.796   8.999  1.00  0.00    -0.015 A 
HETATM   24  C   UNL     1      41.869 -10.751   9.278  1.00  0.00     0.097 A 
HETATM   25  N   UNL     1      42.046 -10.963  10.620  1.00  0.00    -0.360 N 
HETATM   26  C   UNL     1      40.830 -11.182  11.225  1.00  0.00     0.108 A 
HETATM   27  H   UNL     1      42.938 -11.010  11.103  1.00  0.00     0.165 HD
HETATM   28  C   UNL     1      39.866 -11.021  10.245  1.00  0.00     0.046 A 
BRANCH  26  29
HETATM   29  C   UNL     1      40.646 -11.529  12.614  1.00  0.00     0.309 C 
HETATM   30  O   UNL     1      39.859 -12.368  13.026  1.00  0.00    -0.258 OA
BRANCH  29  31
HETATM   31  O   UNL     1      41.504 -10.805  13.384  1.00  0.00    -0.321 OA
HETATM   32  C   UNL     1      41.037  -9.489  13.682  1.00  0.00     0.213 C 
ENDBRANCH  29  31
ENDBRANCH  26  29
ENDBRANCH  22  23
ENDBRANCH   1  22
TORSDOF 7
ENDMDL
MODEL 6
REMARK VINA RESULT:      -7.5      4.194      7.936
REMARK  7 active torsions:
REMARK  status: ('A' for Active; 'I' for Inactive)
REMARK    1  A    between atoms: O_2  and  C_3 
REMARK    2  A    between atoms: C_3  and  C_4 
REMARK    3  A    between atoms: C_8  and  C_9 
REMARK    4  A    between atoms: C_9  and  N_10 
REMARK    5  A    between atoms: C_13  and  C_14 
REMARK    6  A    between atoms: C_14  and  N_15 
REMARK       I    between atoms: N_15  and  C_16 
REMARK       I    between atoms: C_16  and  N_17 
REMARK    7  A    between atoms: N_17  and  C_18 
ROOT
HETATM    1  N   UNL     1      40.762 -12.555   5.782  1.00  0.00    -0.067 N 
HETATM    2  H   UNL     1      41.543 -12.794   6.431  1.00  0.00     0.280 HD
HETATM    3  C   UNL     1      40.026 -13.843   5.522  1.00  0.00     0.241 C 
HETATM    4  C   UNL     1      40.870 -14.848   4.727  1.00  0.00     0.029 C 
HETATM    5  C   UNL     1      41.355 -14.192   3.427  1.00  0.00     0.009 C 
HETATM    6  C   UNL     1      42.109 -12.892   3.698  1.00  0.00     0.028 C 
HETATM    7  C   UNL     1      41.295 -11.915   4.531  1.00  0.00     0.235 C 
ENDROOT
BRANCH   4   8
HETATM    8  C   UNL     1      42.060 -15.485   5.473  1.00  0.00     0.130 C 
BRANCH   8   9
HETATM    9  N   UNL     1      42.964 -16.241   4.633  1.00  0.00    -0.342 N 
HETATM   10  C   UNL     1      42.815 -17.614   4.542  1.00  0.00     0.320 C 
HETATM   11  N   UNL     1      43.850 -18.181   3.842  1.00  0.00    -0.309 N 
HETATM   12  O   UNL     1      41.824 -18.167   5.010  1.00  0.00    -0.247 OA
HETATM   13  H   UNL     1      44.454 -17.539   3.346  1.00  0.00     0.170 HD
HETATM   14  H   UNL     1      43.924 -15.917   4.612  1.00  0.00     0.164 HD
BRANCH  11  15
HETATM   15  C   UNL     1      44.091 -19.552   3.620  1.00  0.00     0.039 A 
HETATM   16  C   UNL     1      43.840 -20.194   2.409  1.00  0.00     0.071 A 
HETATM   17  C   UNL     1      44.123 -21.552   2.276  1.00  0.00     0.118 A 
HETATM   18  F   UNL     1      43.915 -22.150   1.096  1.00  0.00    -0.206 F 
HETATM   19  C   UNL     1      44.635 -22.292   3.335  1.00  0.00     0.042 A 
HETATM   20  C   UNL     1      44.867 -21.663   4.553  1.00  0.00     0.005 A 
HETATM   21  C   UNL     1      44.597 -20.297   4.694  1.00  0.00     0.030 A 
ENDBRANCH  11  15
ENDBRANCH   8   9
ENDBRANCH   4   8
BRANCH   1  22
HETATM   22  C   UNL     1      39.917 -11.553   6.552  1.00  0.00     0.274 C 
BRANCH  22  23
HETATM   23  C   UNL     1      40.509 -11.101   7.840  1.00  0.00    -0.015 A 
HETATM   24  C   UNL     1      41.810 -10.683   8.049  1.00  0.00     0.097 A 
HETATM   25  N   UNL     1      41.960 -10.368   9.374  1.00  0.00    -0.360 N 
HETATM   26  C   UNL     1      40.785 -10.605  10.049  1.00  0.00     0.108 A 
HETATM   27  H   UNL     1      42.818 -10.057   9.819  1.00  0.00     0.165 HD
HETATM   28  C   UNL     1      39.857 -11.002   9.102  1.00  0.00     0.046 A 
BRANCH  26  29
HETATM   29  C   UNL     1      40.607 -10.471  11.476  1.00  0.00     0.309 C 
HETATM   30  O   UNL     1      39.529 -10.324  12.035  1.00  0.00    -0.258 OA
BRANCH  29  31
HETATM   31  O   UNL     1      41.814 -10.567  12.098  1.00  0.00    -0.321 OA
HETATM   32  C   UNL     1      41.722 -10.636  13.521  1.00  0.00     0.213 C 
ENDBRANCH  29  31
ENDBRANCH  26  29
ENDBRANCH  22  23
ENDBRANCH   1  22
TORSDOF 7
ENDMDL
MODEL 7
REMARK VINA RESULT:      -7.5      1.720      2.062
REMARK  7 active torsions:
REMARK  status: ('A' for Active; 'I' for Inactive)
REMARK    1  A    between atoms: O_2  and  C_3 
REMARK    2  A    between atoms: C_3  and  C_4 
REMARK    3  A    between atoms: C_8  and  C_9 
REMARK    4  A    between atoms: C_9  and  N_10 
REMARK    5  A    between atoms: C_13  and  C_14 
REMARK    6  A    between atoms: C_14  and  N_15 
REMARK       I    between atoms: N_15  and  C_16 
REMARK       I    between atoms: C_16  and  N_17 
REMARK    7  A    between atoms: N_17  and  C_18 
ROOT
HETATM    1  N   UNL     1      39.809 -12.880   3.436  1.00  0.00    -0.067 N 
HETATM    2  H   UNL     1      39.437 -13.853   3.398  1.00  0.00     0.280 HD
HETATM    3  C   UNL     1      41.280 -12.983   3.131  1.00  0.00     0.241 C 
HETATM    4  C   UNL     1      42.055 -13.717   4.232  1.00  0.00     0.029 C 
HETATM    5  C   UNL     1      41.797 -13.034   5.581  1.00  0.00     0.009 C 
HETATM    6  C   UNL     1      40.304 -12.941   5.890  1.00  0.00     0.028 C 
HETATM    7  C   UNL     1      39.524 -12.262   4.777  1.00  0.00     0.235 C 
ENDROOT
BRANCH   4   8
HETATM    8  C   UNL     1      41.805 -15.234   4.351  1.00  0.00     0.130 C 
BRANCH   8   9
HETATM    9  N   UNL     1      42.838 -16.064   3.769  1.00  0.00    -0.342 N 
HETATM   10  C   UNL     1      42.674 -17.437   3.752  1.00  0.00     0.320 C 
HETATM   11  N   UNL     1      43.813 -18.070   3.321  1.00  0.00    -0.309 N 
HETATM   12  O   UNL     1      41.595 -17.941   4.050  1.00  0.00    -0.247 OA
HETATM   13  H   UNL     1      44.521 -17.476   2.911  1.00  0.00     0.170 HD
HETATM   14  H   UNL     1      43.792 -15.754   3.919  1.00  0.00     0.164 HD
BRANCH  11  15
HETATM   15  C   UNL     1      44.056 -19.456   3.254  1.00  0.00     0.039 A 
HETATM   16  C   UNL     1      43.802 -20.232   2.125  1.00  0.00     0.071 A 
HETATM   17  C   UNL     1      44.088 -21.596   2.145  1.00  0.00     0.118 A 
HETATM   18  F   UNL     1      43.876 -22.324   1.041  1.00  0.00    -0.206 F 
HETATM   19  C   UNL     1      44.606 -22.210   3.279  1.00  0.00     0.042 A 
HETATM   20  C   UNL     1      44.841 -21.447   4.417  1.00  0.00     0.005 A 
HETATM   21  C   UNL     1      44.568 -20.075   4.404  1.00  0.00     0.030 A 
ENDBRANCH  11  15
ENDBRANCH   8   9
ENDBRANCH   4   8
BRANCH   1  22
HETATM   22  C   UNL     1      39.045 -12.134   2.354  1.00  0.00     0.274 C 
BRANCH  22  23
HETATM   23  C   UNL     1      38.760 -12.934   1.132  1.00  0.00    -0.015 A 
HETATM   24  C   UNL     1      37.733 -13.843   0.961  1.00  0.00     0.097 A 
HETATM   25  N   UNL     1      37.827 -14.377  -0.298  1.00  0.00    -0.360 N 
HETATM   26  C   UNL     1      38.923 -13.857  -0.948  1.00  0.00     0.108 A 
HETATM   27  H   UNL     1      37.220 -15.091  -0.689  1.00  0.00     0.165 HD
HETATM   28  C   UNL     1      39.477 -12.916  -0.098  1.00  0.00     0.046 A 
BRANCH  26  29
HETATM   29  C   UNL     1      39.380 -14.262  -2.256  1.00  0.00     0.309 C 
HETATM   30  O   UNL     1      38.728 -14.163  -3.285  1.00  0.00    -0.258 OA
BRANCH  29  31
HETATM   31  O   UNL     1      40.653 -14.737  -2.169  1.00  0.00    -0.321 OA
HETATM   32  C   UNL     1      41.544 -14.168  -3.128  1.00  0.00     0.213 C 
ENDBRANCH  29  31
ENDBRANCH  26  29
ENDBRANCH  22  23
ENDBRANCH   1  22
TORSDOF 7
ENDMDL
MODEL 8
REMARK VINA RESULT:      -7.3      3.917      9.173
REMARK  7 active torsions:
REMARK  status: ('A' for Active; 'I' for Inactive)
REMARK    1  A    between atoms: O_2  and  C_3 
REMARK    2  A    between atoms: C_3  and  C_4 
REMARK    3  A    between atoms: C_8  and  C_9 
REMARK    4  A    between atoms: C_9  and  N_10 
REMARK    5  A    between atoms: C_13  and  C_14 
REMARK    6  A    between atoms: C_14  and  N_15 
REMARK       I    between atoms: N_15  and  C_16 
REMARK       I    between atoms: C_16  and  N_17 
REMARK    7  A    between atoms: N_17  and  C_18 
ROOT
HETATM    1  N   UNL     1      42.020 -17.309   3.550  1.00  0.00    -0.067 N 
HETATM    2  H   UNL     1      41.174 -17.621   3.026  1.00  0.00     0.280 HD
HETATM    3  C   UNL     1      42.562 -16.121   2.801  1.00  0.00     0.241 C 
HETATM    4  C   UNL     1      43.106 -16.500   1.418  1.00  0.00     0.029 C 
HETATM    5  C   UNL     1      44.155 -17.609   1.569  1.00  0.00     0.009 C 
HETATM    6  C   UNL     1      43.598 -18.816   2.321  1.00  0.00     0.028 C 
HETATM    7  C   UNL     1      43.009 -18.435   3.669  1.00  0.00     0.235 C 
ENDROOT
BRANCH   4   8
HETATM    8  C   UNL     1      42.061 -16.902   0.357  1.00  0.00     0.130 C 
BRANCH   8   9
HETATM    9  N   UNL     1      40.878 -16.069   0.329  1.00  0.00    -0.342 N 
HETATM   10  C   UNL     1      40.588 -15.344  -0.813  1.00  0.00     0.320 C 
HETATM   11  N   UNL     1      39.534 -14.489  -0.605  1.00  0.00    -0.309 N 
HETATM   12  O   UNL     1      41.209 -15.541  -1.853  1.00  0.00    -0.247 OA
HETATM   13  H   UNL     1      39.011 -14.629   0.249  1.00  0.00     0.170 HD
HETATM   14  H   UNL     1      40.646 -15.601   1.198  1.00  0.00     0.164 HD
BRANCH  11  15
HETATM   15  C   UNL     1      39.011 -13.534  -1.499  1.00  0.00     0.039 A 
HETATM   16  C   UNL     1      39.452 -12.215  -1.567  1.00  0.00     0.071 A 
HETATM   17  C   UNL     1      38.885 -11.343  -2.494  1.00  0.00     0.118 A 
HETATM   18  F   UNL     1      39.344 -10.087  -2.577  1.00  0.00    -0.206 F 
HETATM   19  C   UNL     1      37.868 -11.754  -3.348  1.00  0.00     0.042 A 
HETATM   20  C   UNL     1      37.407 -13.064  -3.271  1.00  0.00     0.005 A 
HETATM   21  C   UNL     1      37.977 -13.951  -2.351  1.00  0.00     0.030 A 
ENDBRANCH  11  15
ENDBRANCH   8   9
ENDBRANCH   4   8
BRANCH   1  22
HETATM   22  C   UNL     1      41.500 -16.935   4.929  1.00  0.00     0.274 C 
BRANCH  22  23
HETATM   23  C   UNL     1      42.161 -15.749   5.540  1.00  0.00    -0.015 A 
HETATM   24  C   UNL     1      41.605 -14.497   5.722  1.00  0.00     0.097 A 
HETATM   25  N   UNL     1      42.543 -13.682   6.302  1.00  0.00    -0.360 N 
HETATM   26  C   UNL     1      43.721 -14.372   6.474  1.00  0.00     0.108 A 
HETATM   27  H   UNL     1      42.420 -12.700   6.527  1.00  0.00     0.165 HD
HETATM   28  C   UNL     1      43.483 -15.672   6.063  1.00  0.00     0.046 A 
BRANCH  26  29
HETATM   29  C   UNL     1      44.950 -13.801   6.972  1.00  0.00     0.309 C 
HETATM   30  O   UNL     1      45.918 -13.516   6.282  1.00  0.00    -0.258 OA
BRANCH  29  31
HETATM   31  O   UNL     1      44.850 -13.600   8.314  1.00  0.00    -0.321 OA
HETATM   32  C   UNL     1      45.574 -12.462   8.781  1.00  0.00     0.213 C 
ENDBRANCH  29  31
ENDBRANCH  26  29
ENDBRANCH  22  23
ENDBRANCH   1  22
TORSDOF 7
ENDMDL
MODEL 9
REMARK VINA RESULT:      -7.2      3.107      5.765
REMARK  7 active torsions:
REMARK  status: ('A' for Active; 'I' for Inactive)
REMARK    1  A    between atoms: O_2  and  C_3 
REMARK    2  A    between atoms: C_3  and  C_4 
REMARK    3  A    between atoms: C_8  and  C_9 
REMARK    4  A    between atoms: C_9  and  N_10 
REMARK    5  A    between atoms: C_13  and  C_14 
REMARK    6  A    between atoms: C_14  and  N_15 
REMARK       I    between atoms: N_15  and  C_16 
REMARK       I    between atoms: C_16  and  N_17 
REMARK    7  A    between atoms: N_17  and  C_18 
ROOT
HETATM    1  N   UNL     1      40.724 -14.253   0.345  1.00  0.00    -0.067 N 
HETATM    2  H   UNL     1      40.909 -14.284   1.371  1.00  0.00     0.280 HD
HETATM    3  C   UNL     1      41.451 -13.041  -0.174  1.00  0.00     0.241 C 
HETATM    4  C   UNL     1      40.849 -11.730   0.348  1.00  0.00     0.029 C 
HETATM    5  C   UNL     1      39.352 -11.687   0.014  1.00  0.00     0.009 C 
HETATM    6  C   UNL     1      38.618 -12.914   0.551  1.00  0.00     0.028 C 
HETATM    7  C   UNL     1      39.245 -14.215   0.079  1.00  0.00     0.235 C 
ENDROOT
BRANCH   4   8
HETATM    8  C   UNL     1      41.065 -11.424   1.844  1.00  0.00     0.130 C 
BRANCH   8   9
HETATM    9  N   UNL     1      42.223 -12.065   2.429  1.00  0.00    -0.342 N 
HETATM   10  C   UNL     1      42.040 -13.081   3.351  1.00  0.00     0.320 C 
HETATM   11  N   UNL     1      43.231 -13.455   3.922  1.00  0.00    -0.309 N 
HETATM   12  O   UNL     1      40.927 -13.565   3.535  1.00  0.00    -0.247 OA
HETATM   13  H   UNL     1      44.067 -13.094   3.482  1.00  0.00     0.170 HD
HETATM   14  H   UNL     1      43.017 -11.462   2.616  1.00  0.00     0.164 HD
BRANCH  11  15
HETATM   15  C   UNL     1      43.434 -14.388   4.959  1.00  0.00     0.039 A 
HETATM   16  C   UNL     1      42.971 -15.700   4.919  1.00  0.00     0.071 A 
HETATM   17  C   UNL     1      43.232 -16.558   5.986  1.00  0.00     0.118 A 
HETATM   18  F   UNL     1      42.815 -17.830   5.920  1.00  0.00    -0.206 F 
HETATM   19  C   UNL     1      43.932 -16.128   7.106  1.00  0.00     0.042 A 
HETATM   20  C   UNL     1      44.378 -14.812   7.163  1.00  0.00     0.005 A 
HETATM   21  C   UNL     1      44.131 -13.946   6.093  1.00  0.00     0.030 A 
ENDBRANCH  11  15
ENDBRANCH   8   9
ENDBRANCH   4   8
BRANCH   1  22
HETATM   22  C   UNL     1      41.309 -15.551  -0.190  1.00  0.00     0.274 C 
BRANCH  22  23
HETATM   23  C   UNL     1      41.625 -16.565   0.852  1.00  0.00    -0.015 A 
HETATM   24  C   UNL     1      40.911 -16.809   2.010  1.00  0.00     0.097 A 
HETATM   25  N   UNL     1      41.538 -17.808   2.708  1.00  0.00    -0.360 N 
HETATM   26  C   UNL     1      42.676 -18.203   2.043  1.00  0.00     0.108 A 
HETATM   27  H   UNL     1      41.250 -18.176   3.610  1.00  0.00     0.165 HD
HETATM   28  C   UNL     1      42.712 -17.485   0.860  1.00  0.00     0.046 A 
BRANCH  26  29
HETATM   29  C   UNL     1      43.630 -19.169   2.533  1.00  0.00     0.309 C 
HETATM   30  O   UNL     1      44.285 -19.046   3.558  1.00  0.00    -0.258 OA
BRANCH  29  31
HETATM   31  O   UNL     1      43.660 -20.245   1.700  1.00  0.00    -0.321 OA
HETATM   32  C   UNL     1      44.206 -21.420   2.299  1.00  0.00     0.213 C 
ENDBRANCH  29  31
ENDBRANCH  26  29
ENDBRANCH  22  23
ENDBRANCH   1  22
TORSDOF 7
ENDMDL
MODEL 10
REMARK VINA RESULT:      -7.2      3.583      4.600
REMARK  7 active torsions:
REMARK  status: ('A' for Active; 'I' for Inactive)
REMARK    1  A    between atoms: O_2  and  C_3 
REMARK    2  A    between atoms: C_3  and  C_4 
REMARK    3  A    between atoms: C_8  and  C_9 
REMARK    4  A    between atoms: C_9  and  N_10 
REMARK    5  A    between atoms: C_13  and  C_14 
REMARK    6  A    between atoms: C_14  and  N_15 
REMARK       I    between atoms: N_15  and  C_16 
REMARK       I    between atoms: C_16  and  N_17 
REMARK    7  A    between atoms: N_17  and  C_18 
ROOT
HETATM    1  N   UNL     1      39.067 -13.748  -0.905  1.00  0.00    -0.067 N 
HETATM    2  H   UNL     1      38.750 -14.742  -0.908  1.00  0.00     0.280 HD
HETATM    3  C   UNL     1      40.214 -13.679   0.068  1.00  0.00     0.241 C 
HETATM    4  C   UNL     1      39.769 -13.926   1.515  1.00  0.00     0.029 C 
HETATM    5  C   UNL     1      38.647 -12.944   1.879  1.00  0.00     0.009 C 
HETATM    6  C   UNL     1      37.483 -13.026   0.894  1.00  0.00     0.028 C 
HETATM    7  C   UNL     1      37.929 -12.834  -0.546  1.00  0.00     0.235 C 
ENDROOT
BRANCH   4   8
HETATM    8  C   UNL     1      39.343 -15.366   1.864  1.00  0.00     0.130 C 
BRANCH   8   9
HETATM    9  N   UNL     1      40.204 -16.036   2.815  1.00  0.00    -0.342 N 
HETATM   10  C   UNL     1      41.184 -16.896   2.351  1.00  0.00     0.320 C 
HETATM   11  N   UNL     1      41.790 -17.564   3.385  1.00  0.00    -0.309 N 
HETATM   12  O   UNL     1      41.451 -16.951   1.154  1.00  0.00    -0.247 OA
HETATM   13  H   UNL     1      41.586 -17.222   4.315  1.00  0.00     0.170 HD
HETATM   14  H   UNL     1      39.767 -16.323   3.684  1.00  0.00     0.164 HD
BRANCH  11  15
HETATM   15  C   UNL     1      42.765 -18.579   3.302  1.00  0.00     0.039 A 
HETATM   16  C   UNL     1      42.868 -19.466   2.233  1.00  0.00     0.071 A 
HETATM   17  C   UNL     1      43.874 -20.429   2.228  1.00  0.00     0.118 A 
HETATM   18  F   UNL     1      43.988 -21.252   1.178  1.00  0.00    -0.206 F 
HETATM   19  C   UNL     1      44.774 -20.541   3.282  1.00  0.00     0.042 A 
HETATM   20  C   UNL     1      44.664 -19.673   4.363  1.00  0.00     0.005 A 
HETATM   21  C   UNL     1      43.664 -18.695   4.372  1.00  0.00     0.030 A 
ENDBRANCH  11  15
ENDBRANCH   8   9
ENDBRANCH   4   8
BRANCH   1  22
HETATM   22  C   UNL     1      39.507 -13.482  -2.336  1.00  0.00     0.274 C 
BRANCH  22  23
HETATM   23  C   UNL     1      38.407 -13.104  -3.264  1.00  0.00    -0.015 A 
HETATM   24  C   UNL     1      38.233 -11.882  -3.884  1.00  0.00     0.097 A 
HETATM   25  N   UNL     1      37.093 -11.934  -4.643  1.00  0.00    -0.360 N 
HETATM   26  C   UNL     1      36.494 -13.165  -4.504  1.00  0.00     0.108 A 
HETATM   27  H   UNL     1      36.705 -11.171  -5.188  1.00  0.00     0.165 HD
HETATM   28  C   UNL     1      37.327 -13.923  -3.701  1.00  0.00     0.046 A 
BRANCH  26  29
HETATM   29  C   UNL     1      35.227 -13.540  -5.087  1.00  0.00     0.309 C 
HETATM   30  O   UNL     1      34.914 -14.679  -5.404  1.00  0.00    -0.258 OA
BRANCH  29  31
HETATM   31  O   UNL     1      34.431 -12.441  -5.197  1.00  0.00    -0.321 OA
HETATM   32  C   UNL     1      33.240 -12.514  -4.413  1.00  0.00     0.213 C 
ENDBRANCH  29  31
ENDBRANCH  26  29
ENDBRANCH  22  23
ENDBRANCH   1  22
TORSDOF 7
ENDMDL
