MODEL 1
REMARK VINA RESULT:      -9.1      0.000      0.000
REMARK  6 active torsions:
REMARK  status: ('A' for Active; 'I' for Inactive)
REMARK    1  A    between atoms: O_2  and  C_3 
REMARK    2  A    between atoms: C_6  and  C_7 
REMARK    3  A    between atoms: C_13  and  C_14 
REMARK       I    between atoms: C_14  and  N_15 
REMARK    4  A    between atoms: N_15  and  C_16 
REMARK    5  A    between atoms: C_16  and  C_17 
REMARK    6  A    between atoms: C_24  and  C_25 
ROOT
HETATM    1  C   UNL     1      42.224 -16.873   3.544  1.00  0.00     0.118 C 
HETATM    2  N   UNL     1      42.948 -16.095   4.557  1.00  0.00    -0.365 N 
HETATM    3  C   UNL     1      42.747 -14.749   4.654  1.00  0.00     0.138 A 
HETATM    4  N   UNL     1      42.018 -14.078   3.699  1.00  0.00    -0.240 N 
HETATM    5  N   UNL     1      41.940 -12.755   3.890  1.00  0.00    -0.181 NA
HETATM    6  C   UNL     1      42.586 -12.580   5.044  1.00  0.00     0.160 A 
HETATM    7  C   UNL     1      43.133 -13.781   5.568  1.00  0.00     0.096 A 
HETATM    8  C   UNL     1      41.374 -14.701   2.559  1.00  0.00     0.221 C 
HETATM    9  C   UNL     1      42.049 -16.044   2.260  1.00  0.00     0.066 C 
HETATM   10  H   UNL     1      43.091 -16.631   5.416  1.00  0.00     0.161 HD
ENDROOT
BRANCH   7  11
HETATM   11  C   UNL     1      43.915 -13.870   6.785  1.00  0.00     0.257 C 
HETATM   12  N   UNL     1      44.016 -12.709   7.517  1.00  0.00    -0.352 N 
HETATM   13  H   UNL     1      43.368 -11.967   7.294  1.00  0.00     0.163 HD
HETATM   14  O   UNL     1      44.417 -14.928   7.150  1.00  0.00    -0.267 OA
BRANCH  12  15
HETATM   15  C   UNL     1      44.613 -12.733   8.831  1.00  0.00     0.161 C 
BRANCH  15  16
HETATM   16  C   UNL     1      44.048 -11.652   9.710  1.00  0.00    -0.041 A 
HETATM   17  C   UNL     1      44.621 -11.371  10.958  1.00  0.00     0.009 A 
HETATM   18  C   UNL     1      44.095 -10.361  11.764  1.00  0.00     0.001 A 
HETATM   19  C   UNL     1      42.992  -9.625  11.335  1.00  0.00     0.000 A 
HETATM   20  C   UNL     1      42.406  -9.905  10.102  1.00  0.00     0.001 A 
HETATM   21  C   UNL     1      42.928 -10.917   9.295  1.00  0.00     0.009 A 
ENDBRANCH  15  16
ENDBRANCH  12  15
ENDBRANCH   7  11
BRANCH   1  22
HETATM   22  C   UNL     1      42.965 -18.162   3.235  1.00  0.00    -0.035 A 
HETATM   23  C   UNL     1      43.789 -18.745   4.209  1.00  0.00     0.012 A 
HETATM   24  C   UNL     1      44.399 -19.980   3.975  1.00  0.00     0.037 A 
HETATM   25  C   UNL     1      44.189 -20.661   2.776  1.00  0.00     0.068 A 
HETATM   26  C   UNL     1      43.401 -20.076   1.787  1.00  0.00     0.037 A 
HETATM   27  C   UNL     1      42.795 -18.835   2.014  1.00  0.00     0.012 A 
BRANCH  25  28
HETATM   28  O   UNL     1      44.812 -21.875   2.686  1.00  0.00    -0.356 OA
HETATM   29  C   UNL     1      44.711 -22.719   3.829  1.00  0.00     0.210 C 
ENDBRANCH  25  28
ENDBRANCH   1  22
BRANCH   8  30
HETATM   30  C   UNL     1      39.889 -14.847   2.816  1.00  0.00     0.409 C 
HETATM   31  F   UNL     1      39.350 -15.922   2.202  1.00  0.00    -0.169 F 
HETATM   32  F   UNL     1      39.584 -14.923   4.128  1.00  0.00    -0.169 F 
HETATM   33  F   UNL     1      39.232 -13.759   2.333  1.00  0.00    -0.169 F 
ENDBRANCH   8  30
TORSDOF 6
ENDMDL
MODEL 2
REMARK VINA RESULT:      -9.0      3.151      7.309
REMARK  6 active torsions:
REMARK  status: ('A' for Active; 'I' for Inactive)
REMARK    1  A    between atoms: O_2  and  C_3 
REMARK    2  A    between atoms: C_6  and  C_7 
REMARK    3  A    between atoms: C_13  and  C_14 
REMARK       I    between atoms: C_14  and  N_15 
REMARK    4  A    between atoms: N_15  and  C_16 
REMARK    5  A    between atoms: C_16  and  C_17 
REMARK    6  A    between atoms: C_24  and  C_25 
ROOT
HETATM    1  C   UNL     1      41.565 -14.628   3.462  1.00  0.00     0.118 C 
HETATM    2  N   UNL     1      42.399 -15.617   4.157  1.00  0.00    -0.365 N 
HETATM    3  C   UNL     1      43.084 -15.260   5.282  1.00  0.00     0.138 A 
HETATM    4  N   UNL     1      43.155 -13.942   5.672  1.00  0.00    -0.240 N 
HETATM    5  N   UNL     1      43.899 -13.727   6.764  1.00  0.00    -0.181 NA
HETATM    6  C   UNL     1      44.263 -14.958   7.127  1.00  0.00     0.160 A 
HETATM    7  C   UNL     1      43.805 -15.964   6.235  1.00  0.00     0.096 A 
HETATM    8  C   UNL     1      42.505 -12.840   4.990  1.00  0.00     0.221 C 
HETATM    9  C   UNL     1      42.217 -13.236   3.537  1.00  0.00     0.066 C 
HETATM   10  H   UNL     1      41.995 -16.555   4.108  1.00  0.00     0.161 HD
ENDROOT
BRANCH   7  11
HETATM   11  C   UNL     1      44.091 -17.379   6.368  1.00  0.00     0.257 C 
HETATM   12  N   UNL     1      44.427 -18.032   5.205  1.00  0.00    -0.352 N 
HETATM   13  H   UNL     1      44.677 -17.459   4.411  1.00  0.00     0.163 HD
HETATM   14  O   UNL     1      44.070 -17.938   7.459  1.00  0.00    -0.267 OA
BRANCH  12  15
HETATM   15  C   UNL     1      44.908 -19.391   5.253  1.00  0.00     0.161 C 
BRANCH  15  16
HETATM   16  C   UNL     1      44.504 -20.161   4.026  1.00  0.00    -0.041 A 
HETATM   17  C   UNL     1      43.828 -19.527   2.973  1.00  0.00     0.009 A 
HETATM   18  C   UNL     1      43.465 -20.247   1.834  1.00  0.00     0.001 A 
HETATM   19  C   UNL     1      43.767 -21.604   1.737  1.00  0.00     0.000 A 
HETATM   20  C   UNL     1      44.426 -22.246   2.783  1.00  0.00     0.001 A 
HETATM   21  C   UNL     1      44.789 -21.530   3.925  1.00  0.00     0.009 A 
ENDBRANCH  15  16
ENDBRANCH  12  15
ENDBRANCH   7  11
BRANCH   1  22
HETATM   22  C   UNL     1      41.362 -15.031   2.013  1.00  0.00    -0.035 A 
HETATM   23  C   UNL     1      40.921 -14.083   1.079  1.00  0.00     0.012 A 
HETATM   24  C   UNL     1      40.824 -14.412  -0.275  1.00  0.00     0.037 A 
HETATM   25  C   UNL     1      41.176 -15.685  -0.725  1.00  0.00     0.068 A 
HETATM   26  C   UNL     1      41.581 -16.646   0.198  1.00  0.00     0.037 A 
HETATM   27  C   UNL     1      41.672 -16.322   1.557  1.00  0.00     0.012 A 
BRANCH  25  28
HETATM   28  O   UNL     1      41.071 -15.868  -2.076  1.00  0.00    -0.356 OA
HETATM   29  C   UNL     1      41.100 -14.689  -2.873  1.00  0.00     0.210 C 
ENDBRANCH  25  28
ENDBRANCH   1  22
BRANCH   8  30
HETATM   30  C   UNL     1      41.253 -12.433   5.736  1.00  0.00     0.409 C 
HETATM   31  F   UNL     1      40.583 -13.484   6.257  1.00  0.00    -0.169 F 
HETATM   32  F   UNL     1      41.492 -11.558   6.735  1.00  0.00    -0.169 F 
HETATM   33  F   UNL     1      40.393 -11.815   4.884  1.00  0.00    -0.169 F 
ENDBRANCH   8  30
TORSDOF 6
ENDMDL
MODEL 3
REMARK VINA RESULT:      -9.0      3.217      4.663
REMARK  6 active torsions:
REMARK  status: ('A' for Active; 'I' for Inactive)
REMARK    1  A    between atoms: O_2  and  C_3 
REMARK    2  A    between atoms: C_6  and  C_7 
REMARK    3  A    between atoms: C_13  and  C_14 
REMARK       I    between atoms: C_14  and  N_15 
REMARK    4  A    between atoms: N_15  and  C_16 
REMARK    5  A    between atoms: C_16  and  C_17 
REMARK    6  A    between atoms: C_24  and  C_25 
ROOT
HETATM    1  C   UNL     1      43.160 -16.832   3.533  1.00  0.00     0.118 C 
HETATM    2  N   UNL     1      43.504 -15.784   4.504  1.00  0.00    -0.365 N 
HETATM    3  C   UNL     1      43.582 -16.087   5.832  1.00  0.00     0.138 A 
HETATM    4  N   UNL     1      43.164 -17.312   6.299  1.00  0.00    -0.240 N 
HETATM    5  N   UNL     1      43.251 -17.457   7.627  1.00  0.00    -0.181 NA
HETATM    6  C   UNL     1      43.807 -16.310   8.019  1.00  0.00     0.160 A 
HETATM    7  C   UNL     1      44.024 -15.399   6.952  1.00  0.00     0.096 A 
HETATM    8  C   UNL     1      42.658 -18.387   5.468  1.00  0.00     0.221 C 
HETATM    9  C   UNL     1      42.142 -17.811   4.144  1.00  0.00     0.066 C 
HETATM   10  H   UNL     1      44.168 -15.111   4.115  1.00  0.00     0.161 HD
ENDROOT
BRANCH   7  11
HETATM   11  C   UNL     1      44.575 -14.066   7.102  1.00  0.00     0.257 C 
HETATM   12  N   UNL     1      44.425 -13.494   8.344  1.00  0.00    -0.352 N 
HETATM   13  H   UNL     1      44.166 -14.107   9.104  1.00  0.00     0.163 HD
HETATM   14  O   UNL     1      45.171 -13.511   6.185  1.00  0.00    -0.267 OA
BRANCH  12  15
HETATM   15  C   UNL     1      45.095 -12.254   8.654  1.00  0.00     0.161 C 
BRANCH  15  16
HETATM   16  C   UNL     1      44.276 -11.406   9.587  1.00  0.00    -0.041 A 
HETATM   17  C   UNL     1      44.759 -11.070  10.860  1.00  0.00     0.009 A 
HETATM   18  C   UNL     1      43.996 -10.275  11.717  1.00  0.00     0.001 A 
HETATM   19  C   UNL     1      42.744  -9.814  11.314  1.00  0.00     0.000 A 
HETATM   20  C   UNL     1      42.248 -10.153  10.057  1.00  0.00     0.001 A 
HETATM   21  C   UNL     1      43.008 -10.950   9.199  1.00  0.00     0.009 A 
ENDBRANCH  15  16
ENDBRANCH  12  15
ENDBRANCH   7  11
BRANCH   1  22
HETATM   22  C   UNL     1      42.595 -16.215   2.266  1.00  0.00    -0.035 A 
HETATM   23  C   UNL     1      42.219 -17.039   1.196  1.00  0.00     0.012 A 
HETATM   24  C   UNL     1      41.607 -16.496   0.063  1.00  0.00     0.037 A 
HETATM   25  C   UNL     1      41.345 -15.128  -0.017  1.00  0.00     0.068 A 
HETATM   26  C   UNL     1      41.746 -14.295   1.025  1.00  0.00     0.037 A 
HETATM   27  C   UNL     1      42.367 -14.834   2.158  1.00  0.00     0.012 A 
BRANCH  25  28
HETATM   28  O   UNL     1      40.710 -14.729  -1.160  1.00  0.00    -0.356 OA
HETATM   29  C   UNL     1      40.910 -15.547  -2.307  1.00  0.00     0.210 C 
ENDBRANCH  25  28
ENDBRANCH   1  22
BRANCH   8  30
HETATM   30  C   UNL     1      43.731 -19.435   5.262  1.00  0.00     0.409 C 
HETATM   31  F   UNL     1      43.656 -20.037   4.055  1.00  0.00    -0.169 F 
HETATM   32  F   UNL     1      44.980 -18.948   5.406  1.00  0.00    -0.169 F 
HETATM   33  F   UNL     1      43.594 -20.418   6.190  1.00  0.00    -0.169 F 
ENDBRANCH   8  30
TORSDOF 6
ENDMDL
MODEL 4
REMARK VINA RESULT:      -8.7      3.636      6.958
REMARK  6 active torsions:
REMARK  status: ('A' for Active; 'I' for Inactive)
REMARK    1  A    between atoms: O_2  and  C_3 
REMARK    2  A    between atoms: C_6  and  C_7 
REMARK    3  A    between atoms: C_13  and  C_14 
REMARK       I    between atoms: C_14  and  N_15 
REMARK    4  A    between atoms: N_15  and  C_16 
REMARK    5  A    between atoms: C_16  and  C_17 
REMARK    6  A    between atoms: C_24  and  C_25 
ROOT
HETATM    1  C   UNL     1      43.311 -16.670   4.058  1.00  0.00     0.118 C 
HETATM    2  N   UNL     1      42.100 -16.220   3.360  1.00  0.00    -0.365 N 
HETATM    3  C   UNL     1      41.322 -15.243   3.908  1.00  0.00     0.138 A 
HETATM    4  N   UNL     1      41.550 -14.801   5.191  1.00  0.00    -0.240 N 
HETATM    5  N   UNL     1      40.683 -13.875   5.620  1.00  0.00    -0.181 NA
HETATM    6  C   UNL     1      39.912 -13.667   4.551  1.00  0.00     0.160 A 
HETATM    7  C   UNL     1      40.243 -14.502   3.451  1.00  0.00     0.096 A 
HETATM    8  C   UNL     1      42.619 -15.269   6.051  1.00  0.00     0.221 C 
HETATM    9  C   UNL     1      43.086 -16.651   5.581  1.00  0.00     0.066 C 
HETATM   10  H   UNL     1      42.219 -16.239   2.344  1.00  0.00     0.161 HD
ENDROOT
BRANCH   7  11
HETATM   11  C   UNL     1      39.541 -14.513   2.182  1.00  0.00     0.257 C 
HETATM   12  N   UNL     1      39.810 -13.457   1.342  1.00  0.00    -0.352 N 
HETATM   13  H   UNL     1      40.623 -12.896   1.553  1.00  0.00     0.163 HD
HETATM   14  O   UNL     1      38.790 -15.432   1.872  1.00  0.00    -0.267 OA
BRANCH  12  15
HETATM   15  C   UNL     1      39.311 -13.466  -0.012  1.00  0.00     0.161 C 
BRANCH  15  16
HETATM   16  C   UNL     1      40.429 -13.349  -1.010  1.00  0.00    -0.041 A 
HETATM   17  C   UNL     1      40.438 -14.134  -2.172  1.00  0.00     0.009 A 
HETATM   18  C   UNL     1      41.476 -14.013  -3.097  1.00  0.00     0.001 A 
HETATM   19  C   UNL     1      42.515 -13.112  -2.870  1.00  0.00     0.000 A 
HETATM   20  C   UNL     1      42.523 -12.336  -1.712  1.00  0.00     0.001 A 
HETATM   21  C   UNL     1      41.488 -12.457  -0.784  1.00  0.00     0.009 A 
ENDBRANCH  15  16
ENDBRANCH  12  15
ENDBRANCH   7  11
BRANCH   1  22
HETATM   22  C   UNL     1      43.696 -18.067   3.606  1.00  0.00    -0.035 A 
HETATM   23  C   UNL     1      44.366 -18.927   4.487  1.00  0.00     0.012 A 
HETATM   24  C   UNL     1      44.640 -20.247   4.120  1.00  0.00     0.037 A 
HETATM   25  C   UNL     1      44.239 -20.738   2.877  1.00  0.00     0.068 A 
HETATM   26  C   UNL     1      43.604 -19.882   1.979  1.00  0.00     0.037 A 
HETATM   27  C   UNL     1      43.336 -18.557   2.340  1.00  0.00     0.012 A 
BRANCH  25  28
HETATM   28  O   UNL     1      44.534 -22.054   2.655  1.00  0.00    -0.356 OA
HETATM   29  C   UNL     1      44.694 -22.866   3.813  1.00  0.00     0.210 C 
ENDBRANCH  25  28
ENDBRANCH   1  22
BRANCH   8  30
HETATM   30  C   UNL     1      43.745 -14.257   6.078  1.00  0.00     0.409 C 
HETATM   31  F   UNL     1      43.989 -13.706   4.869  1.00  0.00    -0.169 F 
HETATM   32  F   UNL     1      43.536 -13.255   6.956  1.00  0.00    -0.169 F 
HETATM   33  F   UNL     1      44.898 -14.867   6.461  1.00  0.00    -0.169 F 
ENDBRANCH   8  30
TORSDOF 6
ENDMDL
MODEL 5
REMARK VINA RESULT:      -8.7      3.880      7.995
REMARK  6 active torsions:
REMARK  status: ('A' for Active; 'I' for Inactive)
REMARK    1  A    between atoms: O_2  and  C_3 
REMARK    2  A    between atoms: C_6  and  C_7 
REMARK    3  A    between atoms: C_13  and  C_14 
REMARK       I    between atoms: C_14  and  N_15 
REMARK    4  A    between atoms: N_15  and  C_16 
REMARK    5  A    between atoms: C_16  and  C_17 
REMARK    6  A    between atoms: C_24  and  C_25 
ROOT
HETATM    1  C   UNL     1      43.567 -16.771   3.552  1.00  0.00     0.118 C 
HETATM    2  N   UNL     1      42.834 -16.438   2.323  1.00  0.00    -0.365 N 
HETATM    3  C   UNL     1      42.003 -15.356   2.299  1.00  0.00     0.138 A 
HETATM    4  N   UNL     1      41.697 -14.680   3.458  1.00  0.00    -0.240 N 
HETATM    5  N   UNL     1      40.832 -13.670   3.297  1.00  0.00    -0.181 NA
HETATM    6  C   UNL     1      40.629 -13.655   1.979  1.00  0.00     0.160 A 
HETATM    7  C   UNL     1      41.314 -14.693   1.295  1.00  0.00     0.096 A 
HETATM    8  C   UNL     1      42.230 -14.997   4.768  1.00  0.00     0.221 C 
HETATM    9  C   UNL     1      42.707 -16.454   4.788  1.00  0.00     0.066 C 
HETATM   10  H   UNL     1      43.380 -16.655   1.486  1.00  0.00     0.161 HD
ENDROOT
BRANCH   7  11
HETATM   11  C   UNL     1      41.237 -14.933  -0.133  1.00  0.00     0.257 C 
HETATM   12  N   UNL     1      41.092 -13.815  -0.920  1.00  0.00    -0.352 N 
HETATM   13  H   UNL     1      41.284 -12.921  -0.489  1.00  0.00     0.163 HD
HETATM   14  O   UNL     1      41.335 -16.063  -0.600  1.00  0.00    -0.267 OA
BRANCH  12  15
HETATM   15  C   UNL     1      41.190 -13.923  -2.355  1.00  0.00     0.161 C 
BRANCH  15  16
HETATM   16  C   UNL     1      39.871 -14.299  -2.969  1.00  0.00    -0.041 A 
HETATM   17  C   UNL     1      38.760 -13.451  -2.855  1.00  0.00     0.009 A 
HETATM   18  C   UNL     1      37.541 -13.804  -3.436  1.00  0.00     0.001 A 
HETATM   19  C   UNL     1      37.417 -15.006  -4.130  1.00  0.00     0.000 A 
HETATM   20  C   UNL     1      38.511 -15.862  -4.238  1.00  0.00     0.001 A 
HETATM   21  C   UNL     1      39.731 -15.513  -3.656  1.00  0.00     0.009 A 
ENDBRANCH  15  16
ENDBRANCH  12  15
ENDBRANCH   7  11
BRANCH   1  22
HETATM   22  C   UNL     1      43.960 -18.237   3.554  1.00  0.00    -0.035 A 
HETATM   23  C   UNL     1      44.440 -18.831   4.729  1.00  0.00     0.012 A 
HETATM   24  C   UNL     1      44.713 -20.201   4.773  1.00  0.00     0.037 A 
HETATM   25  C   UNL     1      44.500 -21.004   3.652  1.00  0.00     0.068 A 
HETATM   26  C   UNL     1      44.058 -20.419   2.468  1.00  0.00     0.037 A 
HETATM   27  C   UNL     1      43.792 -19.046   2.418  1.00  0.00     0.012 A 
BRANCH  25  28
HETATM   28  O   UNL     1      44.771 -22.332   3.836  1.00  0.00    -0.356 OA
HETATM   29  C   UNL     1      45.207 -22.709   5.137  1.00  0.00     0.210 C 
ENDBRANCH  25  28
ENDBRANCH   1  22
BRANCH   8  30
HETATM   30  C   UNL     1      43.332 -14.024   5.130  1.00  0.00     0.409 C 
HETATM   31  F   UNL     1      44.000 -13.558   4.052  1.00  0.00    -0.169 F 
HETATM   32  F   UNL     1      42.891 -12.962   5.834  1.00  0.00    -0.169 F 
HETATM   33  F   UNL     1      44.253 -14.647   5.911  1.00  0.00    -0.169 F 
ENDBRANCH   8  30
TORSDOF 6
ENDMDL
MODEL 6
REMARK VINA RESULT:      -8.4      4.056      7.795
REMARK  6 active torsions:
REMARK  status: ('A' for Active; 'I' for Inactive)
REMARK    1  A    between atoms: O_2  and  C_3 
REMARK    2  A    between atoms: C_6  and  C_7 
REMARK    3  A    between atoms: C_13  and  C_14 
REMARK       I    between atoms: C_14  and  N_15 
REMARK    4  A    between atoms: N_15  and  C_16 
REMARK    5  A    between atoms: C_16  and  C_17 
REMARK    6  A    between atoms: C_24  and  C_25 
ROOT
HETATM    1  C   UNL     1      43.248 -16.688   3.127  1.00  0.00     0.118 C 
HETATM    2  N   UNL     1      42.412 -16.411   1.952  1.00  0.00    -0.365 N 
HETATM    3  C   UNL     1      41.556 -15.348   1.960  1.00  0.00     0.138 A 
HETATM    4  N   UNL     1      41.329 -14.640   3.119  1.00  0.00    -0.240 N 
HETATM    5  N   UNL     1      40.431 -13.654   2.997  1.00  0.00    -0.181 NA
HETATM    6  C   UNL     1      40.122 -13.687   1.700  1.00  0.00     0.160 A 
HETATM    7  C   UNL     1      40.774 -14.733   0.995  1.00  0.00     0.096 A 
HETATM    8  C   UNL     1      41.973 -14.902   4.391  1.00  0.00     0.221 C 
HETATM    9  C   UNL     1      42.483 -16.347   4.418  1.00  0.00     0.066 C 
HETATM   10  H   UNL     1      42.893 -16.645   1.080  1.00  0.00     0.161 HD
ENDROOT
BRANCH   7  11
HETATM   11  C   UNL     1      40.587 -15.023  -0.413  1.00  0.00     0.257 C 
HETATM   12  N   UNL     1      39.659 -14.244  -1.065  1.00  0.00    -0.352 N 
HETATM   13  H   UNL     1      39.358 -13.400  -0.599  1.00  0.00     0.163 HD
HETATM   14  O   UNL     1      41.250 -15.882  -0.986  1.00  0.00    -0.267 OA
BRANCH  12  15
HETATM   15  C   UNL     1      39.530 -14.323  -2.500  1.00  0.00     0.161 C 
BRANCH  15  16
HETATM   16  C   UNL     1      40.152 -13.132  -3.174  1.00  0.00    -0.041 A 
HETATM   17  C   UNL     1      39.357 -12.069  -3.627  1.00  0.00     0.009 A 
HETATM   18  C   UNL     1      39.944 -10.963  -4.244  1.00  0.00     0.001 A 
HETATM   19  C   UNL     1      41.325 -10.909  -4.418  1.00  0.00     0.000 A 
HETATM   20  C   UNL     1      42.123 -11.966  -3.984  1.00  0.00     0.001 A 
HETATM   21  C   UNL     1      41.539 -13.075  -3.369  1.00  0.00     0.009 A 
ENDBRANCH  15  16
ENDBRANCH  12  15
ENDBRANCH   7  11
BRANCH   1  22
HETATM   22  C   UNL     1      43.674 -18.145   3.143  1.00  0.00    -0.035 A 
HETATM   23  C   UNL     1      44.293 -18.680   4.282  1.00  0.00     0.012 A 
HETATM   24  C   UNL     1      44.601 -20.041   4.348  1.00  0.00     0.037 A 
HETATM   25  C   UNL     1      44.287 -20.894   3.291  1.00  0.00     0.068 A 
HETATM   26  C   UNL     1      43.705 -20.368   2.140  1.00  0.00     0.037 A 
HETATM   27  C   UNL     1      43.403 -19.004   2.065  1.00  0.00     0.012 A 
BRANCH  25  28
HETATM   28  O   UNL     1      44.607 -22.208   3.495  1.00  0.00    -0.356 OA
HETATM   29  C   UNL     1      44.933 -22.573   4.832  1.00  0.00     0.210 C 
ENDBRANCH  25  28
ENDBRANCH   1  22
BRANCH   8  30
HETATM   30  C   UNL     1      43.078 -13.895   4.631  1.00  0.00     0.409 C 
HETATM   31  F   UNL     1      44.093 -14.392   5.370  1.00  0.00    -0.169 F 
HETATM   32  F   UNL     1      43.600 -13.400   3.490  1.00  0.00    -0.169 F 
HETATM   33  F   UNL     1      42.586 -12.832   5.320  1.00  0.00    -0.169 F 
ENDBRANCH   8  30
TORSDOF 6
ENDMDL
MODEL 7
REMARK VINA RESULT:      -8.3      3.031      5.067
REMARK  6 active torsions:
REMARK  status: ('A' for Active; 'I' for Inactive)
REMARK    1  A    between atoms: O_2  and  C_3 
REMARK    2  A    between atoms: C_6  and  C_7 
REMARK    3  A    between atoms: C_13  and  C_14 
REMARK       I    between atoms: C_14  and  N_15 
REMARK    4  A    between atoms: N_15  and  C_16 
REMARK    5  A    between atoms: C_16  and  C_17 
REMARK    6  A    between atoms: C_24  and  C_25 
ROOT
HETATM    1  C   UNL     1      42.117 -16.395   2.896  1.00  0.00     0.118 C 
HETATM    2  N   UNL     1      42.576 -15.519   3.981  1.00  0.00    -0.365 N 
HETATM    3  C   UNL     1      43.095 -16.061   5.121  1.00  0.00     0.138 A 
HETATM    4  N   UNL     1      43.024 -17.417   5.348  1.00  0.00    -0.240 N 
HETATM    5  N   UNL     1      43.527 -17.807   6.526  1.00  0.00    -0.181 NA
HETATM    6  C   UNL     1      43.996 -16.672   7.044  1.00  0.00     0.160 A 
HETATM    7  C   UNL     1      43.744 -15.537   6.228  1.00  0.00     0.096 A 
HETATM    8  C   UNL     1      42.458 -18.383   4.427  1.00  0.00     0.221 C 
HETATM    9  C   UNL     1      41.489 -17.675   3.474  1.00  0.00     0.066 C 
HETATM   10  H   UNL     1      42.984 -14.653   3.622  1.00  0.00     0.161 HD
ENDROOT
BRANCH   7  11
HETATM   11  C   UNL     1      44.109 -14.176   6.570  1.00  0.00     0.257 C 
HETATM   12  N   UNL     1      44.518 -13.975   7.867  1.00  0.00    -0.352 N 
HETATM   13  H   UNL     1      44.757 -14.795   8.406  1.00  0.00     0.163 HD
HETATM   14  O   UNL     1      44.088 -13.277   5.735  1.00  0.00    -0.267 OA
BRANCH  12  15
HETATM   15  C   UNL     1      45.077 -12.704   8.260  1.00  0.00     0.161 C 
BRANCH  15  16
HETATM   16  C   UNL     1      44.230 -12.031   9.304  1.00  0.00    -0.041 A 
HETATM   17  C   UNL     1      44.433 -12.290  10.667  1.00  0.00     0.009 A 
HETATM   18  C   UNL     1      43.648 -11.654  11.630  1.00  0.00     0.001 A 
HETATM   19  C   UNL     1      42.652 -10.760  11.243  1.00  0.00     0.000 A 
HETATM   20  C   UNL     1      42.433 -10.505   9.890  1.00  0.00     0.001 A 
HETATM   21  C   UNL     1      43.214 -11.141   8.925  1.00  0.00     0.009 A 
ENDBRANCH  15  16
ENDBRANCH  12  15
ENDBRANCH   7  11
BRANCH   1  22
HETATM   22  C   UNL     1      41.112 -15.671   2.019  1.00  0.00    -0.035 A 
HETATM   23  C   UNL     1      39.909 -15.208   2.571  1.00  0.00     0.012 A 
HETATM   24  C   UNL     1      39.019 -14.455   1.801  1.00  0.00     0.037 A 
HETATM   25  C   UNL     1      39.316 -14.139   0.475  1.00  0.00     0.068 A 
HETATM   26  C   UNL     1      40.491 -14.624  -0.095  1.00  0.00     0.037 A 
HETATM   27  C   UNL     1      41.382 -15.385   0.671  1.00  0.00     0.012 A 
BRANCH  25  28
HETATM   28  O   UNL     1      38.381 -13.367  -0.157  1.00  0.00    -0.356 OA
HETATM   29  C   UNL     1      38.527 -13.233  -1.567  1.00  0.00     0.210 C 
ENDBRANCH  25  28
ENDBRANCH   1  22
BRANCH   8  30
HETATM   30  C   UNL     1      43.564 -19.109   3.691  1.00  0.00     0.409 C 
HETATM   31  F   UNL     1      43.144 -19.688   2.545  1.00  0.00    -0.169 F 
HETATM   32  F   UNL     1      44.613 -18.314   3.394  1.00  0.00    -0.169 F 
HETATM   33  F   UNL     1      44.051 -20.111   4.470  1.00  0.00    -0.169 F 
ENDBRANCH   8  30
TORSDOF 6
ENDMDL
MODEL 8
REMARK VINA RESULT:      -8.0      2.653      8.583
REMARK  6 active torsions:
REMARK  status: ('A' for Active; 'I' for Inactive)
REMARK    1  A    between atoms: O_2  and  C_3 
REMARK    2  A    between atoms: C_6  and  C_7 
REMARK    3  A    between atoms: C_13  and  C_14 
REMARK       I    between atoms: C_14  and  N_15 
REMARK    4  A    between atoms: N_15  and  C_16 
REMARK    5  A    between atoms: C_16  and  C_17 
REMARK    6  A    between atoms: C_24  and  C_25 
ROOT
HETATM    1  C   UNL     1      40.950 -12.970   4.633  1.00  0.00     0.118 C 
HETATM    2  N   UNL     1      41.289 -14.389   4.810  1.00  0.00    -0.365 N 
HETATM    3  C   UNL     1      41.070 -15.273   3.794  1.00  0.00     0.138 A 
HETATM    4  N   UNL     1      40.366 -14.894   2.674  1.00  0.00    -0.240 N 
HETATM    5  N   UNL     1      40.183 -15.873   1.779  1.00  0.00    -0.181 NA
HETATM    6  C   UNL     1      40.850 -16.898   2.313  1.00  0.00     0.160 A 
HETATM    7  C   UNL     1      41.413 -16.599   3.581  1.00  0.00     0.096 A 
HETATM    8  C   UNL     1      39.840 -13.565   2.436  1.00  0.00     0.221 C 
HETATM    9  C   UNL     1      39.683 -12.829   3.771  1.00  0.00     0.066 C 
HETATM   10  H   UNL     1      42.120 -14.510   5.394  1.00  0.00     0.161 HD
ENDROOT
BRANCH   7  11
HETATM   11  C   UNL     1      42.152 -17.541   4.400  1.00  0.00     0.257 C 
HETATM   12  N   UNL     1      43.432 -17.820   3.981  1.00  0.00    -0.352 N 
HETATM   13  H   UNL     1      43.839 -17.196   3.299  1.00  0.00     0.163 HD
HETATM   14  O   UNL     1      41.670 -18.020   5.421  1.00  0.00    -0.267 OA
BRANCH  12  15
HETATM   15  C   UNL     1      44.314 -18.596   4.819  1.00  0.00     0.161 C 
BRANCH  15  16
HETATM   16  C   UNL     1      44.429 -20.013   4.332  1.00  0.00    -0.041 A 
HETATM   17  C   UNL     1      44.242 -20.322   2.977  1.00  0.00     0.009 A 
HETATM   18  C   UNL     1      44.359 -21.640   2.532  1.00  0.00     0.001 A 
HETATM   19  C   UNL     1      44.658 -22.660   3.433  1.00  0.00     0.000 A 
HETATM   20  C   UNL     1      44.833 -22.366   4.784  1.00  0.00     0.001 A 
HETATM   21  C   UNL     1      44.714 -21.049   5.232  1.00  0.00     0.009 A 
ENDBRANCH  15  16
ENDBRANCH  12  15
ENDBRANCH   7  11
BRANCH   1  22
HETATM   22  C   UNL     1      40.742 -12.303   5.980  1.00  0.00    -0.035 A 
HETATM   23  C   UNL     1      41.714 -11.428   6.485  1.00  0.00     0.012 A 
HETATM   24  C   UNL     1      41.492 -10.731   7.676  1.00  0.00     0.037 A 
HETATM   25  C   UNL     1      40.295 -10.882   8.375  1.00  0.00     0.068 A 
HETATM   26  C   UNL     1      39.336 -11.775   7.903  1.00  0.00     0.037 A 
HETATM   27  C   UNL     1      39.558 -12.481   6.715  1.00  0.00     0.012 A 
BRANCH  25  28
HETATM   28  O   UNL     1      40.187 -10.117   9.504  1.00  0.00    -0.356 OA
HETATM   29  C   UNL     1      41.400  -9.567  10.007  1.00  0.00     0.210 C 
ENDBRANCH  25  28
ENDBRANCH   1  22
BRANCH   8  30
HETATM   30  C   UNL     1      40.733 -12.818   1.468  1.00  0.00     0.409 C 
HETATM   31  F   UNL     1      40.720 -11.481   1.661  1.00  0.00    -0.169 F 
HETATM   32  F   UNL     1      42.016 -13.230   1.506  1.00  0.00    -0.169 F 
HETATM   33  F   UNL     1      40.302 -13.025   0.195  1.00  0.00    -0.169 F 
ENDBRANCH   8  30
TORSDOF 6
ENDMDL
MODEL 9
REMARK VINA RESULT:      -8.0      3.245      6.995
REMARK  6 active torsions:
REMARK  status: ('A' for Active; 'I' for Inactive)
REMARK    1  A    between atoms: O_2  and  C_3 
REMARK    2  A    between atoms: C_6  and  C_7 
REMARK    3  A    between atoms: C_13  and  C_14 
REMARK       I    between atoms: C_14  and  N_15 
REMARK    4  A    between atoms: N_15  and  C_16 
REMARK    5  A    between atoms: C_16  and  C_17 
REMARK    6  A    between atoms: C_24  and  C_25 
ROOT
HETATM    1  C   UNL     1      40.075 -13.654   2.025  1.00  0.00     0.118 C 
HETATM    2  N   UNL     1      41.027 -14.275   2.955  1.00  0.00    -0.365 N 
HETATM    3  C   UNL     1      41.419 -13.605   4.077  1.00  0.00     0.138 A 
HETATM    4  N   UNL     1      41.081 -12.283   4.259  1.00  0.00    -0.240 N 
HETATM    5  N   UNL     1      41.571 -11.736   5.378  1.00  0.00    -0.181 NA
HETATM    6  C   UNL     1      42.188 -12.760   5.968  1.00  0.00     0.160 A 
HETATM    7  C   UNL     1      42.149 -13.955   5.202  1.00  0.00     0.096 A 
HETATM    8  C   UNL     1      40.273 -11.501   3.344  1.00  0.00     0.221 C 
HETATM    9  C   UNL     1      40.318 -12.136   1.949  1.00  0.00     0.066 C 
HETATM   10  H   UNL     1      40.896 -15.288   3.010  1.00  0.00     0.161 HD
ENDROOT
BRANCH   7  11
HETATM   11  C   UNL     1      42.775 -15.205   5.587  1.00  0.00     0.257 C 
HETATM   12  N   UNL     1      41.995 -16.330   5.453  1.00  0.00    -0.352 N 
HETATM   13  H   UNL     1      41.159 -16.245   4.893  1.00  0.00     0.163 HD
HETATM   14  O   UNL     1      43.940 -15.249   5.969  1.00  0.00    -0.267 OA
BRANCH  12  15
HETATM   15  C   UNL     1      42.577 -17.638   5.631  1.00  0.00     0.161 C 
BRANCH  15  16
HETATM   16  C   UNL     1      42.931 -18.266   4.312  1.00  0.00    -0.041 A 
HETATM   17  C   UNL     1      42.256 -17.898   3.139  1.00  0.00     0.009 A 
HETATM   18  C   UNL     1      42.596 -18.480   1.917  1.00  0.00     0.001 A 
HETATM   19  C   UNL     1      43.608 -19.436   1.855  1.00  0.00     0.000 A 
HETATM   20  C   UNL     1      44.277 -19.819   3.016  1.00  0.00     0.001 A 
HETATM   21  C   UNL     1      43.936 -19.241   4.240  1.00  0.00     0.009 A 
ENDBRANCH  15  16
ENDBRANCH  12  15
ENDBRANCH   7  11
BRANCH   1  22
HETATM   22  C   UNL     1      40.203 -14.271   0.644  1.00  0.00    -0.035 A 
HETATM   23  C   UNL     1      39.508 -13.713  -0.438  1.00  0.00     0.012 A 
HETATM   24  C   UNL     1      39.692 -14.209  -1.732  1.00  0.00     0.037 A 
HETATM   25  C   UNL     1      40.581 -15.257  -1.972  1.00  0.00     0.068 A 
HETATM   26  C   UNL     1      41.250 -15.843  -0.900  1.00  0.00     0.037 A 
HETATM   27  C   UNL     1      41.062 -15.355   0.398  1.00  0.00     0.012 A 
BRANCH  25  28
HETATM   28  O   UNL     1      40.697 -15.625  -3.284  1.00  0.00    -0.356 OA
HETATM   29  C   UNL     1      39.487 -15.976  -3.947  1.00  0.00     0.210 C 
ENDBRANCH  25  28
ENDBRANCH   1  22
BRANCH   8  30
HETATM   30  C   UNL     1      38.861 -11.376   3.875  1.00  0.00     0.409 C 
HETATM   31  F   UNL     1      38.654 -10.229   4.559  1.00  0.00    -0.169 F 
HETATM   32  F   UNL     1      37.923 -11.458   2.910  1.00  0.00    -0.169 F 
HETATM   33  F   UNL     1      38.608 -12.390   4.743  1.00  0.00    -0.169 F 
ENDBRANCH   8  30
TORSDOF 6
ENDMDL
MODEL 10
REMARK VINA RESULT:      -7.9      2.606      9.098
REMARK  6 active torsions:
REMARK  status: ('A' for Active; 'I' for Inactive)
REMARK    1  A    between atoms: O_2  and  C_3 
REMARK    2  A    between atoms: C_6  and  C_7 
REMARK    3  A    between atoms: C_13  and  C_14 
REMARK       I    between atoms: C_14  and  N_15 
REMARK    4  A    between atoms: N_15  and  C_16 
REMARK    5  A    between atoms: C_16  and  C_17 
REMARK    6  A    between atoms: C_24  and  C_25 
ROOT
HETATM    1  C   UNL     1      42.052 -10.844   7.657  1.00  0.00     0.118 C 
HETATM    2  N   UNL     1      42.485 -12.199   7.291  1.00  0.00    -0.365 N 
HETATM    3  C   UNL     1      41.875 -12.853   6.261  1.00  0.00     0.138 A 
HETATM    4  N   UNL     1      40.738 -12.339   5.678  1.00  0.00    -0.240 N 
HETATM    5  N   UNL     1      40.217 -13.107   4.713  1.00  0.00    -0.181 NA
HETATM    6  C   UNL     1      41.086 -14.115   4.627  1.00  0.00     0.160 A 
HETATM    7  C   UNL     1      42.137 -14.030   5.578  1.00  0.00     0.096 A 
HETATM    8  C   UNL     1      40.113 -11.084   6.045  1.00  0.00     0.221 C 
HETATM    9  C   UNL     1      40.531 -10.701   7.470  1.00  0.00     0.066 C 
HETATM   10  H   UNL     1      43.491 -12.323   7.422  1.00  0.00     0.161 HD
ENDROOT
BRANCH   7  11
HETATM   11  C   UNL     1      43.193 -15.012   5.732  1.00  0.00     0.257 C 
HETATM   12  N   UNL     1      42.852 -16.309   5.424  1.00  0.00    -0.352 N 
HETATM   13  H   UNL     1      41.997 -16.449   4.904  1.00  0.00     0.163 HD
HETATM   14  O   UNL     1      44.325 -14.689   6.076  1.00  0.00    -0.267 OA
BRANCH  12  15
HETATM   15  C   UNL     1      43.871 -17.329   5.365  1.00  0.00     0.161 C 
BRANCH  15  16
HETATM   16  C   UNL     1      43.697 -18.209   4.158  1.00  0.00    -0.041 A 
HETATM   17  C   UNL     1      44.348 -19.448   4.075  1.00  0.00     0.009 A 
HETATM   18  C   UNL     1      44.175 -20.262   2.955  1.00  0.00     0.001 A 
HETATM   19  C   UNL     1      43.355 -19.846   1.907  1.00  0.00     0.000 A 
HETATM   20  C   UNL     1      42.714 -18.611   1.973  1.00  0.00     0.001 A 
HETATM   21  C   UNL     1      42.888 -17.793   3.091  1.00  0.00     0.009 A 
ENDBRANCH  15  16
ENDBRANCH  12  15
ENDBRANCH   7  11
BRANCH   1  22
HETATM   22  C   UNL     1      42.431 -10.536   9.095  1.00  0.00    -0.035 A 
HETATM   23  C   UNL     1      43.635 -11.025   9.620  1.00  0.00     0.012 A 
HETATM   24  C   UNL     1      44.044 -10.669  10.908  1.00  0.00     0.037 A 
HETATM   25  C   UNL     1      43.269  -9.812  11.689  1.00  0.00     0.068 A 
HETATM   26  C   UNL     1      42.053  -9.348  11.191  1.00  0.00     0.037 A 
HETATM   27  C   UNL     1      41.636  -9.709   9.905  1.00  0.00     0.012 A 
BRANCH  25  28
HETATM   28  O   UNL     1      43.797  -9.513  12.914  1.00  0.00    -0.356 OA
HETATM   29  C   UNL     1      42.898  -9.577  14.017  1.00  0.00     0.210 C 
ENDBRANCH  25  28
ENDBRANCH   1  22
BRANCH   8  30
HETATM   30  C   UNL     1      40.465 -10.013   5.034  1.00  0.00     0.409 C 
HETATM   31  F   UNL     1      41.713 -10.148   4.534  1.00  0.00    -0.169 F 
HETATM   32  F   UNL     1      39.606  -9.963   3.996  1.00  0.00    -0.169 F 
HETATM   33  F   UNL     1      40.420  -8.792   5.628  1.00  0.00    -0.169 F 
ENDBRANCH   8  30
TORSDOF 6
ENDMDL
