MODEL 1
REMARK VINA RESULT:      -8.2      0.000      0.000
REMARK  3 active torsions:
REMARK  status: ('A' for Active; 'I' for Inactive)
REMARK    1  A    between atoms: C_3  and  C_4 
REMARK    2  A    between atoms: C_10  and  C_11 
REMARK    3  A    between atoms: C_14  and  O_15 
ROOT
HETATM    1  C   UNL     1      39.946 -14.377  -0.416  1.00  0.00    -0.007 A 
HETATM    2  C   UNL     1      41.078 -15.205  -0.446  1.00  0.00     0.047 A 
HETATM    3  C   UNL     1      41.349 -16.024   0.662  1.00  0.00     0.086 A 
HETATM    4  C   UNL     1      40.502 -16.000   1.759  1.00  0.00     0.063 A 
HETATM    5  N   UNL     1      41.053 -16.908   2.626  1.00  0.00    -0.338 N 
HETATM    6  H   UNL     1      40.672 -17.163   3.523  1.00  0.00     0.167 HD
HETATM    7  C   UNL     1      42.185 -17.445   2.052  1.00  0.00     0.139 A 
HETATM    8  N   UNL     1      42.373 -16.914   0.855  1.00  0.00    -0.228 NA
HETATM    9  C   UNL     1      39.371 -15.193   1.833  1.00  0.00     0.033 A 
HETATM   10  C   UNL     1      39.113 -14.380   0.720  1.00  0.00     0.016 A 
ENDROOT
BRANCH   1  11
HETATM   11  C   UNL     1      39.570 -13.491  -1.575  1.00  0.00     0.069 C 
HETATM   12  C   UNL     1      40.167 -13.750  -2.953  1.00  0.00     0.045 C 
HETATM   13  C   UNL     1      39.337 -14.817  -3.668  1.00  0.00     0.017 C 
HETATM   14  C   UNL     1      40.224 -12.452  -3.746  1.00  0.00     0.115 C 
HETATM   15  C   UNL     1      38.951 -11.668  -3.628  1.00  0.00     0.238 C 
HETATM   16  N   UNL     1      38.303 -11.780  -2.426  1.00  0.00    -0.247 N 
HETATM   17  O   UNL     1      38.554 -10.916  -4.514  1.00  0.00    -0.272 OA
HETATM   18  N   UNL     1      38.670 -12.568  -1.383  1.00  0.00    -0.176 NA
HETATM   19  H   UNL     1      37.497 -11.178  -2.280  1.00  0.00     0.192 HD
ENDBRANCH   1  11
BRANCH   7  20
HETATM   20  C   UNL     1      43.022 -18.477   2.675  1.00  0.00     0.010 A 
HETATM   21  C   UNL     1      43.335 -18.371   4.037  1.00  0.00     0.018 A 
HETATM   22  C   UNL     1      44.140 -19.326   4.664  1.00  0.00     0.037 A 
HETATM   23  C   UNL     1      44.645 -20.411   3.949  1.00  0.00     0.068 A 
HETATM   24  C   UNL     1      44.332 -20.533   2.595  1.00  0.00     0.037 A 
HETATM   25  C   UNL     1      43.526 -19.574   1.964  1.00  0.00     0.018 A 
BRANCH  23  26
HETATM   26  O   UNL     1      45.420 -21.268   4.679  1.00  0.00    -0.356 OA
HETATM   27  C   UNL     1      44.847 -22.524   5.020  1.00  0.00     0.210 C 
ENDBRANCH  23  26
ENDBRANCH   7  20
TORSDOF 3
ENDMDL
MODEL 2
REMARK VINA RESULT:      -8.0      5.526      9.345
REMARK  3 active torsions:
REMARK  status: ('A' for Active; 'I' for Inactive)
REMARK    1  A    between atoms: C_3  and  C_4 
REMARK    2  A    between atoms: C_10  and  C_11 
REMARK    3  A    between atoms: C_14  and  O_15 
ROOT
HETATM    1  C   UNL     1      42.633 -17.654   4.340  1.00  0.00    -0.007 A 
HETATM    2  C   UNL     1      42.969 -16.330   4.021  1.00  0.00     0.047 A 
HETATM    3  C   UNL     1      42.371 -15.285   4.744  1.00  0.00     0.086 A 
HETATM    4  C   UNL     1      41.466 -15.575   5.752  1.00  0.00     0.063 A 
HETATM    5  N   UNL     1      41.101 -14.347   6.238  1.00  0.00    -0.338 N 
HETATM    6  H   UNL     1      40.467 -14.187   7.005  1.00  0.00     0.167 HD
HETATM    7  C   UNL     1      41.773 -13.369   5.536  1.00  0.00     0.139 A 
HETATM    8  N   UNL     1      42.551 -13.931   4.625  1.00  0.00    -0.228 NA
HETATM    9  C   UNL     1      41.101 -16.873   6.101  1.00  0.00     0.033 A 
HETATM   10  C   UNL     1      41.704 -17.906   5.370  1.00  0.00     0.016 A 
ENDROOT
BRANCH   1  11
HETATM   11  C   UNL     1      43.250 -18.831   3.632  1.00  0.00     0.069 C 
HETATM   12  C   UNL     1      42.935 -19.082   2.161  1.00  0.00     0.045 C 
HETATM   13  C   UNL     1      43.871 -18.236   1.296  1.00  0.00     0.017 C 
HETATM   14  C   UNL     1      43.063 -20.566   1.849  1.00  0.00     0.115 C 
HETATM   15  C   UNL     1      44.302 -21.159   2.452  1.00  0.00     0.238 C 
HETATM   16  N   UNL     1      44.695 -20.612   3.644  1.00  0.00    -0.247 N 
HETATM   17  O   UNL     1      44.883 -22.120   1.955  1.00  0.00    -0.272 OA
HETATM   18  N   UNL     1      44.111 -19.564   4.281  1.00  0.00    -0.176 NA
HETATM   19  H   UNL     1      45.466 -21.064   4.126  1.00  0.00     0.192 HD
ENDBRANCH   1  11
BRANCH   7  20
HETATM   20  C   UNL     1      41.659 -11.931   5.798  1.00  0.00     0.010 A 
HETATM   21  C   UNL     1      41.786 -11.464   7.113  1.00  0.00     0.018 A 
HETATM   22  C   UNL     1      41.671 -10.103   7.406  1.00  0.00     0.037 A 
HETATM   23  C   UNL     1      41.433  -9.175   6.392  1.00  0.00     0.068 A 
HETATM   24  C   UNL     1      41.315  -9.625   5.078  1.00  0.00     0.037 A 
HETATM   25  C   UNL     1      41.428 -10.992   4.783  1.00  0.00     0.018 A 
BRANCH  23  26
HETATM   26  O   UNL     1      41.338  -7.878   6.813  1.00  0.00    -0.356 OA
HETATM   27  C   UNL     1      40.786  -7.657   8.104  1.00  0.00     0.210 C 
ENDBRANCH  23  26
ENDBRANCH   7  20
TORSDOF 3
ENDMDL
MODEL 3
REMARK VINA RESULT:      -8.0      5.241      9.518
REMARK  3 active torsions:
REMARK  status: ('A' for Active; 'I' for Inactive)
REMARK    1  A    between atoms: C_3  and  C_4 
REMARK    2  A    between atoms: C_10  and  C_11 
REMARK    3  A    between atoms: C_14  and  O_15 
ROOT
HETATM    1  C   UNL     1      43.333 -17.781   4.465  1.00  0.00    -0.007 A 
HETATM    2  C   UNL     1      42.355 -16.887   4.004  1.00  0.00     0.047 A 
HETATM    3  C   UNL     1      42.089 -15.728   4.752  1.00  0.00     0.086 A 
HETATM    4  C   UNL     1      42.790 -15.489   5.923  1.00  0.00     0.063 A 
HETATM    5  N   UNL     1      42.292 -14.294   6.373  1.00  0.00    -0.338 N 
HETATM    6  H   UNL     1      42.602 -13.805   7.198  1.00  0.00     0.167 HD
HETATM    7  C   UNL     1      41.331 -13.849   5.490  1.00  0.00     0.139 A 
HETATM    8  N   UNL     1      41.202 -14.715   4.498  1.00  0.00    -0.228 NA
HETATM    9  C   UNL     1      43.765 -16.350   6.419  1.00  0.00     0.033 A 
HETATM   10  C   UNL     1      44.019 -17.503   5.664  1.00  0.00     0.016 A 
ENDROOT
BRANCH   1  11
HETATM   11  C   UNL     1      43.697 -19.031   3.708  1.00  0.00     0.069 C 
HETATM   12  C   UNL     1      43.185 -19.233   2.286  1.00  0.00     0.045 C 
HETATM   13  C   UNL     1      44.123 -18.524   1.309  1.00  0.00     0.017 C 
HETATM   14  C   UNL     1      43.070 -20.720   1.982  1.00  0.00     0.115 C 
HETATM   15  C   UNL     1      44.275 -21.480   2.448  1.00  0.00     0.238 C 
HETATM   16  N   UNL     1      44.873 -20.996   3.581  1.00  0.00    -0.247 N 
HETATM   17  O   UNL     1      44.658 -22.512   1.902  1.00  0.00    -0.272 OA
HETATM   18  N   UNL     1      44.516 -19.878   4.265  1.00  0.00    -0.176 NA
HETATM   19  H   UNL     1      45.625 -21.551   3.979  1.00  0.00     0.192 HD
ENDBRANCH   1  11
BRANCH   7  20
HETATM   20  C   UNL     1      40.599 -12.584   5.627  1.00  0.00     0.010 A 
HETATM   21  C   UNL     1      39.679 -12.218   4.636  1.00  0.00     0.018 A 
HETATM   22  C   UNL     1      38.971 -11.017   4.723  1.00  0.00     0.037 A 
HETATM   23  C   UNL     1      39.161 -10.156   5.804  1.00  0.00     0.068 A 
HETATM   24  C   UNL     1      40.066 -10.514   6.802  1.00  0.00     0.037 A 
HETATM   25  C   UNL     1      40.778 -11.719   6.715  1.00  0.00     0.018 A 
BRANCH  23  26
HETATM   26  O   UNL     1      38.411  -9.014   5.766  1.00  0.00    -0.356 OA
HETATM   27  C   UNL     1      38.812  -7.950   6.618  1.00  0.00     0.210 C 
ENDBRANCH  23  26
ENDBRANCH   7  20
TORSDOF 3
ENDMDL
MODEL 4
REMARK VINA RESULT:      -7.9      2.159      3.076
REMARK  3 active torsions:
REMARK  status: ('A' for Active; 'I' for Inactive)
REMARK    1  A    between atoms: C_3  and  C_4 
REMARK    2  A    between atoms: C_10  and  C_11 
REMARK    3  A    between atoms: C_14  and  O_15 
ROOT
HETATM    1  C   UNL     1      39.488 -14.081   0.907  1.00  0.00    -0.007 A 
HETATM    2  C   UNL     1      39.848 -14.854   2.021  1.00  0.00     0.047 A 
HETATM    3  C   UNL     1      40.823 -15.852   1.868  1.00  0.00     0.086 A 
HETATM    4  C   UNL     1      41.409 -16.059   0.629  1.00  0.00     0.063 A 
HETATM    5  N   UNL     1      42.300 -17.077   0.846  1.00  0.00    -0.338 N 
HETATM    6  H   UNL     1      42.922 -17.466   0.155  1.00  0.00     0.167 HD
HETATM    7  C   UNL     1      42.237 -17.453   2.170  1.00  0.00     0.139 A 
HETATM    8  N   UNL     1      41.342 -16.711   2.802  1.00  0.00    -0.228 NA
HETATM    9  C   UNL     1      41.080 -15.319  -0.504  1.00  0.00     0.033 A 
HETATM   10  C   UNL     1      40.104 -14.326  -0.337  1.00  0.00     0.016 A 
ENDROOT
BRANCH   1  11
HETATM   11  C   UNL     1      38.472 -12.973   0.994  1.00  0.00     0.069 C 
HETATM   12  C   UNL     1      38.896 -11.592   1.482  1.00  0.00     0.045 C 
HETATM   13  C   UNL     1      39.469 -10.798   0.308  1.00  0.00     0.017 C 
HETATM   14  C   UNL     1      37.710 -10.882   2.121  1.00  0.00     0.115 C 
HETATM   15  C   UNL     1      36.464 -11.025   1.299  1.00  0.00     0.238 C 
HETATM   16  N   UNL     1      36.345 -12.205   0.614  1.00  0.00    -0.247 N 
HETATM   17  O   UNL     1      35.573 -10.180   1.298  1.00  0.00    -0.272 OA
HETATM   18  N   UNL     1      37.263 -13.205   0.566  1.00  0.00    -0.176 NA
HETATM   19  H   UNL     1      35.464 -12.373   0.136  1.00  0.00     0.192 HD
ENDBRANCH   1  11
BRANCH   7  20
HETATM   20  C   UNL     1      43.071 -18.495   2.779  1.00  0.00     0.010 A 
HETATM   21  C   UNL     1      43.429 -18.381   4.128  1.00  0.00     0.018 A 
HETATM   22  C   UNL     1      44.233 -19.346   4.741  1.00  0.00     0.037 A 
HETATM   23  C   UNL     1      44.692 -20.450   4.023  1.00  0.00     0.068 A 
HETATM   24  C   UNL     1      44.334 -20.581   2.682  1.00  0.00     0.037 A 
HETATM   25  C   UNL     1      43.529 -19.612   2.066  1.00  0.00     0.018 A 
BRANCH  23  26
HETATM   26  O   UNL     1      45.471 -21.316   4.739  1.00  0.00    -0.356 OA
HETATM   27  C   UNL     1      44.922 -22.597   5.019  1.00  0.00     0.210 C 
ENDBRANCH  23  26
ENDBRANCH   7  20
TORSDOF 3
ENDMDL
MODEL 5
REMARK VINA RESULT:      -7.8      2.488      9.530
REMARK  3 active torsions:
REMARK  status: ('A' for Active; 'I' for Inactive)
REMARK    1  A    between atoms: C_3  and  C_4 
REMARK    2  A    between atoms: C_10  and  C_11 
REMARK    3  A    between atoms: C_14  and  O_15 
ROOT
HETATM    1  C   UNL     1      43.063 -17.525   3.676  1.00  0.00    -0.007 A 
HETATM    2  C   UNL     1      42.155 -16.516   3.320  1.00  0.00     0.047 A 
HETATM    3  C   UNL     1      41.915 -16.268   1.959  1.00  0.00     0.086 A 
HETATM    4  C   UNL     1      42.575 -17.017   0.996  1.00  0.00     0.063 A 
HETATM    5  N   UNL     1      42.102 -16.524  -0.192  1.00  0.00    -0.338 N 
HETATM    6  H   UNL     1      42.355 -16.863  -1.107  1.00  0.00     0.167 HD
HETATM    7  C   UNL     1      41.195 -15.519   0.068  1.00  0.00     0.139 A 
HETATM    8  N   UNL     1      41.073 -15.358   1.376  1.00  0.00    -0.228 NA
HETATM    9  C   UNL     1      43.485 -18.024   1.303  1.00  0.00     0.033 A 
HETATM   10  C   UNL     1      43.716 -18.260   2.666  1.00  0.00     0.016 A 
ENDROOT
BRANCH   1  11
HETATM   11  C   UNL     1      43.354 -17.871   5.113  1.00  0.00     0.069 C 
HETATM   12  C   UNL     1      43.025 -16.871   6.216  1.00  0.00     0.045 C 
HETATM   13  C   UNL     1      41.556 -17.026   6.612  1.00  0.00     0.017 C 
HETATM   14  C   UNL     1      43.956 -17.082   7.401  1.00  0.00     0.115 C 
HETATM   15  C   UNL     1      44.107 -18.535   7.741  1.00  0.00     0.238 C 
HETATM   16  N   UNL     1      44.049 -19.396   6.678  1.00  0.00    -0.247 N 
HETATM   17  O   UNL     1      44.346 -18.925   8.881  1.00  0.00    -0.272 OA
HETATM   18  N   UNL     1      43.808 -19.062   5.383  1.00  0.00    -0.176 NA
HETATM   19  H   UNL     1      44.254 -20.373   6.865  1.00  0.00     0.192 HD
ENDBRANCH   1  11
BRANCH   7  20
HETATM   20  C   UNL     1      40.458 -14.778  -0.961  1.00  0.00     0.010 A 
HETATM   21  C   UNL     1      39.385 -13.962  -0.578  1.00  0.00     0.018 A 
HETATM   22  C   UNL     1      38.650 -13.250  -1.528  1.00  0.00     0.037 A 
HETATM   23  C   UNL     1      38.973 -13.330  -2.883  1.00  0.00     0.068 A 
HETATM   24  C   UNL     1      40.045 -14.129  -3.276  1.00  0.00     0.037 A 
HETATM   25  C   UNL     1      40.782 -14.847  -2.323  1.00  0.00     0.018 A 
BRANCH  23  26
HETATM   26  O   UNL     1      38.175 -12.588  -3.707  1.00  0.00    -0.356 OA
HETATM   27  C   UNL     1      36.848 -13.055  -3.914  1.00  0.00     0.210 C 
ENDBRANCH  23  26
ENDBRANCH   7  20
TORSDOF 3
ENDMDL
MODEL 6
REMARK VINA RESULT:      -7.5      5.587      9.652
REMARK  3 active torsions:
REMARK  status: ('A' for Active; 'I' for Inactive)
REMARK    1  A    between atoms: C_3  and  C_4 
REMARK    2  A    between atoms: C_10  and  C_11 
REMARK    3  A    between atoms: C_14  and  O_15 
ROOT
HETATM    1  C   UNL     1      43.642 -17.734   4.613  1.00  0.00    -0.007 A 
HETATM    2  C   UNL     1      42.889 -16.654   4.129  1.00  0.00     0.047 A 
HETATM    3  C   UNL     1      42.797 -15.489   4.906  1.00  0.00     0.086 A 
HETATM    4  C   UNL     1      43.445 -15.424   6.130  1.00  0.00     0.063 A 
HETATM    5  N   UNL     1      43.154 -14.168   6.596  1.00  0.00    -0.338 N 
HETATM    6  H   UNL     1      43.491 -13.774   7.460  1.00  0.00     0.167 HD
HETATM    7  C   UNL     1      42.362 -13.520   5.673  1.00  0.00     0.139 A 
HETATM    8  N   UNL     1      42.141 -14.315   4.639  1.00  0.00    -0.228 NA
HETATM    9  C   UNL     1      44.199 -16.472   6.651  1.00  0.00     0.033 A 
HETATM   10  C   UNL     1      44.282 -17.630   5.865  1.00  0.00     0.016 A 
ENDROOT
BRANCH   1  11
HETATM   11  C   UNL     1      43.814 -19.008   3.828  1.00  0.00     0.069 C 
HETATM   12  C   UNL     1      44.849 -20.037   4.269  1.00  0.00     0.045 C 
HETATM   13  C   UNL     1      44.238 -20.936   5.345  1.00  0.00     0.017 C 
HETATM   14  C   UNL     1      45.327 -20.839   3.067  1.00  0.00     0.115 C 
HETATM   15  C   UNL     1      44.188 -21.266   2.190  1.00  0.00     0.238 C 
HETATM   16  N   UNL     1      43.133 -20.394   2.132  1.00  0.00    -0.247 N 
HETATM   17  O   UNL     1      44.225 -22.287   1.509  1.00  0.00    -0.272 OA
HETATM   18  N   UNL     1      43.006 -19.236   2.831  1.00  0.00    -0.176 NA
HETATM   19  H   UNL     1      42.397 -20.606   1.466  1.00  0.00     0.192 HD
ENDBRANCH   1  11
BRANCH   7  20
HETATM   20  C   UNL     1      41.877 -12.143   5.816  1.00  0.00     0.010 A 
HETATM   21  C   UNL     1      41.986 -11.507   7.059  1.00  0.00     0.018 A 
HETATM   22  C   UNL     1      41.525 -10.200   7.240  1.00  0.00     0.037 A 
HETATM   23  C   UNL     1      40.952  -9.496   6.182  1.00  0.00     0.068 A 
HETATM   24  C   UNL     1      40.848 -10.113   4.936  1.00  0.00     0.037 A 
HETATM   25  C   UNL     1      41.308 -11.426   4.755  1.00  0.00     0.018 A 
BRANCH  23  26
HETATM   26  O   UNL     1      40.540  -8.230   6.492  1.00  0.00    -0.356 OA
HETATM   27  C   UNL     1      39.974  -8.033   7.781  1.00  0.00     0.210 C 
ENDBRANCH  23  26
ENDBRANCH   7  20
TORSDOF 3
ENDMDL
MODEL 7
REMARK VINA RESULT:      -7.3      2.648      9.862
REMARK  3 active torsions:
REMARK  status: ('A' for Active; 'I' for Inactive)
REMARK    1  A    between atoms: C_3  and  C_4 
REMARK    2  A    between atoms: C_10  and  C_11 
REMARK    3  A    between atoms: C_14  and  O_15 
ROOT
HETATM    1  C   UNL     1      42.283 -17.406   4.281  1.00  0.00    -0.007 A 
HETATM    2  C   UNL     1      41.502 -16.243   4.205  1.00  0.00     0.047 A 
HETATM    3  C   UNL     1      40.914 -15.901   2.977  1.00  0.00     0.086 A 
HETATM    4  C   UNL     1      41.113 -16.709   1.869  1.00  0.00     0.063 A 
HETATM    5  N   UNL     1      40.401 -16.092   0.873  1.00  0.00    -0.338 N 
HETATM    6  H   UNL     1      40.305 -16.431  -0.071  1.00  0.00     0.167 HD
HETATM    7  C   UNL     1      39.804 -14.960   1.384  1.00  0.00     0.139 A 
HETATM    8  N   UNL     1      40.109 -14.836   2.666  1.00  0.00    -0.228 NA
HETATM    9  C   UNL     1      41.882 -17.869   1.897  1.00  0.00     0.033 A 
HETATM   10  C   UNL     1      42.465 -18.198   3.130  1.00  0.00     0.016 A 
ENDROOT
BRANCH   1  11
HETATM   11  C   UNL     1      42.925 -17.858   5.567  1.00  0.00     0.069 C 
HETATM   12  C   UNL     1      43.690 -19.176   5.610  1.00  0.00     0.045 C 
HETATM   13  C   UNL     1      45.123 -18.942   5.129  1.00  0.00     0.017 C 
HETATM   14  C   UNL     1      43.653 -19.751   7.019  1.00  0.00     0.115 C 
HETATM   15  C   UNL     1      43.925 -18.704   8.057  1.00  0.00     0.238 C 
HETATM   16  N   UNL     1      43.477 -17.446   7.754  1.00  0.00    -0.247 N 
HETATM   17  O   UNL     1      44.444 -18.965   9.139  1.00  0.00    -0.272 OA
HETATM   18  N   UNL     1      42.878 -17.061   6.597  1.00  0.00    -0.176 NA
HETATM   19  H   UNL     1      43.552 -16.742   8.482  1.00  0.00     0.192 HD
ENDBRANCH   1  11
BRANCH   7  20
HETATM   20  C   UNL     1      38.935 -14.061   0.617  1.00  0.00     0.010 A 
HETATM   21  C   UNL     1      39.136 -13.930  -0.763  1.00  0.00     0.018 A 
HETATM   22  C   UNL     1      38.338 -13.075  -1.527  1.00  0.00     0.037 A 
HETATM   23  C   UNL     1      37.317 -12.335  -0.932  1.00  0.00     0.068 A 
HETATM   24  C   UNL     1      37.099 -12.463   0.439  1.00  0.00     0.037 A 
HETATM   25  C   UNL     1      37.901 -13.320   1.207  1.00  0.00     0.018 A 
BRANCH  23  26
HETATM   26  O   UNL     1      36.614 -11.535  -1.789  1.00  0.00    -0.356 OA
HETATM   27  C   UNL     1      36.825 -10.133  -1.684  1.00  0.00     0.210 C 
ENDBRANCH  23  26
ENDBRANCH   7  20
TORSDOF 3
ENDMDL
MODEL 8
REMARK VINA RESULT:      -7.3      3.698      9.304
REMARK  3 active torsions:
REMARK  status: ('A' for Active; 'I' for Inactive)
REMARK    1  A    between atoms: C_3  and  C_4 
REMARK    2  A    between atoms: C_10  and  C_11 
REMARK    3  A    between atoms: C_14  and  O_15 
ROOT
HETATM    1  C   UNL     1      42.718 -17.902   2.232  1.00  0.00    -0.007 A 
HETATM    2  C   UNL     1      42.085 -17.188   3.261  1.00  0.00     0.047 A 
HETATM    3  C   UNL     1      41.546 -15.923   2.977  1.00  0.00     0.086 A 
HETATM    4  C   UNL     1      41.648 -15.403   1.696  1.00  0.00     0.063 A 
HETATM    5  N   UNL     1      41.018 -14.188   1.777  1.00  0.00    -0.338 N 
HETATM    6  H   UNL     1      40.884 -13.548   1.011  1.00  0.00     0.167 HD
HETATM    7  C   UNL     1      40.563 -14.005   3.065  1.00  0.00     0.139 A 
HETATM    8  N   UNL     1      40.878 -15.057   3.803  1.00  0.00    -0.228 NA
HETATM    9  C   UNL     1      42.269 -16.074   0.646  1.00  0.00     0.033 A 
HETATM   10  C   UNL     1      42.804 -17.336   0.944  1.00  0.00     0.016 A 
ENDROOT
BRANCH   1  11
HETATM   11  C   UNL     1      43.297 -19.276   2.448  1.00  0.00     0.069 C 
HETATM   12  C   UNL     1      44.401 -19.480   3.479  1.00  0.00     0.045 C 
HETATM   13  C   UNL     1      43.770 -19.672   4.859  1.00  0.00     0.017 C 
HETATM   14  C   UNL     1      45.267 -20.668   3.083  1.00  0.00     0.115 C 
HETATM   15  C   UNL     1      44.441 -21.839   2.642  1.00  0.00     0.238 C 
HETATM   16  N   UNL     1      43.270 -21.525   2.004  1.00  0.00    -0.247 N 
HETATM   17  O   UNL     1      44.820 -23.000   2.771  1.00  0.00    -0.272 OA
HETATM   18  N   UNL     1      42.775 -20.277   1.798  1.00  0.00    -0.176 NA
HETATM   19  H   UNL     1      42.745 -22.295   1.601  1.00  0.00     0.192 HD
ENDBRANCH   1  11
BRANCH   7  20
HETATM   20  C   UNL     1      39.813 -12.830   3.522  1.00  0.00     0.010 A 
HETATM   21  C   UNL     1      38.983 -12.156   2.616  1.00  0.00     0.018 A 
HETATM   22  C   UNL     1      38.261 -11.026   3.007  1.00  0.00     0.037 A 
HETATM   23  C   UNL     1      38.346 -10.546   4.314  1.00  0.00     0.068 A 
HETATM   24  C   UNL     1      39.159 -11.214   5.229  1.00  0.00     0.037 A 
HETATM   25  C   UNL     1      39.886 -12.347   4.835  1.00  0.00     0.018 A 
BRANCH  23  26
HETATM   26  O   UNL     1      37.593  -9.433   4.566  1.00  0.00    -0.356 OA
HETATM   27  C   UNL     1      36.636  -9.065   3.581  1.00  0.00     0.210 C 
ENDBRANCH  23  26
ENDBRANCH   7  20
TORSDOF 3
ENDMDL
MODEL 9
REMARK VINA RESULT:      -7.3      2.879      9.394
REMARK  3 active torsions:
REMARK  status: ('A' for Active; 'I' for Inactive)
REMARK    1  A    between atoms: C_3  and  C_4 
REMARK    2  A    between atoms: C_10  and  C_11 
REMARK    3  A    between atoms: C_14  and  O_15 
ROOT
HETATM    1  C   UNL     1      42.271 -16.818   3.238  1.00  0.00    -0.007 A 
HETATM    2  C   UNL     1      42.396 -15.540   2.674  1.00  0.00     0.047 A 
HETATM    3  C   UNL     1      42.032 -15.353   1.331  1.00  0.00     0.086 A 
HETATM    4  C   UNL     1      41.561 -16.426   0.589  1.00  0.00     0.063 A 
HETATM    5  N   UNL     1      41.299 -15.890  -0.645  1.00  0.00    -0.338 N 
HETATM    6  H   UNL     1      40.914 -16.391  -1.429  1.00  0.00     0.167 HD
HETATM    7  C   UNL     1      41.607 -14.546  -0.624  1.00  0.00     0.139 A 
HETATM    8  N   UNL     1      42.053 -14.210   0.575  1.00  0.00    -0.228 NA
HETATM    9  C   UNL     1      41.424 -17.711   1.107  1.00  0.00     0.033 A 
HETATM   10  C   UNL     1      41.792 -17.883   2.449  1.00  0.00     0.016 A 
ENDROOT
BRANCH   1  11
HETATM   11  C   UNL     1      42.613 -17.095   4.679  1.00  0.00     0.069 C 
HETATM   12  C   UNL     1      42.139 -16.140   5.768  1.00  0.00     0.045 C 
HETATM   13  C   UNL     1      40.711 -16.507   6.172  1.00  0.00     0.017 C 
HETATM   14  C   UNL     1      43.093 -16.191   6.953  1.00  0.00     0.115 C 
HETATM   15  C   UNL     1      43.462 -17.599   7.314  1.00  0.00     0.238 C 
HETATM   16  N   UNL     1      43.531 -18.475   6.264  1.00  0.00    -0.247 N 
HETATM   17  O   UNL     1      43.758 -17.931   8.459  1.00  0.00    -0.272 OA
HETATM   18  N   UNL     1      43.241 -18.201   4.966  1.00  0.00    -0.176 NA
HETATM   19  H   UNL     1      43.881 -19.407   6.464  1.00  0.00     0.192 HD
ENDBRANCH   1  11
BRANCH   7  20
HETATM   20  C   UNL     1      41.427 -13.635  -1.760  1.00  0.00     0.010 A 
HETATM   21  C   UNL     1      42.539 -12.956  -2.273  1.00  0.00     0.018 A 
HETATM   22  C   UNL     1      42.407 -12.070  -3.345  1.00  0.00     0.037 A 
HETATM   23  C   UNL     1      41.163 -11.847  -3.934  1.00  0.00     0.068 A 
HETATM   24  C   UNL     1      40.050 -12.525  -3.440  1.00  0.00     0.037 A 
HETATM   25  C   UNL     1      40.181 -13.413  -2.362  1.00  0.00     0.018 A 
BRANCH  23  26
HETATM   26  O   UNL     1      41.171 -10.956  -4.971  1.00  0.00    -0.356 OA
HETATM   27  C   UNL     1      42.193  -9.967  -4.965  1.00  0.00     0.210 C 
ENDBRANCH  23  26
ENDBRANCH   7  20
TORSDOF 3
ENDMDL
MODEL 10
REMARK VINA RESULT:      -7.2      5.662      7.142
REMARK  3 active torsions:
REMARK  status: ('A' for Active; 'I' for Inactive)
REMARK    1  A    between atoms: C_3  and  C_4 
REMARK    2  A    between atoms: C_10  and  C_11 
REMARK    3  A    between atoms: C_14  and  O_15 
ROOT
HETATM    1  C   UNL     1      40.806 -12.170   5.868  1.00  0.00    -0.007 A 
HETATM    2  C   UNL     1      41.811 -13.139   5.999  1.00  0.00     0.047 A 
HETATM    3  C   UNL     1      41.818 -14.233   5.119  1.00  0.00     0.086 A 
HETATM    4  C   UNL     1      40.839 -14.338   4.144  1.00  0.00     0.063 A 
HETATM    5  N   UNL     1      41.153 -15.494   3.478  1.00  0.00    -0.338 N 
HETATM    6  H   UNL     1      40.657 -15.862   2.682  1.00  0.00     0.167 HD
HETATM    7  C   UNL     1      42.282 -16.046   4.046  1.00  0.00     0.139 A 
HETATM    8  N   UNL     1      42.695 -15.284   5.045  1.00  0.00    -0.228 NA
HETATM    9  C   UNL     1      39.821 -13.403   3.980  1.00  0.00     0.033 A 
HETATM   10  C   UNL     1      39.826 -12.316   4.866  1.00  0.00     0.016 A 
ENDROOT
BRANCH   1  11
HETATM   11  C   UNL     1      40.745 -10.952   6.753  1.00  0.00     0.069 C 
HETATM   12  C   UNL     1      39.427 -10.555   7.408  1.00  0.00     0.045 C 
HETATM   13  C   UNL     1      39.252 -11.347   8.705  1.00  0.00     0.017 C 
HETATM   14  C   UNL     1      39.401  -9.054   7.653  1.00  0.00     0.115 C 
HETATM   15  C   UNL     1      40.692  -8.560   8.234  1.00  0.00     0.238 C 
HETATM   16  N   UNL     1      41.815  -9.228   7.822  1.00  0.00    -0.247 N 
HETATM   17  O   UNL     1      40.754  -7.576   8.967  1.00  0.00    -0.272 OA
HETATM   18  N   UNL     1      41.852 -10.312   7.003  1.00  0.00    -0.176 NA
HETATM   19  H   UNL     1      42.710  -8.849   8.115  1.00  0.00     0.192 HD
ENDBRANCH   1  11
BRANCH   7  20
HETATM   20  C   UNL     1      42.933 -17.273   3.575  1.00  0.00     0.010 A 
HETATM   21  C   UNL     1      43.462 -18.168   4.515  1.00  0.00     0.018 A 
HETATM   22  C   UNL     1      44.101 -19.342   4.107  1.00  0.00     0.037 A 
HETATM   23  C   UNL     1      44.221 -19.652   2.753  1.00  0.00     0.068 A 
HETATM   24  C   UNL     1      43.690 -18.776   1.808  1.00  0.00     0.037 A 
HETATM   25  C   UNL     1      43.050 -17.596   2.217  1.00  0.00     0.018 A 
BRANCH  23  26
HETATM   26  O   UNL     1      44.870 -20.826   2.490  1.00  0.00    -0.356 OA
HETATM   27  C   UNL     1      44.121 -21.846   1.841  1.00  0.00     0.210 C 
ENDBRANCH  23  26
ENDBRANCH   7  20
TORSDOF 3
ENDMDL
