MODEL 1
REMARK VINA RESULT:      -9.3      0.000      0.000
REMARK  8 active torsions:
REMARK  status: ('A' for Active; 'I' for Inactive)
REMARK    1  A    between atoms: C_4  and  S_5 
REMARK    2  A    between atoms: S_5  and  C_6 
REMARK    3  A    between atoms: C_6  and  C_7 
REMARK       I    between atoms: C_7  and  N_8 
REMARK    4  A    between atoms: N_8  and  C_9 
REMARK    5  A    between atoms: C_9  and  C_10 
REMARK    6  A    between atoms: C_20  and  C_21 
REMARK    7  A    between atoms: C_26  and  C_27 
REMARK       I    between atoms: C_27  and  N_28 
REMARK    8  A    between atoms: N_28  and  C_29 
ROOT
HETATM    1  C   UNL     1      43.831 -14.347   6.177  1.00  0.00     0.069 C 
HETATM    2  C   UNL     1      42.719 -13.675   5.409  1.00  0.00     0.019 C 
HETATM    3  N   UNL     1      42.460 -12.351   5.749  1.00  0.00    -0.353 N 
HETATM    4  C   UNL     1      41.270 -11.700   5.442  1.00  0.00     0.087 C 
HETATM    5  C   UNL     1      40.480 -12.237   4.474  1.00  0.00     0.057 C 
HETATM    6  C   UNL     1      39.118 -11.644   4.150  1.00  0.00     0.019 C 
HETATM    7  N   UNL     1      37.988 -11.152   3.881  1.00  0.00    -0.096 N 
HETATM    8  C   UNL     1      40.896 -13.494   3.719  1.00  0.00     0.129 C 
HETATM    9  C   UNL     1      41.968 -14.279   4.460  1.00  0.00     0.048 C 
HETATM   10  H   UNL     1      42.938 -12.031   6.584  1.00  0.00     0.166 HD
ENDROOT
BRANCH   4  11
HETATM   11  S   UNL     1      40.715 -10.249   6.276  1.00  0.00    -0.102 SA
BRANCH  11  12
HETATM   12  C   UNL     1      40.491 -10.767   7.995  1.00  0.00     0.183 C 
BRANCH  12  13
HETATM   13  C   UNL     1      41.792 -10.739   8.786  1.00  0.00     0.227 C 
HETATM   14  N   UNL     1      41.747 -11.321  10.034  1.00  0.00    -0.356 N 
HETATM   15  H   UNL     1      40.844 -11.319  10.495  1.00  0.00     0.162 HD
HETATM   16  O   UNL     1      42.833 -10.322   8.282  1.00  0.00    -0.273 OA
BRANCH  14  17
HETATM   17  C   UNL     1      42.926 -11.359  10.872  1.00  0.00     0.161 C 
BRANCH  17  18
HETATM   18  C   UNL     1      42.760 -10.709  12.226  1.00  0.00    -0.041 A 
HETATM   19  C   UNL     1      43.618  -9.714  12.718  1.00  0.00     0.009 A 
HETATM   20  C   UNL     1      43.395  -9.135  13.970  1.00  0.00     0.001 A 
HETATM   21  C   UNL     1      42.301  -9.525  14.739  1.00  0.00     0.000 A 
HETATM   22  C   UNL     1      41.430 -10.497  14.258  1.00  0.00     0.001 A 
HETATM   23  C   UNL     1      41.657 -11.084  13.013  1.00  0.00     0.009 A 
ENDBRANCH  17  18
ENDBRANCH  14  17
ENDBRANCH  12  13
ENDBRANCH  11  12
ENDBRANCH   4  11
BRANCH   8  24
HETATM   24  C   UNL     1      41.314 -13.177   2.305  1.00  0.00     0.066 A 
HETATM   25  O   UNL     1      41.361 -14.229   1.435  1.00  0.00    -0.326 OA
HETATM   26  C   UNL     1      41.777 -13.735   0.240  1.00  0.00     0.142 A 
HETATM   27  C   UNL     1      42.024 -12.386   0.335  1.00  0.00     0.027 A 
HETATM   28  C   UNL     1      41.732 -12.023   1.671  1.00  0.00     0.035 A 
ENDBRANCH   8  24
BRANCH   9  29
HETATM   29  C   UNL     1      42.038 -15.760   4.290  1.00  0.00     0.255 C 
HETATM   30  N   UNL     1      43.030 -16.215   3.447  1.00  0.00    -0.322 N 
HETATM   31  H   UNL     1      43.441 -15.552   2.800  1.00  0.00     0.169 HD
HETATM   32  O   UNL     1      41.169 -16.461   4.800  1.00  0.00    -0.268 OA
BRANCH  30  33
HETATM   33  C   UNL     1      43.215 -17.583   3.131  1.00  0.00     0.057 A 
HETATM   34  C   UNL     1      42.584 -18.258   2.068  1.00  0.00     0.062 A 
HETATM   35 CL   UNL     1      41.267 -17.581   1.168  1.00  0.00    -0.082 Cl
HETATM   36  C   UNL     1      42.892 -19.597   1.803  1.00  0.00     0.050 A 
HETATM   37  C   UNL     1      43.806 -20.271   2.607  1.00  0.00     0.035 A 
HETATM   38 CL   UNL     1      44.189 -21.914   2.275  1.00  0.00    -0.084 Cl
HETATM   39  C   UNL     1      44.393 -19.632   3.696  1.00  0.00     0.026 A 
HETATM   40  C   UNL     1      44.086 -18.296   3.967  1.00  0.00     0.033 A 
ENDBRANCH  30  33
ENDBRANCH   9  29
TORSDOF 8
ENDMDL
MODEL 2
REMARK VINA RESULT:      -9.2      1.025      1.609
REMARK  8 active torsions:
REMARK  status: ('A' for Active; 'I' for Inactive)
REMARK    1  A    between atoms: C_4  and  S_5 
REMARK    2  A    between atoms: S_5  and  C_6 
REMARK    3  A    between atoms: C_6  and  C_7 
REMARK       I    between atoms: C_7  and  N_8 
REMARK    4  A    between atoms: N_8  and  C_9 
REMARK    5  A    between atoms: C_9  and  C_10 
REMARK    6  A    between atoms: C_20  and  C_21 
REMARK    7  A    between atoms: C_26  and  C_27 
REMARK       I    between atoms: C_27  and  N_28 
REMARK    8  A    between atoms: N_28  and  C_29 
ROOT
HETATM    1  C   UNL     1      43.786 -14.232   6.127  1.00  0.00     0.069 C 
HETATM    2  C   UNL     1      42.698 -13.581   5.307  1.00  0.00     0.019 C 
HETATM    3  N   UNL     1      42.395 -12.264   5.637  1.00  0.00    -0.353 N 
HETATM    4  C   UNL     1      41.209 -11.636   5.275  1.00  0.00     0.087 C 
HETATM    5  C   UNL     1      40.476 -12.188   4.270  1.00  0.00     0.057 C 
HETATM    6  C   UNL     1      39.119 -11.622   3.883  1.00  0.00     0.019 C 
HETATM    7  N   UNL     1      37.993 -11.153   3.562  1.00  0.00    -0.096 N 
HETATM    8  C   UNL     1      40.952 -13.434   3.533  1.00  0.00     0.129 C 
HETATM    9  C   UNL     1      42.004 -14.199   4.324  1.00  0.00     0.048 C 
HETATM   10  H   UNL     1      42.827 -11.936   6.493  1.00  0.00     0.166 HD
ENDROOT
BRANCH   4  11
HETATM   11  S   UNL     1      40.585 -10.199   6.083  1.00  0.00    -0.102 SA
BRANCH  11  12
HETATM   12  C   UNL     1      40.376 -10.700   7.809  1.00  0.00     0.183 C 
BRANCH  12  13
HETATM   13  C   UNL     1      41.674 -10.621   8.600  1.00  0.00     0.227 C 
HETATM   14  N   UNL     1      41.654 -11.213   9.845  1.00  0.00    -0.356 N 
HETATM   15  H   UNL     1      40.752 -11.253  10.306  1.00  0.00     0.162 HD
HETATM   16  O   UNL     1      42.696 -10.157   8.099  1.00  0.00    -0.273 OA
BRANCH  14  17
HETATM   17  C   UNL     1      42.834 -11.206  10.682  1.00  0.00     0.161 C 
BRANCH  17  18
HETATM   18  C   UNL     1      42.617 -10.657  12.073  1.00  0.00    -0.041 A 
HETATM   19  C   UNL     1      41.531 -11.014  12.886  1.00  0.00     0.009 A 
HETATM   20  C   UNL     1      41.400 -10.488  14.175  1.00  0.00     0.001 A 
HETATM   21  C   UNL     1      42.363  -9.616  14.677  1.00  0.00     0.000 A 
HETATM   22  C   UNL     1      43.457  -9.267  13.892  1.00  0.00     0.001 A 
HETATM   23  C   UNL     1      43.583  -9.783  12.601  1.00  0.00     0.009 A 
ENDBRANCH  17  18
ENDBRANCH  14  17
ENDBRANCH  12  13
ENDBRANCH  11  12
ENDBRANCH   4  11
BRANCH   8  24
HETATM   24  C   UNL     1      41.431 -13.106   2.141  1.00  0.00     0.066 A 
HETATM   25  O   UNL     1      41.680 -11.789   1.879  1.00  0.00    -0.326 OA
HETATM   26  C   UNL     1      42.073 -11.713   0.581  1.00  0.00     0.142 A 
HETATM   27  C   UNL     1      42.054 -12.958  -0.003  1.00  0.00     0.027 A 
HETATM   28  C   UNL     1      41.633 -13.861   1.001  1.00  0.00     0.035 A 
ENDBRANCH   8  24
BRANCH   9  29
HETATM   29  C   UNL     1      42.113 -15.678   4.155  1.00  0.00     0.255 C 
HETATM   30  N   UNL     1      43.295 -16.129   3.608  1.00  0.00    -0.322 N 
HETATM   31  H   UNL     1      43.870 -15.459   3.107  1.00  0.00     0.169 HD
HETATM   32  O   UNL     1      41.135 -16.380   4.398  1.00  0.00    -0.268 OA
BRANCH  30  33
HETATM   33  C   UNL     1      43.555 -17.493   3.332  1.00  0.00     0.057 A 
HETATM   34  C   UNL     1      44.055 -18.424   4.263  1.00  0.00     0.062 A 
HETATM   35 CL   UNL     1      44.696 -17.965   5.806  1.00  0.00    -0.082 Cl
HETATM   36  C   UNL     1      44.212 -19.766   3.902  1.00  0.00     0.050 A 
HETATM   37  C   UNL     1      43.896 -20.179   2.611  1.00  0.00     0.035 A 
HETATM   38 CL   UNL     1      44.082 -21.831   2.171  1.00  0.00    -0.084 Cl
HETATM   39  C   UNL     1      43.457 -19.258   1.663  1.00  0.00     0.026 A 
HETATM   40  C   UNL     1      43.302 -17.915   2.018  1.00  0.00     0.033 A 
ENDBRANCH  30  33
ENDBRANCH   9  29
TORSDOF 8
ENDMDL
MODEL 3
REMARK VINA RESULT:      -9.0      4.854      8.487
REMARK  8 active torsions:
REMARK  status: ('A' for Active; 'I' for Inactive)
REMARK    1  A    between atoms: C_4  and  S_5 
REMARK    2  A    between atoms: S_5  and  C_6 
REMARK    3  A    between atoms: C_6  and  C_7 
REMARK       I    between atoms: C_7  and  N_8 
REMARK    4  A    between atoms: N_8  and  C_9 
REMARK    5  A    between atoms: C_9  and  C_10 
REMARK    6  A    between atoms: C_20  and  C_21 
REMARK    7  A    between atoms: C_26  and  C_27 
REMARK       I    between atoms: C_27  and  N_28 
REMARK    8  A    between atoms: N_28  and  C_29 
ROOT
HETATM    1  C   UNL     1      41.700 -16.260   0.355  1.00  0.00     0.069 C 
HETATM    2  C   UNL     1      41.711 -14.935   1.078  1.00  0.00     0.019 C 
HETATM    3  N   UNL     1      42.637 -14.814   2.110  1.00  0.00    -0.353 N 
HETATM    4  C   UNL     1      42.548 -13.853   3.110  1.00  0.00     0.087 C 
HETATM    5  C   UNL     1      41.750 -12.773   2.890  1.00  0.00     0.057 C 
HETATM    6  C   UNL     1      41.520 -11.730   3.971  1.00  0.00     0.019 C 
HETATM    7  N   UNL     1      41.328 -10.865   4.869  1.00  0.00    -0.096 N 
HETATM    8  C   UNL     1      41.002 -12.597   1.574  1.00  0.00     0.129 C 
HETATM    9  C   UNL     1      40.877 -13.905   0.806  1.00  0.00     0.048 C 
HETATM   10  H   UNL     1      43.094 -15.681   2.367  1.00  0.00     0.166 HD
ENDROOT
BRANCH   4  11
HETATM   11  S   UNL     1      43.374 -13.988   4.662  1.00  0.00    -0.102 SA
BRANCH  11  12
HETATM   12  C   UNL     1      42.269 -14.993   5.682  1.00  0.00     0.183 C 
BRANCH  12  13
HETATM   13  C   UNL     1      42.862 -16.355   6.017  1.00  0.00     0.227 C 
HETATM   14  N   UNL     1      43.619 -16.940   5.025  1.00  0.00    -0.356 N 
HETATM   15  H   UNL     1      43.384 -16.682   4.073  1.00  0.00     0.162 HD
HETATM   16  O   UNL     1      42.756 -16.833   7.145  1.00  0.00    -0.273 OA
BRANCH  14  17
HETATM   17  C   UNL     1      44.238 -18.230   5.236  1.00  0.00     0.161 C 
BRANCH  17  18
HETATM   18  C   UNL     1      44.103 -19.192   4.078  1.00  0.00    -0.041 A 
HETATM   19  C   UNL     1      44.710 -20.456   4.045  1.00  0.00     0.009 A 
HETATM   20  C   UNL     1      44.526 -21.308   2.953  1.00  0.00     0.001 A 
HETATM   21  C   UNL     1      43.717 -20.920   1.888  1.00  0.00     0.000 A 
HETATM   22  C   UNL     1      43.091 -19.677   1.913  1.00  0.00     0.001 A 
HETATM   23  C   UNL     1      43.283 -18.820   2.998  1.00  0.00     0.009 A 
ENDBRANCH  17  18
ENDBRANCH  14  17
ENDBRANCH  12  13
ENDBRANCH  11  12
ENDBRANCH   4  11
BRANCH   8  24
HETATM   24  C   UNL     1      41.617 -11.511   0.727  1.00  0.00     0.066 A 
HETATM   25  O   UNL     1      42.687 -11.872  -0.041  1.00  0.00    -0.326 OA
HETATM   26  C   UNL     1      43.096 -10.755  -0.697  1.00  0.00     0.142 A 
HETATM   27  C   UNL     1      42.323  -9.675  -0.341  1.00  0.00     0.027 A 
HETATM   28  C   UNL     1      41.369 -10.159   0.584  1.00  0.00     0.035 A 
ENDBRANCH   8  24
BRANCH   9  29
HETATM   29  C   UNL     1      39.702 -14.119  -0.088  1.00  0.00     0.255 C 
HETATM   30  N   UNL     1      39.915 -13.853  -1.424  1.00  0.00    -0.322 N 
HETATM   31  H   UNL     1      40.716 -13.282  -1.670  1.00  0.00     0.169 HD
HETATM   32  O   UNL     1      38.615 -14.399   0.411  1.00  0.00    -0.268 OA
BRANCH  30  33
HETATM   33  C   UNL     1      38.903 -13.954  -2.409  1.00  0.00     0.057 A 
HETATM   34  C   UNL     1      38.708 -15.063  -3.256  1.00  0.00     0.062 A 
HETATM   35 CL   UNL     1      39.860 -16.349  -3.408  1.00  0.00    -0.082 Cl
HETATM   36  C   UNL     1      37.633 -15.086  -4.150  1.00  0.00     0.050 A 
HETATM   37  C   UNL     1      36.767 -13.999  -4.222  1.00  0.00     0.035 A 
HETATM   38 CL   UNL     1      35.441 -14.033  -5.316  1.00  0.00    -0.084 Cl
HETATM   39  C   UNL     1      36.982 -12.872  -3.432  1.00  0.00     0.026 A 
HETATM   40  C   UNL     1      38.057 -12.843  -2.540  1.00  0.00     0.033 A 
ENDBRANCH  30  33
ENDBRANCH   9  29
TORSDOF 8
ENDMDL
MODEL 4
REMARK VINA RESULT:      -8.8      1.996      2.607
REMARK  8 active torsions:
REMARK  status: ('A' for Active; 'I' for Inactive)
REMARK    1  A    between atoms: C_4  and  S_5 
REMARK    2  A    between atoms: S_5  and  C_6 
REMARK    3  A    between atoms: C_6  and  C_7 
REMARK       I    between atoms: C_7  and  N_8 
REMARK    4  A    between atoms: N_8  and  C_9 
REMARK    5  A    between atoms: C_9  and  C_10 
REMARK    6  A    between atoms: C_20  and  C_21 
REMARK    7  A    between atoms: C_26  and  C_27 
REMARK       I    between atoms: C_27  and  N_28 
REMARK    8  A    between atoms: N_28  and  C_29 
ROOT
HETATM    1  C   UNL     1      43.680 -13.857   4.841  1.00  0.00     0.069 C 
HETATM    2  C   UNL     1      42.525 -13.478   3.945  1.00  0.00     0.019 C 
HETATM    3  N   UNL     1      42.154 -12.137   3.967  1.00  0.00    -0.353 N 
HETATM    4  C   UNL     1      40.919 -11.677   3.526  1.00  0.00     0.087 C 
HETATM    5  C   UNL     1      40.186 -12.490   2.718  1.00  0.00     0.057 C 
HETATM    6  C   UNL     1      38.784 -12.103   2.275  1.00  0.00     0.019 C 
HETATM    7  N   UNL     1      37.620 -11.784   1.908  1.00  0.00    -0.096 N 
HETATM    8  C   UNL     1      40.712 -13.850   2.275  1.00  0.00     0.129 C 
HETATM    9  C   UNL     1      41.836 -14.348   3.172  1.00  0.00     0.048 C 
HETATM   10  H   UNL     1      42.595 -11.592   4.699  1.00  0.00     0.166 HD
ENDROOT
BRANCH   4  11
HETATM   11  S   UNL     1      40.237 -10.122   4.000  1.00  0.00    -0.102 SA
BRANCH  11  12
HETATM   12  C   UNL     1      41.378  -9.484   5.249  1.00  0.00     0.183 C 
BRANCH  12  13
HETATM   13  C   UNL     1      41.215 -10.175   6.596  1.00  0.00     0.227 C 
HETATM   14  N   UNL     1      41.691  -9.481   7.688  1.00  0.00    -0.356 N 
HETATM   15  H   UNL     1      42.454  -8.837   7.510  1.00  0.00     0.162 HD
HETATM   16  O   UNL     1      40.593 -11.231   6.696  1.00  0.00    -0.273 OA
BRANCH  14  17
HETATM   17  C   UNL     1      41.581 -10.038   9.019  1.00  0.00     0.161 C 
BRANCH  17  18
HETATM   18  C   UNL     1      42.878 -10.562   9.592  1.00  0.00    -0.041 A 
HETATM   19  C   UNL     1      43.747 -11.411   8.892  1.00  0.00     0.009 A 
HETATM   20  C   UNL     1      44.944 -11.841   9.470  1.00  0.00     0.001 A 
HETATM   21  C   UNL     1      45.300 -11.414  10.747  1.00  0.00     0.000 A 
HETATM   22  C   UNL     1      44.459 -10.556  11.449  1.00  0.00     0.001 A 
HETATM   23  C   UNL     1      43.258 -10.134  10.876  1.00  0.00     0.009 A 
ENDBRANCH  17  18
ENDBRANCH  14  17
ENDBRANCH  12  13
ENDBRANCH  11  12
ENDBRANCH   4  11
BRANCH   8  24
HETATM   24  C   UNL     1      41.119 -13.841   0.823  1.00  0.00     0.066 A 
HETATM   25  O   UNL     1      40.803 -14.954   0.097  1.00  0.00    -0.326 OA
HETATM   26  C   UNL     1      41.273 -14.750  -1.161  1.00  0.00     0.142 A 
HETATM   27  C   UNL     1      41.910 -13.535  -1.248  1.00  0.00     0.027 A 
HETATM   28  C   UNL     1      41.817 -12.947   0.035  1.00  0.00     0.035 A 
ENDBRANCH   8  24
BRANCH   9  29
HETATM   29  C   UNL     1      42.030 -15.816   3.353  1.00  0.00     0.255 C 
HETATM   30  N   UNL     1      43.241 -16.315   2.923  1.00  0.00    -0.322 N 
HETATM   31  H   UNL     1      43.782 -15.749   2.278  1.00  0.00     0.169 HD
HETATM   32  O   UNL     1      41.091 -16.497   3.757  1.00  0.00    -0.268 OA
BRANCH  30  33
HETATM   33  C   UNL     1      43.580 -17.688   2.973  1.00  0.00     0.057 A 
HETATM   34  C   UNL     1      43.987 -18.378   4.132  1.00  0.00     0.062 A 
HETATM   35 CL   UNL     1      44.406 -17.576   5.610  1.00  0.00    -0.082 Cl
HETATM   36  C   UNL     1      44.234 -19.754   4.082  1.00  0.00     0.050 A 
HETATM   37  C   UNL     1      44.102 -20.440   2.879  1.00  0.00     0.035 A 
HETATM   38 CL   UNL     1      44.399 -22.132   2.821  1.00  0.00    -0.084 Cl
HETATM   39  C   UNL     1      43.758 -19.760   1.713  1.00  0.00     0.026 A 
HETATM   40  C   UNL     1      43.514 -18.384   1.757  1.00  0.00     0.033 A 
ENDBRANCH  30  33
ENDBRANCH   9  29
TORSDOF 8
ENDMDL
MODEL 5
REMARK VINA RESULT:      -8.8      2.302      3.278
REMARK  8 active torsions:
REMARK  status: ('A' for Active; 'I' for Inactive)
REMARK    1  A    between atoms: C_4  and  S_5 
REMARK    2  A    between atoms: S_5  and  C_6 
REMARK    3  A    between atoms: C_6  and  C_7 
REMARK       I    between atoms: C_7  and  N_8 
REMARK    4  A    between atoms: N_8  and  C_9 
REMARK    5  A    between atoms: C_9  and  C_10 
REMARK    6  A    between atoms: C_20  and  C_21 
REMARK    7  A    between atoms: C_26  and  C_27 
REMARK       I    between atoms: C_27  and  N_28 
REMARK    8  A    between atoms: N_28  and  C_29 
ROOT
HETATM    1  C   UNL     1      40.392 -16.847   6.065  1.00  0.00     0.069 C 
HETATM    2  C   UNL     1      40.945 -15.445   5.983  1.00  0.00     0.019 C 
HETATM    3  N   UNL     1      40.188 -14.457   6.603  1.00  0.00    -0.353 N 
HETATM    4  C   UNL     1      40.319 -13.101   6.323  1.00  0.00     0.087 C 
HETATM    5  C   UNL     1      41.454 -12.685   5.699  1.00  0.00     0.057 C 
HETATM    6  C   UNL     1      41.630 -11.239   5.268  1.00  0.00     0.019 C 
HETATM    7  N   UNL     1      41.777 -10.038   4.909  1.00  0.00    -0.096 N 
HETATM    8  C   UNL     1      42.570 -13.663   5.349  1.00  0.00     0.129 C 
HETATM    9  C   UNL     1      42.083 -15.105   5.335  1.00  0.00     0.048 C 
HETATM   10  H   UNL     1      39.269 -14.760   6.906  1.00  0.00     0.166 HD
ENDROOT
BRANCH   4  11
HETATM   11  S   UNL     1      39.071 -11.910   6.687  1.00  0.00    -0.102 SA
BRANCH  11  12
HETATM   12  C   UNL     1      39.139 -11.712   8.484  1.00  0.00     0.183 C 
BRANCH  12  13
HETATM   13  C   UNL     1      40.203 -10.715   8.921  1.00  0.00     0.227 C 
HETATM   14  N   UNL     1      41.274 -11.244   9.608  1.00  0.00    -0.356 N 
HETATM   15  H   UNL     1      41.094 -12.093  10.132  1.00  0.00     0.162 HD
HETATM   16  O   UNL     1      40.149  -9.536   8.575  1.00  0.00    -0.273 OA
BRANCH  14  17
HETATM   17  C   UNL     1      42.350 -10.391  10.065  1.00  0.00     0.161 C 
BRANCH  17  18
HETATM   18  C   UNL     1      42.444 -10.244  11.566  1.00  0.00    -0.041 A 
HETATM   19  C   UNL     1      43.479  -9.553  12.214  1.00  0.00     0.009 A 
HETATM   20  C   UNL     1      43.495  -9.433  13.606  1.00  0.00     0.001 A 
HETATM   21  C   UNL     1      42.468  -9.983  14.370  1.00  0.00     0.000 A 
HETATM   22  C   UNL     1      41.424 -10.655  13.742  1.00  0.00     0.001 A 
HETATM   23  C   UNL     1      41.412 -10.784  12.353  1.00  0.00     0.009 A 
ENDBRANCH  17  18
ENDBRANCH  14  17
ENDBRANCH  12  13
ENDBRANCH  11  12
ENDBRANCH   4  11
BRANCH   8  24
HETATM   24  C   UNL     1      43.765 -13.487   6.252  1.00  0.00     0.066 A 
HETATM   25  O   UNL     1      44.992 -13.665   5.677  1.00  0.00    -0.326 OA
HETATM   26  C   UNL     1      45.915 -13.484   6.656  1.00  0.00     0.142 A 
HETATM   27  C   UNL     1      45.301 -13.220   7.858  1.00  0.00     0.027 A 
HETATM   28  C   UNL     1      43.910 -13.227   7.601  1.00  0.00     0.035 A 
ENDBRANCH   8  24
BRANCH   9  29
HETATM   29  C   UNL     1      42.745 -16.091   4.432  1.00  0.00     0.255 C 
HETATM   30  N   UNL     1      42.623 -17.413   4.802  1.00  0.00    -0.322 N 
HETATM   31  H   UNL     1      42.362 -17.613   5.762  1.00  0.00     0.169 HD
HETATM   32  O   UNL     1      43.435 -15.680   3.503  1.00  0.00    -0.268 OA
BRANCH  30  33
HETATM   33  C   UNL     1      43.225 -18.480   4.092  1.00  0.00     0.057 A 
HETATM   34  C   UNL     1      44.331 -19.227   4.542  1.00  0.00     0.062 A 
HETATM   35 CL   UNL     1      45.295 -18.760   5.904  1.00  0.00    -0.082 Cl
HETATM   36  C   UNL     1      44.805 -20.307   3.789  1.00  0.00     0.050 A 
HETATM   37  C   UNL     1      44.197 -20.628   2.579  1.00  0.00     0.035 A 
HETATM   38 CL   UNL     1      44.776 -21.960   1.658  1.00  0.00    -0.084 Cl
HETATM   39  C   UNL     1      43.141 -19.862   2.094  1.00  0.00     0.026 A 
HETATM   40  C   UNL     1      42.666 -18.780   2.841  1.00  0.00     0.033 A 
ENDBRANCH  30  33
ENDBRANCH   9  29
TORSDOF 8
ENDMDL
MODEL 6
REMARK VINA RESULT:      -8.1      4.044      6.634
REMARK  8 active torsions:
REMARK  status: ('A' for Active; 'I' for Inactive)
REMARK    1  A    between atoms: C_4  and  S_5 
REMARK    2  A    between atoms: S_5  and  C_6 
REMARK    3  A    between atoms: C_6  and  C_7 
REMARK       I    between atoms: C_7  and  N_8 
REMARK    4  A    between atoms: N_8  and  C_9 
REMARK    5  A    between atoms: C_9  and  C_10 
REMARK    6  A    between atoms: C_20  and  C_21 
REMARK    7  A    between atoms: C_26  and  C_27 
REMARK       I    between atoms: C_27  and  N_28 
REMARK    8  A    between atoms: N_28  and  C_29 
ROOT
HETATM    1  C   UNL     1      44.103 -14.327   5.977  1.00  0.00     0.069 C 
HETATM    2  C   UNL     1      42.958 -13.751   5.179  1.00  0.00     0.019 C 
HETATM    3  N   UNL     1      42.649 -12.419   5.434  1.00  0.00    -0.353 N 
HETATM    4  C   UNL     1      41.432 -11.836   5.100  1.00  0.00     0.087 C 
HETATM    5  C   UNL     1      40.655 -12.467   4.178  1.00  0.00     0.057 C 
HETATM    6  C   UNL     1      39.268 -11.950   3.833  1.00  0.00     0.019 C 
HETATM    7  N   UNL     1      38.117 -11.522   3.545  1.00  0.00    -0.096 N 
HETATM    8  C   UNL     1      41.113 -13.754   3.502  1.00  0.00     0.129 C 
HETATM    9  C   UNL     1      42.222 -14.446   4.281  1.00  0.00     0.048 C 
HETATM   10  H   UNL     1      43.122 -12.026   6.241  1.00  0.00     0.166 HD
ENDROOT
BRANCH   4  11
HETATM   11  S   UNL     1      40.827 -10.356   5.843  1.00  0.00    -0.102 SA
BRANCH  11  12
HETATM   12  C   UNL     1      41.614  -9.022   4.909  1.00  0.00     0.183 C 
BRANCH  12  13
HETATM   13  C   UNL     1      40.855  -8.676   3.634  1.00  0.00     0.227 C 
HETATM   14  N   UNL     1      41.470  -9.035   2.454  1.00  0.00    -0.356 N 
HETATM   15  H   UNL     1      42.482  -9.081   2.474  1.00  0.00     0.162 HD
HETATM   16  O   UNL     1      39.718  -8.211   3.679  1.00  0.00    -0.273 OA
BRANCH  14  17
HETATM   17  C   UNL     1      40.837  -8.764   1.182  1.00  0.00     0.161 C 
BRANCH  17  18
HETATM   18  C   UNL     1      41.664  -9.137  -0.026  1.00  0.00    -0.041 A 
HETATM   19  C   UNL     1      43.067  -9.119  -0.041  1.00  0.00     0.009 A 
HETATM   20  C   UNL     1      43.774  -9.499  -1.184  1.00  0.00     0.001 A 
HETATM   21  C   UNL     1      43.092  -9.923  -2.323  1.00  0.00     0.000 A 
HETATM   22  C   UNL     1      41.701  -9.965  -2.320  1.00  0.00     0.001 A 
HETATM   23  C   UNL     1      40.993  -9.576  -1.181  1.00  0.00     0.009 A 
ENDBRANCH  17  18
ENDBRANCH  14  17
ENDBRANCH  12  13
ENDBRANCH  11  12
ENDBRANCH   4  11
BRANCH   8  24
HETATM   24  C   UNL     1      41.505 -13.516   2.066  1.00  0.00     0.066 A 
HETATM   25  O   UNL     1      41.281 -14.545   1.196  1.00  0.00    -0.326 OA
HETATM   26  C   UNL     1      41.720 -14.135  -0.022  1.00  0.00     0.142 A 
HETATM   27  C   UNL     1      42.249 -12.868   0.057  1.00  0.00     0.027 A 
HETATM   28  C   UNL     1      42.117 -12.467   1.407  1.00  0.00     0.035 A 
ENDBRANCH   8  24
BRANCH   9  29
HETATM   29  C   UNL     1      42.350 -15.931   4.208  1.00  0.00     0.255 C 
HETATM   30  N   UNL     1      43.427 -16.401   3.487  1.00  0.00    -0.322 N 
HETATM   31  H   UNL     1      43.876 -15.762   2.840  1.00  0.00     0.169 HD
HETATM   32  O   UNL     1      41.458 -16.631   4.680  1.00  0.00    -0.268 OA
BRANCH  30  33
HETATM   33  C   UNL     1      43.679 -17.777   3.271  1.00  0.00     0.057 A 
HETATM   34  C   UNL     1      44.192 -18.665   4.238  1.00  0.00     0.062 A 
HETATM   35 CL   UNL     1      44.857 -18.135   5.748  1.00  0.00    -0.082 Cl
HETATM   36  C   UNL     1      44.339 -20.023   3.938  1.00  0.00     0.050 A 
HETATM   37  C   UNL     1      44.003 -20.495   2.673  1.00  0.00     0.035 A 
HETATM   38 CL   UNL     1      44.178 -22.166   2.309  1.00  0.00    -0.084 Cl
HETATM   39  C   UNL     1      43.550 -19.618   1.690  1.00  0.00     0.026 A 
HETATM   40  C   UNL     1      43.405 -18.260   1.984  1.00  0.00     0.033 A 
ENDBRANCH  30  33
ENDBRANCH   9  29
TORSDOF 8
ENDMDL
MODEL 7
REMARK VINA RESULT:      -8.0      5.365      7.670
REMARK  8 active torsions:
REMARK  status: ('A' for Active; 'I' for Inactive)
REMARK    1  A    between atoms: C_4  and  S_5 
REMARK    2  A    between atoms: S_5  and  C_6 
REMARK    3  A    between atoms: C_6  and  C_7 
REMARK       I    between atoms: C_7  and  N_8 
REMARK    4  A    between atoms: N_8  and  C_9 
REMARK    5  A    between atoms: C_9  and  C_10 
REMARK    6  A    between atoms: C_20  and  C_21 
REMARK    7  A    between atoms: C_26  and  C_27 
REMARK       I    between atoms: C_27  and  N_28 
REMARK    8  A    between atoms: N_28  and  C_29 
ROOT
HETATM    1  C   UNL     1      40.412 -13.211   3.947  1.00  0.00     0.069 C 
HETATM    2  C   UNL     1      40.140 -13.270   2.464  1.00  0.00     0.019 C 
HETATM    3  N   UNL     1      39.023 -12.569   2.022  1.00  0.00    -0.353 N 
HETATM    4  C   UNL     1      38.404 -12.803   0.800  1.00  0.00     0.087 C 
HETATM    5  C   UNL     1      39.107 -13.475  -0.153  1.00  0.00     0.057 C 
HETATM    6  C   UNL     1      38.468 -13.859  -1.477  1.00  0.00     0.019 C 
HETATM    7  N   UNL     1      37.939 -14.179  -2.576  1.00  0.00    -0.096 N 
HETATM    8  C   UNL     1      40.542 -13.927   0.093  1.00  0.00     0.129 C 
HETATM    9  C   UNL     1      40.883 -13.969   1.575  1.00  0.00     0.048 C 
HETATM   10  H   UNL     1      38.423 -12.226   2.764  1.00  0.00     0.166 HD
ENDROOT
BRANCH   4  11
HETATM   11  S   UNL     1      36.746 -12.321   0.442  1.00  0.00    -0.102 SA
BRANCH  11  12
HETATM   12  C   UNL     1      36.630 -10.615   1.029  1.00  0.00     0.183 C 
BRANCH  12  13
HETATM   13  C   UNL     1      35.203 -10.084   1.001  1.00  0.00     0.227 C 
HETATM   14  N   UNL     1      34.274 -10.825   1.700  1.00  0.00    -0.356 N 
HETATM   15  H   UNL     1      34.471 -11.815   1.794  1.00  0.00     0.162 HD
HETATM   16  O   UNL     1      34.938  -9.003   0.479  1.00  0.00    -0.273 OA
BRANCH  14  17
HETATM   17  C   UNL     1      32.889 -10.410   1.749  1.00  0.00     0.161 C 
BRANCH  17  18
HETATM   18  C   UNL     1      32.462  -9.791   3.060  1.00  0.00    -0.041 A 
HETATM   19  C   UNL     1      33.336  -9.576   4.136  1.00  0.00     0.009 A 
HETATM   20  C   UNL     1      32.884  -8.976   5.314  1.00  0.00     0.001 A 
HETATM   21  C   UNL     1      31.558  -8.565   5.428  1.00  0.00     0.000 A 
HETATM   22  C   UNL     1      30.681  -8.754   4.364  1.00  0.00     0.001 A 
HETATM   23  C   UNL     1      31.130  -9.362   3.190  1.00  0.00     0.009 A 
ENDBRANCH  17  18
ENDBRANCH  14  17
ENDBRANCH  12  13
ENDBRANCH  11  12
ENDBRANCH   4  11
BRANCH   8  24
HETATM   24  C   UNL     1      41.527 -13.089  -0.683  1.00  0.00     0.066 A 
HETATM   25  O   UNL     1      41.959 -13.604  -1.872  1.00  0.00    -0.326 OA
HETATM   26  C   UNL     1      42.844 -12.713  -2.389  1.00  0.00     0.142 A 
HETATM   27  C   UNL     1      43.009 -11.646  -1.537  1.00  0.00     0.027 A 
HETATM   28  C   UNL     1      42.163 -11.889  -0.430  1.00  0.00     0.035 A 
ENDBRANCH   8  24
BRANCH   9  29
HETATM   29  C   UNL     1      41.898 -14.947   2.064  1.00  0.00     0.255 C 
HETATM   30  N   UNL     1      41.468 -16.253   2.161  1.00  0.00    -0.322 N 
HETATM   31  H   UNL     1      40.468 -16.420   2.179  1.00  0.00     0.169 HD
HETATM   32  O   UNL     1      42.989 -14.534   2.448  1.00  0.00    -0.268 OA
BRANCH  30  33
HETATM   33  C   UNL     1      42.279 -17.306   2.650  1.00  0.00     0.057 A 
HETATM   34  C   UNL     1      42.436 -17.639   4.010  1.00  0.00     0.062 A 
HETATM   35 CL   UNL     1      41.883 -16.625   5.301  1.00  0.00    -0.082 Cl
HETATM   36  C   UNL     1      43.211 -18.744   4.378  1.00  0.00     0.050 A 
HETATM   37  C   UNL     1      43.848 -19.502   3.401  1.00  0.00     0.035 A 
HETATM   38 CL   UNL     1      44.794 -20.864   3.855  1.00  0.00    -0.084 Cl
HETATM   39  C   UNL     1      43.748 -19.149   2.057  1.00  0.00     0.026 A 
HETATM   40  C   UNL     1      42.979 -18.043   1.685  1.00  0.00     0.033 A 
ENDBRANCH  30  33
ENDBRANCH   9  29
TORSDOF 8
ENDMDL
MODEL 8
REMARK VINA RESULT:      -7.9      7.262     10.944
REMARK  8 active torsions:
REMARK  status: ('A' for Active; 'I' for Inactive)
REMARK    1  A    between atoms: C_4  and  S_5 
REMARK    2  A    between atoms: S_5  and  C_6 
REMARK    3  A    between atoms: C_6  and  C_7 
REMARK       I    between atoms: C_7  and  N_8 
REMARK    4  A    between atoms: N_8  and  C_9 
REMARK    5  A    between atoms: C_9  and  C_10 
REMARK    6  A    between atoms: C_20  and  C_21 
REMARK    7  A    between atoms: C_26  and  C_27 
REMARK       I    between atoms: C_27  and  N_28 
REMARK    8  A    between atoms: N_28  and  C_29 
ROOT
HETATM    1  C   UNL     1      38.148 -15.569  -3.547  1.00  0.00     0.069 C 
HETATM    2  C   UNL     1      39.125 -14.738  -2.749  1.00  0.00     0.019 C 
HETATM    3  N   UNL     1      40.163 -15.438  -2.143  1.00  0.00    -0.353 N 
HETATM    4  C   UNL     1      40.916 -14.931  -1.090  1.00  0.00     0.087 C 
HETATM    5  C   UNL     1      40.892 -13.588  -0.876  1.00  0.00     0.057 C 
HETATM    6  C   UNL     1      41.606 -12.967   0.313  1.00  0.00     0.019 C 
HETATM    7  N   UNL     1      42.198 -12.451   1.300  1.00  0.00    -0.096 N 
HETATM    8  C   UNL     1      40.094 -12.656  -1.781  1.00  0.00     0.129 C 
HETATM    9  C   UNL     1      39.030 -13.401  -2.574  1.00  0.00     0.048 C 
HETATM   10  H   UNL     1      40.062 -16.446  -2.171  1.00  0.00     0.166 HD
ENDROOT
BRANCH   4  11
HETATM   11  S   UNL     1      41.856 -15.943   0.006  1.00  0.00    -0.102 SA
BRANCH  11  12
HETATM   12  C   UNL     1      40.743 -16.269   1.394  1.00  0.00     0.183 C 
BRANCH  12  13
HETATM   13  C   UNL     1      41.468 -16.860   2.596  1.00  0.00     0.227 C 
HETATM   14  N   UNL     1      42.736 -17.343   2.354  1.00  0.00    -0.356 N 
HETATM   15  H   UNL     1      42.917 -17.668   1.412  1.00  0.00     0.162 HD
HETATM   16  O   UNL     1      40.982 -16.797   3.724  1.00  0.00    -0.273 OA
BRANCH  14  17
HETATM   17  C   UNL     1      43.520 -17.919   3.425  1.00  0.00     0.161 C 
BRANCH  17  18
HETATM   18  C   UNL     1      43.878 -19.374   3.231  1.00  0.00    -0.041 A 
HETATM   19  C   UNL     1      44.529 -20.148   4.204  1.00  0.00     0.009 A 
HETATM   20  C   UNL     1      44.810 -21.497   3.972  1.00  0.00     0.001 A 
HETATM   21  C   UNL     1      44.429 -22.098   2.774  1.00  0.00     0.000 A 
HETATM   22  C   UNL     1      43.766 -21.350   1.806  1.00  0.00     0.001 A 
HETATM   23  C   UNL     1      43.493 -20.000   2.033  1.00  0.00     0.009 A 
ENDBRANCH  17  18
ENDBRANCH  14  17
ENDBRANCH  12  13
ENDBRANCH  11  12
ENDBRANCH   4  11
BRANCH   8  24
HETATM   24  C   UNL     1      40.998 -11.850  -2.681  1.00  0.00     0.066 A 
HETATM   25  O   UNL     1      40.751 -10.508  -2.746  1.00  0.00    -0.326 OA
HETATM   26  C   UNL     1      41.651  -9.983  -3.616  1.00  0.00     0.142 A 
HETATM   27  C   UNL     1      42.456 -10.971  -4.133  1.00  0.00     0.027 A 
HETATM   28  C   UNL     1      42.032 -12.180  -3.535  1.00  0.00     0.035 A 
ENDBRANCH   8  24
BRANCH   9  29
HETATM   29  C   UNL     1      37.781 -12.687  -2.970  1.00  0.00     0.255 C 
HETATM   30  N   UNL     1      37.609 -12.493  -4.324  1.00  0.00    -0.322 N 
HETATM   31  H   UNL     1      38.425 -12.575  -4.920  1.00  0.00     0.169 HD
HETATM   32  O   UNL     1      37.054 -12.225  -2.094  1.00  0.00    -0.268 OA
BRANCH  30  33
HETATM   33  C   UNL     1      36.509 -11.795  -4.877  1.00  0.00     0.057 A 
HETATM   34  C   UNL     1      35.231 -12.347  -5.097  1.00  0.00     0.062 A 
HETATM   35 CL   UNL     1      34.903 -14.045  -4.986  1.00  0.00    -0.082 Cl
HETATM   36  C   UNL     1      34.194 -11.547  -5.588  1.00  0.00     0.050 A 
HETATM   37  C   UNL     1      34.431 -10.208  -5.885  1.00  0.00     0.035 A 
HETATM   38 CL   UNL     1      33.153  -9.224  -6.481  1.00  0.00    -0.084 Cl
HETATM   39  C   UNL     1      35.704  -9.665  -5.727  1.00  0.00     0.026 A 
HETATM   40  C   UNL     1      36.744 -10.462  -5.241  1.00  0.00     0.033 A 
ENDBRANCH  30  33
ENDBRANCH   9  29
TORSDOF 8
ENDMDL
MODEL 9
REMARK VINA RESULT:      -7.9      1.657      2.124
REMARK  8 active torsions:
REMARK  status: ('A' for Active; 'I' for Inactive)
REMARK    1  A    between atoms: C_4  and  S_5 
REMARK    2  A    between atoms: S_5  and  C_6 
REMARK    3  A    between atoms: C_6  and  C_7 
REMARK       I    between atoms: C_7  and  N_8 
REMARK    4  A    between atoms: N_8  and  C_9 
REMARK    5  A    between atoms: C_9  and  C_10 
REMARK    6  A    between atoms: C_20  and  C_21 
REMARK    7  A    between atoms: C_26  and  C_27 
REMARK       I    between atoms: C_27  and  N_28 
REMARK    8  A    between atoms: N_28  and  C_29 
ROOT
HETATM    1  C   UNL     1      43.915 -14.911   6.747  1.00  0.00     0.069 C 
HETATM    2  C   UNL     1      42.802 -14.233   5.986  1.00  0.00     0.019 C 
HETATM    3  N   UNL     1      42.439 -12.969   6.439  1.00  0.00    -0.353 N 
HETATM    4  C   UNL     1      41.227 -12.362   6.129  1.00  0.00     0.087 C 
HETATM    5  C   UNL     1      40.524 -12.845   5.069  1.00  0.00     0.057 C 
HETATM    6  C   UNL     1      39.145 -12.305   4.727  1.00  0.00     0.019 C 
HETATM    7  N   UNL     1      38.001 -11.857   4.443  1.00  0.00    -0.096 N 
HETATM    8  C   UNL     1      41.060 -13.991   4.219  1.00  0.00     0.129 C 
HETATM    9  C   UNL     1      42.142 -14.781   4.940  1.00  0.00     0.048 C 
HETATM   10  H   UNL     1      42.851 -12.707   7.328  1.00  0.00     0.166 HD
ENDROOT
BRANCH   4  11
HETATM   11  S   UNL     1      40.535 -11.040   7.069  1.00  0.00    -0.102 SA
BRANCH  11  12
HETATM   12  C   UNL     1      41.529  -9.596   6.625  1.00  0.00     0.183 C 
BRANCH  12  13
HETATM   13  C   UNL     1      41.456  -8.493   7.673  1.00  0.00     0.227 C 
HETATM   14  N   UNL     1      41.331  -8.915   8.979  1.00  0.00    -0.356 N 
HETATM   15  H   UNL     1      40.877  -9.811   9.118  1.00  0.00     0.162 HD
HETATM   16  O   UNL     1      41.616  -7.314   7.366  1.00  0.00    -0.273 OA
BRANCH  14  17
HETATM   17  C   UNL     1      41.261  -7.955  10.059  1.00  0.00     0.161 C 
BRANCH  17  18
HETATM   18  C   UNL     1      41.969  -8.379  11.326  1.00  0.00    -0.041 A 
HETATM   19  C   UNL     1      42.673  -9.586  11.454  1.00  0.00     0.009 A 
HETATM   20  C   UNL     1      43.327  -9.908  12.646  1.00  0.00     0.001 A 
HETATM   21  C   UNL     1      43.304  -9.021  13.720  1.00  0.00     0.000 A 
HETATM   22  C   UNL     1      42.627  -7.812  13.604  1.00  0.00     0.001 A 
HETATM   23  C   UNL     1      41.965  -7.493  12.418  1.00  0.00     0.009 A 
ENDBRANCH  17  18
ENDBRANCH  14  17
ENDBRANCH  12  13
ENDBRANCH  11  12
ENDBRANCH   4  11
BRANCH   8  24
HETATM   24  C   UNL     1      41.530 -13.507   2.869  1.00  0.00     0.066 A 
HETATM   25  O   UNL     1      41.737 -12.163   2.744  1.00  0.00    -0.326 OA
HETATM   26  C   UNL     1      42.129 -11.942   1.463  1.00  0.00     0.142 A 
HETATM   27  C   UNL     1      42.151 -13.120   0.754  1.00  0.00     0.027 A 
HETATM   28  C   UNL     1      41.758 -14.134   1.659  1.00  0.00     0.035 A 
ENDBRANCH   8  24
BRANCH   9  29
HETATM   29  C   UNL     1      42.318 -16.230   4.629  1.00  0.00     0.255 C 
HETATM   30  N   UNL     1      43.406 -16.541   3.842  1.00  0.00    -0.322 N 
HETATM   31  H   UNL     1      43.831 -15.793   3.306  1.00  0.00     0.169 HD
HETATM   32  O   UNL     1      41.453 -17.026   4.982  1.00  0.00    -0.268 OA
BRANCH  30  33
HETATM   33  C   UNL     1      43.703 -17.856   3.408  1.00  0.00     0.057 A 
HETATM   34  C   UNL     1      44.336 -18.841   4.191  1.00  0.00     0.062 A 
HETATM   35 CL   UNL     1      45.103 -18.494   5.706  1.00  0.00    -0.082 Cl
HETATM   36  C   UNL     1      44.521 -20.132   3.685  1.00  0.00     0.050 A 
HETATM   37  C   UNL     1      44.100 -20.438   2.394  1.00  0.00     0.035 A 
HETATM   38 CL   UNL     1      44.321 -22.027   1.776  1.00  0.00    -0.084 Cl
HETATM   39  C   UNL     1      43.526 -19.458   1.589  1.00  0.00     0.026 A 
HETATM   40  C   UNL     1      43.343 -18.166   2.089  1.00  0.00     0.033 A 
ENDBRANCH  30  33
ENDBRANCH   9  29
TORSDOF 8
ENDMDL
MODEL 10
REMARK VINA RESULT:      -7.8      1.906      2.367
REMARK  8 active torsions:
REMARK  status: ('A' for Active; 'I' for Inactive)
REMARK    1  A    between atoms: C_4  and  S_5 
REMARK    2  A    between atoms: S_5  and  C_6 
REMARK    3  A    between atoms: C_6  and  C_7 
REMARK       I    between atoms: C_7  and  N_8 
REMARK    4  A    between atoms: N_8  and  C_9 
REMARK    5  A    between atoms: C_9  and  C_10 
REMARK    6  A    between atoms: C_20  and  C_21 
REMARK    7  A    between atoms: C_26  and  C_27 
REMARK       I    between atoms: C_27  and  N_28 
REMARK    8  A    between atoms: N_28  and  C_29 
ROOT
HETATM    1  C   UNL     1      43.131 -13.483   5.479  1.00  0.00     0.069 C 
HETATM    2  C   UNL     1      42.111 -13.035   4.460  1.00  0.00     0.019 C 
HETATM    3  N   UNL     1      41.695 -11.711   4.558  1.00  0.00    -0.353 N 
HETATM    4  C   UNL     1      40.525 -11.231   3.982  1.00  0.00     0.087 C 
HETATM    5  C   UNL     1      39.949 -11.969   2.995  1.00  0.00     0.057 C 
HETATM    6  C   UNL     1      38.617 -11.566   2.385  1.00  0.00     0.019 C 
HETATM    7  N   UNL     1      37.511 -11.231   1.879  1.00  0.00    -0.096 N 
HETATM    8  C   UNL     1      40.581 -13.267   2.506  1.00  0.00     0.129 C 
HETATM    9  C   UNL     1      41.575 -13.834   3.509  1.00  0.00     0.048 C 
HETATM   10  H   UNL     1      42.003 -11.236   5.399  1.00  0.00     0.166 HD
ENDROOT
BRANCH   4  11
HETATM   11  S   UNL     1      39.727  -9.745   4.499  1.00  0.00    -0.102 SA
BRANCH  11  12
HETATM   12  C   UNL     1      40.468  -9.363   6.104  1.00  0.00     0.183 C 
BRANCH  12  13
HETATM   13  C   UNL     1      39.591  -9.799   7.270  1.00  0.00     0.227 C 
HETATM   14  N   UNL     1      40.140 -10.738   8.115  1.00  0.00    -0.356 N 
HETATM   15  H   UNL     1      40.826 -11.361   7.705  1.00  0.00     0.162 HD
HETATM   16  O   UNL     1      38.512  -9.252   7.490  1.00  0.00    -0.273 OA
BRANCH  14  17
HETATM   17  C   UNL     1      39.399 -11.219   9.261  1.00  0.00     0.161 C 
BRANCH  17  18
HETATM   18  C   UNL     1      39.746 -10.540  10.566  1.00  0.00    -0.041 A 
HETATM   19  C   UNL     1      39.129  -9.362  11.015  1.00  0.00     0.009 A 
HETATM   20  C   UNL     1      39.479  -8.797  12.245  1.00  0.00     0.001 A 
HETATM   21  C   UNL     1      40.435  -9.410  13.052  1.00  0.00     0.000 A 
HETATM   22  C   UNL     1      41.043 -10.588  12.631  1.00  0.00     0.001 A 
HETATM   23  C   UNL     1      40.702 -11.148  11.399  1.00  0.00     0.009 A 
ENDBRANCH  17  18
ENDBRANCH  14  17
ENDBRANCH  12  13
ENDBRANCH  11  12
ENDBRANCH   4  11
BRANCH   8  24
HETATM   24  C   UNL     1      41.200 -13.101   1.140  1.00  0.00     0.066 A 
HETATM   25  O   UNL     1      41.218 -14.210   0.342  1.00  0.00    -0.326 OA
HETATM   26  C   UNL     1      41.830 -13.852  -0.816  1.00  0.00     0.142 A 
HETATM   27  C   UNL     1      42.231 -12.538  -0.765  1.00  0.00     0.027 A 
HETATM   28  C   UNL     1      41.831 -12.051   0.502  1.00  0.00     0.035 A 
ENDBRANCH   8  24
BRANCH   9  29
HETATM   29  C   UNL     1      41.789 -15.309   3.572  1.00  0.00     0.255 C 
HETATM   30  N   UNL     1      42.933 -15.771   2.955  1.00  0.00    -0.322 N 
HETATM   31  H   UNL     1      43.385 -15.163   2.282  1.00  0.00     0.169 HD
HETATM   32  O   UNL     1      40.911 -16.020   4.051  1.00  0.00    -0.268 OA
BRANCH  30  33
HETATM   33  C   UNL     1      43.274 -17.143   2.875  1.00  0.00     0.057 A 
HETATM   34  C   UNL     1      43.711 -17.932   3.957  1.00  0.00     0.062 A 
HETATM   35 CL   UNL     1      44.170 -17.262   5.488  1.00  0.00    -0.082 Cl
HETATM   36  C   UNL     1      43.957 -19.297   3.780  1.00  0.00     0.050 A 
HETATM   37  C   UNL     1      43.794 -19.874   2.524  1.00  0.00     0.035 A 
HETATM   38 CL   UNL     1      44.090 -21.554   2.309  1.00  0.00    -0.084 Cl
HETATM   39  C   UNL     1      43.419 -19.094   1.433  1.00  0.00     0.026 A 
HETATM   40  C   UNL     1      43.175 -17.729   1.604  1.00  0.00     0.033 A 
ENDBRANCH  30  33
ENDBRANCH   9  29
TORSDOF 8
ENDMDL
