MODEL 1
REMARK VINA RESULT:      -8.1      0.000      0.000
REMARK  7 active torsions:
REMARK  status: ('A' for Active; 'I' for Inactive)
REMARK    1  A    between atoms: N_3  and  C_4 
REMARK    2  A    between atoms: C_12  and  C_13 
REMARK       I    between atoms: C_13  and  N_14 
REMARK    3  A    between atoms: N_14  and  C_15 
REMARK    4  A    between atoms: C_15  and  C_16 
REMARK    5  A    between atoms: C_16  and  O_17 
REMARK    6  A    between atoms: C_16  and  C_18 
REMARK    7  A    between atoms: C_21  and  O_22 
ROOT
HETATM    1  C   UNL     1      41.401 -14.634   0.336  1.00  0.00     0.255 C 
HETATM    2  N   UNL     1      41.979 -14.461  -0.897  1.00  0.00    -0.350 N 
HETATM    3  O   UNL     1      40.651 -13.796   0.829  1.00  0.00    -0.268 OA
HETATM    4  H   UNL     1      42.425 -15.250  -1.344  1.00  0.00     0.163 HD
ENDROOT
BRANCH   2   5
HETATM    5  C   UNL     1      41.729 -13.286  -1.734  1.00  0.00     0.114 C 
HETATM    6  C   UNL     1      42.942 -12.347  -1.707  1.00  0.00     0.035 C 
BRANCH   5   7
HETATM    7  C   UNL     1      41.387 -13.704  -3.199  1.00  0.00     0.173 C 
BRANCH   7   8
HETATM    8  O   UNL     1      42.211 -14.823  -3.566  1.00  0.00    -0.389 OA
HETATM    9  H   UNL     1      41.934 -15.108  -4.453  1.00  0.00     0.210 HD
ENDBRANCH   7   8
BRANCH   7  10
HETATM   10  C   UNL     1      39.930 -14.069  -3.460  1.00  0.00    -0.028 A 
HETATM   11  C   UNL     1      38.906 -13.110  -3.424  1.00  0.00     0.012 A 
HETATM   12  C   UNL     1      37.580 -13.464  -3.702  1.00  0.00     0.037 A 
HETATM   13  C   UNL     1      37.243 -14.776  -4.038  1.00  0.00     0.068 A 
HETATM   14  C   UNL     1      38.249 -15.735  -4.097  1.00  0.00     0.037 A 
HETATM   15  C   UNL     1      39.576 -15.381  -3.818  1.00  0.00     0.012 A 
BRANCH  13  16
HETATM   16  O   UNL     1      35.916 -14.983  -4.287  1.00  0.00    -0.356 OA
HETATM   17  C   UNL     1      35.230 -13.961  -5.000  1.00  0.00     0.210 C 
ENDBRANCH  13  16
ENDBRANCH   7  10
ENDBRANCH   5   7
ENDBRANCH   2   5
BRANCH   1  18
HETATM   18  C   UNL     1      41.683 -15.890   1.018  1.00  0.00     0.075 C 
HETATM   19  C   UNL     1      42.566 -16.222   2.044  1.00  0.00     0.051 C 
HETATM   20  C   UNL     1      43.466 -15.377   2.879  1.00  0.00     0.071 C 
HETATM   21  N   UNL     1      42.455 -17.604   2.221  1.00  0.00    -0.220 N 
HETATM   22  N   UNL     1      41.424 -18.115   1.492  1.00  0.00    -0.177 NA
HETATM   23  C   UNL     1      40.995 -17.094   0.759  1.00  0.00     0.158 C 
BRANCH  21  24
HETATM   24  C   UNL     1      43.268 -18.478   3.025  1.00  0.00     0.150 A 
HETATM   25  N   UNL     1      43.321 -18.290   4.371  1.00  0.00    -0.241 NA
HETATM   26  C   UNL     1      44.118 -19.116   5.087  1.00  0.00     0.119 A 
HETATM   27  C   UNL     1      44.870 -20.135   4.531  1.00  0.00     0.019 A 
HETATM   28  C   UNL     1      44.809 -20.320   3.157  1.00  0.00     0.005 A 
HETATM   29  C   UNL     1      44.005 -19.481   2.389  1.00  0.00     0.052 A 
ENDBRANCH  21  24
ENDBRANCH   1  18
TORSDOF 7
ENDMDL
MODEL 2
REMARK VINA RESULT:      -7.9      3.060      9.538
REMARK  7 active torsions:
REMARK  status: ('A' for Active; 'I' for Inactive)
REMARK    1  A    between atoms: N_3  and  C_4 
REMARK    2  A    between atoms: C_12  and  C_13 
REMARK       I    between atoms: C_13  and  N_14 
REMARK    3  A    between atoms: N_14  and  C_15 
REMARK    4  A    between atoms: C_15  and  C_16 
REMARK    5  A    between atoms: C_16  and  O_17 
REMARK    6  A    between atoms: C_16  and  C_18 
REMARK    7  A    between atoms: C_21  and  O_22 
ROOT
HETATM    1  C   UNL     1      41.356 -15.051  -0.162  1.00  0.00     0.255 C 
HETATM    2  N   UNL     1      42.031 -16.245  -0.110  1.00  0.00    -0.350 N 
HETATM    3  O   UNL     1      40.838 -14.550   0.831  1.00  0.00    -0.268 OA
HETATM    4  H   UNL     1      42.604 -16.519  -0.897  1.00  0.00     0.163 HD
ENDROOT
BRANCH   2   5
HETATM    5  C   UNL     1      42.215 -17.000   1.131  1.00  0.00     0.114 C 
HETATM    6  C   UNL     1      41.042 -17.969   1.340  1.00  0.00     0.035 C 
BRANCH   5   7
HETATM    7  C   UNL     1      43.572 -17.771   1.124  1.00  0.00     0.173 C 
BRANCH   7   8
HETATM    8  O   UNL     1      44.645 -16.819   1.026  1.00  0.00    -0.389 OA
HETATM    9  H   UNL     1      44.875 -16.548   1.930  1.00  0.00     0.210 HD
ENDBRANCH   7   8
BRANCH   7  10
HETATM   10  C   UNL     1      43.829 -18.669   2.329  1.00  0.00    -0.028 A 
HETATM   11  C   UNL     1      44.046 -20.048   2.195  1.00  0.00     0.012 A 
HETATM   12  C   UNL     1      44.315 -20.845   3.314  1.00  0.00     0.037 A 
HETATM   13  C   UNL     1      44.391 -20.288   4.591  1.00  0.00     0.068 A 
HETATM   14  C   UNL     1      44.198 -18.918   4.739  1.00  0.00     0.037 A 
HETATM   15  C   UNL     1      43.928 -18.121   3.619  1.00  0.00     0.012 A 
BRANCH  13  16
HETATM   16  O   UNL     1      44.662 -21.177   5.592  1.00  0.00    -0.356 OA
HETATM   17  C   UNL     1      45.213 -22.430   5.205  1.00  0.00     0.210 C 
ENDBRANCH  13  16
ENDBRANCH   7  10
ENDBRANCH   5   7
ENDBRANCH   2   5
BRANCH   1  18
HETATM   18  C   UNL     1      41.324 -14.376  -1.453  1.00  0.00     0.075 C 
HETATM   19  C   UNL     1      41.583 -13.059  -1.827  1.00  0.00     0.051 C 
HETATM   20  C   UNL     1      42.084 -11.894  -1.045  1.00  0.00     0.071 C 
HETATM   21  N   UNL     1      41.303 -12.980  -3.195  1.00  0.00    -0.220 N 
HETATM   22  N   UNL     1      41.065 -14.214  -3.722  1.00  0.00    -0.177 NA
HETATM   23  C   UNL     1      41.049 -15.028  -2.673  1.00  0.00     0.158 C 
BRANCH  21  24
HETATM   24  C   UNL     1      41.233 -11.815  -4.036  1.00  0.00     0.150 A 
HETATM   25  N   UNL     1      40.017 -11.305  -4.372  1.00  0.00    -0.241 NA
HETATM   26  C   UNL     1      39.996 -10.225  -5.186  1.00  0.00     0.119 A 
HETATM   27  C   UNL     1      41.132  -9.613  -5.686  1.00  0.00     0.019 A 
HETATM   28  C   UNL     1      42.367 -10.140  -5.338  1.00  0.00     0.005 A 
HETATM   29  C   UNL     1      42.425 -11.257  -4.507  1.00  0.00     0.052 A 
ENDBRANCH  21  24
ENDBRANCH   1  18
TORSDOF 7
ENDMDL
MODEL 3
REMARK VINA RESULT:      -7.8      2.053      3.248
REMARK  7 active torsions:
REMARK  status: ('A' for Active; 'I' for Inactive)
REMARK    1  A    between atoms: N_3  and  C_4 
REMARK    2  A    between atoms: C_12  and  C_13 
REMARK       I    between atoms: C_13  and  N_14 
REMARK    3  A    between atoms: N_14  and  C_15 
REMARK    4  A    between atoms: C_15  and  C_16 
REMARK    5  A    between atoms: C_16  and  O_17 
REMARK    6  A    between atoms: C_16  and  C_18 
REMARK    7  A    between atoms: C_21  and  O_22 
ROOT
HETATM    1  C   UNL     1      40.385 -15.187   2.467  1.00  0.00     0.255 C 
HETATM    2  N   UNL     1      41.006 -13.963   2.504  1.00  0.00    -0.350 N 
HETATM    3  O   UNL     1      39.247 -15.329   2.029  1.00  0.00    -0.268 OA
HETATM    4  H   UNL     1      42.000 -13.923   2.684  1.00  0.00     0.163 HD
ENDROOT
BRANCH   2   5
HETATM    5  C   UNL     1      40.380 -12.739   2.001  1.00  0.00     0.114 C 
HETATM    6  C   UNL     1      40.346 -11.670   3.102  1.00  0.00     0.035 C 
BRANCH   5   7
HETATM    7  C   UNL     1      41.125 -12.205   0.737  1.00  0.00     0.173 C 
BRANCH   7   8
HETATM    8  O   UNL     1      42.530 -12.125   1.027  1.00  0.00    -0.389 OA
HETATM    9  H   UNL     1      42.633 -11.550   1.803  1.00  0.00     0.210 HD
ENDBRANCH   7   8
BRANCH   7  10
HETATM   10  C   UNL     1      40.938 -13.025  -0.535  1.00  0.00    -0.028 A 
HETATM   11  C   UNL     1      39.700 -13.584  -0.885  1.00  0.00     0.012 A 
HETATM   12  C   UNL     1      39.547 -14.303  -2.076  1.00  0.00     0.037 A 
HETATM   13  C   UNL     1      40.616 -14.469  -2.957  1.00  0.00     0.068 A 
HETATM   14  C   UNL     1      41.847 -13.903  -2.635  1.00  0.00     0.037 A 
HETATM   15  C   UNL     1      42.000 -13.185  -1.442  1.00  0.00     0.012 A 
BRANCH  13  16
HETATM   16  O   UNL     1      40.329 -15.188  -4.083  1.00  0.00    -0.356 OA
HETATM   17  C   UNL     1      39.132 -15.956  -4.064  1.00  0.00     0.210 C 
ENDBRANCH  13  16
ENDBRANCH   7  10
ENDBRANCH   5   7
ENDBRANCH   2   5
BRANCH   1  18
HETATM   18  C   UNL     1      41.164 -16.327   2.930  1.00  0.00     0.075 C 
HETATM   19  C   UNL     1      42.110 -17.134   2.298  1.00  0.00     0.051 C 
HETATM   20  C   UNL     1      42.733 -17.047   0.948  1.00  0.00     0.071 C 
HETATM   21  N   UNL     1      42.451 -18.129   3.221  1.00  0.00    -0.220 N 
HETATM   22  N   UNL     1      41.909 -17.874   4.445  1.00  0.00    -0.177 NA
HETATM   23  C   UNL     1      41.124 -16.821   4.250  1.00  0.00     0.158 C 
BRANCH  21  24
HETATM   24  C   UNL     1      43.245 -19.311   3.019  1.00  0.00     0.150 A 
HETATM   25  N   UNL     1      44.265 -19.585   3.876  1.00  0.00    -0.241 NA
HETATM   26  C   UNL     1      45.004 -20.692   3.635  1.00  0.00     0.119 A 
HETATM   27  C   UNL     1      44.778 -21.556   2.578  1.00  0.00     0.019 A 
HETATM   28  C   UNL     1      43.734 -21.269   1.710  1.00  0.00     0.005 A 
HETATM   29  C   UNL     1      42.958 -20.132   1.924  1.00  0.00     0.052 A 
ENDBRANCH  21  24
ENDBRANCH   1  18
TORSDOF 7
ENDMDL
MODEL 4
REMARK VINA RESULT:      -7.8      3.171      8.540
REMARK  7 active torsions:
REMARK  status: ('A' for Active; 'I' for Inactive)
REMARK    1  A    between atoms: N_3  and  C_4 
REMARK    2  A    between atoms: C_12  and  C_13 
REMARK       I    between atoms: C_13  and  N_14 
REMARK    3  A    between atoms: N_14  and  C_15 
REMARK    4  A    between atoms: C_15  and  C_16 
REMARK    5  A    between atoms: C_16  and  O_17 
REMARK    6  A    between atoms: C_16  and  C_18 
REMARK    7  A    between atoms: C_21  and  O_22 
ROOT
HETATM    1  C   UNL     1      42.801 -14.369   2.937  1.00  0.00     0.255 C 
HETATM    2  N   UNL     1      42.197 -15.221   3.827  1.00  0.00    -0.350 N 
HETATM    3  O   UNL     1      43.927 -13.918   3.127  1.00  0.00    -0.268 OA
HETATM    4  H   UNL     1      41.364 -15.718   3.541  1.00  0.00     0.163 HD
ENDROOT
BRANCH   2   5
HETATM    5  C   UNL     1      42.850 -15.685   5.052  1.00  0.00     0.114 C 
HETATM    6  C   UNL     1      42.564 -14.713   6.205  1.00  0.00     0.035 C 
BRANCH   5   7
HETATM    7  C   UNL     1      42.389 -17.130   5.421  1.00  0.00     0.173 C 
BRANCH   7   8
HETATM    8  O   UNL     1      40.968 -17.228   5.228  1.00  0.00    -0.389 OA
HETATM    9  H   UNL     1      40.818 -17.834   4.485  1.00  0.00     0.210 HD
ENDBRANCH   7   8
BRANCH   7  10
HETATM   10  C   UNL     1      43.062 -18.257   4.646  1.00  0.00    -0.028 A 
HETATM   11  C   UNL     1      42.773 -18.506   3.296  1.00  0.00     0.012 A 
HETATM   12  C   UNL     1      43.430 -19.525   2.596  1.00  0.00     0.037 A 
HETATM   13  C   UNL     1      44.403 -20.310   3.217  1.00  0.00     0.068 A 
HETATM   14  C   UNL     1      44.716 -20.063   4.550  1.00  0.00     0.037 A 
HETATM   15  C   UNL     1      44.057 -19.044   5.250  1.00  0.00     0.012 A 
BRANCH  13  16
HETATM   16  O   UNL     1      44.967 -21.265   2.419  1.00  0.00    -0.356 OA
HETATM   17  C   UNL     1      44.094 -21.959   1.535  1.00  0.00     0.210 C 
ENDBRANCH  13  16
ENDBRANCH   7  10
ENDBRANCH   5   7
ENDBRANCH   2   5
BRANCH   1  18
HETATM   18  C   UNL     1      42.059 -14.059   1.722  1.00  0.00     0.075 C 
HETATM   19  C   UNL     1      41.216 -14.825   0.919  1.00  0.00     0.051 C 
HETATM   20  C   UNL     1      40.695 -16.212   1.080  1.00  0.00     0.071 C 
HETATM   21  N   UNL     1      40.865 -14.012  -0.163  1.00  0.00    -0.220 N 
HETATM   22  N   UNL     1      41.293 -12.732   0.022  1.00  0.00    -0.177 NA
HETATM   23  C   UNL     1      42.026 -12.781   1.127  1.00  0.00     0.158 C 
BRANCH  21  24
HETATM   24  C   UNL     1      40.161 -14.367  -1.367  1.00  0.00     0.150 A 
HETATM   25  N   UNL     1      38.873 -13.962  -1.532  1.00  0.00    -0.241 NA
HETATM   26  C   UNL     1      38.240 -14.340  -2.666  1.00  0.00     0.119 A 
HETATM   27  C   UNL     1      38.825 -15.105  -3.659  1.00  0.00     0.019 A 
HETATM   28  C   UNL     1      40.140 -15.513  -3.482  1.00  0.00     0.005 A 
HETATM   29  C   UNL     1      40.819 -15.148  -2.321  1.00  0.00     0.052 A 
ENDBRANCH  21  24
ENDBRANCH   1  18
TORSDOF 7
ENDMDL
MODEL 5
REMARK VINA RESULT:      -7.7      4.730      8.624
REMARK  7 active torsions:
REMARK  status: ('A' for Active; 'I' for Inactive)
REMARK    1  A    between atoms: N_3  and  C_4 
REMARK    2  A    between atoms: C_12  and  C_13 
REMARK       I    between atoms: C_13  and  N_14 
REMARK    3  A    between atoms: N_14  and  C_15 
REMARK    4  A    between atoms: C_15  and  C_16 
REMARK    5  A    between atoms: C_16  and  O_17 
REMARK    6  A    between atoms: C_16  and  C_18 
REMARK    7  A    between atoms: C_21  and  O_22 
ROOT
HETATM    1  C   UNL     1      42.344 -16.292   4.229  1.00  0.00     0.255 C 
HETATM    2  N   UNL     1      42.450 -16.300   2.861  1.00  0.00    -0.350 N 
HETATM    3  O   UNL     1      41.872 -17.238   4.853  1.00  0.00    -0.268 OA
HETATM    4  H   UNL     1      43.017 -15.596   2.409  1.00  0.00     0.163 HD
ENDROOT
BRANCH   2   5
HETATM    5  C   UNL     1      42.041 -17.441   2.039  1.00  0.00     0.114 C 
HETATM    6  C   UNL     1      41.062 -16.985   0.949  1.00  0.00     0.035 C 
BRANCH   5   7
HETATM    7  C   UNL     1      43.280 -18.149   1.406  1.00  0.00     0.173 C 
BRANCH   7   8
HETATM    8  O   UNL     1      44.384 -17.229   1.393  1.00  0.00    -0.389 OA
HETATM    9  H   UNL     1      44.094 -16.436   0.913  1.00  0.00     0.210 HD
ENDBRANCH   7   8
BRANCH   7  10
HETATM   10  C   UNL     1      43.729 -19.435   2.093  1.00  0.00    -0.028 A 
HETATM   11  C   UNL     1      44.246 -19.439   3.396  1.00  0.00     0.012 A 
HETATM   12  C   UNL     1      44.619 -20.638   4.017  1.00  0.00     0.037 A 
HETATM   13  C   UNL     1      44.470 -21.861   3.363  1.00  0.00     0.068 A 
HETATM   14  C   UNL     1      43.940 -21.876   2.077  1.00  0.00     0.037 A 
HETATM   15  C   UNL     1      43.568 -20.677   1.455  1.00  0.00     0.012 A 
BRANCH  13  16
HETATM   16  O   UNL     1      44.870 -22.951   4.084  1.00  0.00    -0.356 OA
HETATM   17  C   UNL     1      45.334 -22.710   5.407  1.00  0.00     0.210 C 
ENDBRANCH  13  16
ENDBRANCH   7  10
ENDBRANCH   5   7
ENDBRANCH   2   5
BRANCH   1  18
HETATM   18  C   UNL     1      42.865 -15.118   4.917  1.00  0.00     0.075 C 
HETATM   19  C   UNL     1      43.601 -14.971   6.092  1.00  0.00     0.051 C 
HETATM   20  C   UNL     1      44.203 -15.980   7.009  1.00  0.00     0.071 C 
HETATM   21  N   UNL     1      43.736 -13.594   6.297  1.00  0.00    -0.220 N 
HETATM   22  N   UNL     1      43.286 -12.889   5.221  1.00  0.00    -0.177 NA
HETATM   23  C   UNL     1      42.744 -13.802   4.425  1.00  0.00     0.158 C 
BRANCH  21  24
HETATM   24  C   UNL     1      44.251 -12.901   7.447  1.00  0.00     0.150 A 
HETATM   25  N   UNL     1      43.395 -12.216   8.253  1.00  0.00    -0.241 NA
HETATM   26  C   UNL     1      43.924 -11.556   9.308  1.00  0.00     0.119 A 
HETATM   27  C   UNL     1      45.273 -11.542   9.613  1.00  0.00     0.019 A 
HETATM   28  C   UNL     1      46.139 -12.244   8.785  1.00  0.00     0.005 A 
HETATM   29  C   UNL     1      45.628 -12.929   7.685  1.00  0.00     0.052 A 
ENDBRANCH  21  24
ENDBRANCH   1  18
TORSDOF 7
ENDMDL
MODEL 6
REMARK VINA RESULT:      -7.5      3.480      9.040
REMARK  7 active torsions:
REMARK  status: ('A' for Active; 'I' for Inactive)
REMARK    1  A    between atoms: N_3  and  C_4 
REMARK    2  A    between atoms: C_12  and  C_13 
REMARK       I    between atoms: C_13  and  N_14 
REMARK    3  A    between atoms: N_14  and  C_15 
REMARK    4  A    between atoms: C_15  and  C_16 
REMARK    5  A    between atoms: C_16  and  O_17 
REMARK    6  A    between atoms: C_16  and  C_18 
REMARK    7  A    between atoms: C_21  and  O_22 
ROOT
HETATM    1  C   UNL     1      41.455 -13.822   3.761  1.00  0.00     0.255 C 
HETATM    2  N   UNL     1      41.508 -15.087   4.291  1.00  0.00    -0.350 N 
HETATM    3  O   UNL     1      41.569 -12.817   4.456  1.00  0.00    -0.268 OA
HETATM    4  H   UNL     1      41.608 -15.876   3.667  1.00  0.00     0.163 HD
ENDROOT
BRANCH   2   5
HETATM    5  C   UNL     1      41.733 -15.343   5.715  1.00  0.00     0.114 C 
HETATM    6  C   UNL     1      40.768 -16.425   6.218  1.00  0.00     0.035 C 
BRANCH   5   7
HETATM    7  C   UNL     1      43.214 -15.756   5.984  1.00  0.00     0.173 C 
BRANCH   7   8
HETATM    8  O   UNL     1      43.479 -15.640   7.392  1.00  0.00    -0.389 OA
HETATM    9  H   UNL     1      44.049 -16.386   7.641  1.00  0.00     0.210 HD
ENDBRANCH   7   8
BRANCH   7  10
HETATM   10  C   UNL     1      43.601 -17.160   5.532  1.00  0.00    -0.028 A 
HETATM   11  C   UNL     1      43.599 -17.532   4.180  1.00  0.00     0.012 A 
HETATM   12  C   UNL     1      43.992 -18.818   3.788  1.00  0.00     0.037 A 
HETATM   13  C   UNL     1      44.413 -19.758   4.729  1.00  0.00     0.068 A 
HETATM   14  C   UNL     1      44.441 -19.398   6.073  1.00  0.00     0.037 A 
HETATM   15  C   UNL     1      44.046 -18.113   6.465  1.00  0.00     0.012 A 
BRANCH  13  16
HETATM   16  O   UNL     1      44.772 -20.970   4.211  1.00  0.00    -0.356 OA
HETATM   17  C   UNL     1      44.974 -22.029   5.140  1.00  0.00     0.210 C 
ENDBRANCH  13  16
ENDBRANCH   7  10
ENDBRANCH   5   7
ENDBRANCH   2   5
BRANCH   1  18
HETATM   18  C   UNL     1      41.305 -13.727   2.315  1.00  0.00     0.075 C 
HETATM   19  C   UNL     1      40.387 -14.288   1.429  1.00  0.00     0.051 C 
HETATM   20  C   UNL     1      39.166 -15.109   1.667  1.00  0.00     0.071 C 
HETATM   21  N   UNL     1      40.800 -13.909   0.148  1.00  0.00    -0.220 N 
HETATM   22  N   UNL     1      41.809 -12.995   0.205  1.00  0.00    -0.177 NA
HETATM   23  C   UNL     1      42.120 -12.921   1.493  1.00  0.00     0.158 C 
BRANCH  21  24
HETATM   24  C   UNL     1      40.311 -14.361  -1.128  1.00  0.00     0.150 A 
HETATM   25  N   UNL     1      39.191 -13.794  -1.653  1.00  0.00    -0.241 NA
HETATM   26  C   UNL     1      38.750 -14.267  -2.841  1.00  0.00     0.119 A 
HETATM   27  C   UNL     1      39.372 -15.281  -3.547  1.00  0.00     0.019 A 
HETATM   28  C   UNL     1      40.514 -15.852  -3.004  1.00  0.00     0.005 A 
HETATM   29  C   UNL     1      40.991 -15.395  -1.777  1.00  0.00     0.052 A 
ENDBRANCH  21  24
ENDBRANCH   1  18
TORSDOF 7
ENDMDL
MODEL 7
REMARK VINA RESULT:      -7.4      4.018      6.499
REMARK  7 active torsions:
REMARK  status: ('A' for Active; 'I' for Inactive)
REMARK    1  A    between atoms: N_3  and  C_4 
REMARK    2  A    between atoms: C_12  and  C_13 
REMARK       I    between atoms: C_13  and  N_14 
REMARK    3  A    between atoms: N_14  and  C_15 
REMARK    4  A    between atoms: C_15  and  C_16 
REMARK    5  A    between atoms: C_16  and  O_17 
REMARK    6  A    between atoms: C_16  and  C_18 
REMARK    7  A    between atoms: C_21  and  O_22 
ROOT
HETATM    1  C   UNL     1      43.099 -14.679   2.968  1.00  0.00     0.255 C 
HETATM    2  N   UNL     1      41.916 -14.447   2.311  1.00  0.00    -0.350 N 
HETATM    3  O   UNL     1      43.883 -13.774   3.240  1.00  0.00    -0.268 OA
HETATM    4  H   UNL     1      41.219 -15.178   2.284  1.00  0.00     0.163 HD
ENDROOT
BRANCH   2   5
HETATM    5  C   UNL     1      41.480 -13.108   1.909  1.00  0.00     0.114 C 
HETATM    6  C   UNL     1      41.619 -12.940   0.389  1.00  0.00     0.035 C 
BRANCH   5   7
HETATM    7  C   UNL     1      40.012 -12.836   2.362  1.00  0.00     0.173 C 
BRANCH   7   8
HETATM    8  O   UNL     1      39.218 -14.004   2.089  1.00  0.00    -0.389 OA
HETATM    9  H   UNL     1      38.296 -13.712   2.003  1.00  0.00     0.210 HD
ENDBRANCH   7   8
BRANCH   7  10
HETATM   10  C   UNL     1      39.831 -12.459   3.828  1.00  0.00    -0.028 A 
HETATM   11  C   UNL     1      39.605 -11.135   4.232  1.00  0.00     0.012 A 
HETATM   12  C   UNL     1      39.408 -10.820   5.582  1.00  0.00     0.037 A 
HETATM   13  C   UNL     1      39.414 -11.815   6.560  1.00  0.00     0.068 A 
HETATM   14  C   UNL     1      39.617 -13.136   6.174  1.00  0.00     0.037 A 
HETATM   15  C   UNL     1      39.815 -13.452   4.823  1.00  0.00     0.012 A 
BRANCH  13  16
HETATM   16  O   UNL     1      39.206 -11.371   7.835  1.00  0.00    -0.356 OA
HETATM   17  C   UNL     1      40.203 -10.519   8.388  1.00  0.00     0.210 C 
ENDBRANCH  13  16
ENDBRANCH   7  10
ENDBRANCH   5   7
ENDBRANCH   2   5
BRANCH   1  18
HETATM   18  C   UNL     1      43.360 -16.053   3.376  1.00  0.00     0.075 C 
HETATM   19  C   UNL     1      43.820 -17.166   2.675  1.00  0.00     0.051 C 
HETATM   20  C   UNL     1      44.307 -17.315   1.275  1.00  0.00     0.071 C 
HETATM   21  N   UNL     1      43.786 -18.235   3.576  1.00  0.00    -0.220 N 
HETATM   22  N   UNL     1      43.507 -17.807   4.840  1.00  0.00    -0.177 NA
HETATM   23  C   UNL     1      43.225 -16.517   4.701  1.00  0.00     0.158 C 
BRANCH  21  24
HETATM   24  C   UNL     1      43.988 -19.637   3.321  1.00  0.00     0.150 A 
HETATM   25  N   UNL     1      44.671 -20.389   4.225  1.00  0.00    -0.241 NA
HETATM   26  C   UNL     1      44.862 -21.696   3.933  1.00  0.00     0.119 A 
HETATM   27  C   UNL     1      44.400 -22.305   2.780  1.00  0.00     0.019 A 
HETATM   28  C   UNL     1      43.703 -21.529   1.864  1.00  0.00     0.005 A 
HETATM   29  C   UNL     1      43.496 -20.177   2.129  1.00  0.00     0.052 A 
ENDBRANCH  21  24
ENDBRANCH   1  18
TORSDOF 7
ENDMDL
MODEL 8
REMARK VINA RESULT:      -7.4      6.853     10.512
REMARK  7 active torsions:
REMARK  status: ('A' for Active; 'I' for Inactive)
REMARK    1  A    between atoms: N_3  and  C_4 
REMARK    2  A    between atoms: C_12  and  C_13 
REMARK       I    between atoms: C_13  and  N_14 
REMARK    3  A    between atoms: N_14  and  C_15 
REMARK    4  A    between atoms: C_15  and  C_16 
REMARK    5  A    between atoms: C_16  and  O_17 
REMARK    6  A    between atoms: C_16  and  C_18 
REMARK    7  A    between atoms: C_21  and  O_22 
ROOT
HETATM    1  C   UNL     1      41.502 -13.069   5.883  1.00  0.00     0.255 C 
HETATM    2  N   UNL     1      40.577 -12.642   6.804  1.00  0.00    -0.350 N 
HETATM    3  O   UNL     1      42.210 -12.285   5.258  1.00  0.00    -0.268 OA
HETATM    4  H   UNL     1      40.161 -13.318   7.430  1.00  0.00     0.163 HD
ENDROOT
BRANCH   2   5
HETATM    5  C   UNL     1      40.380 -11.230   7.136  1.00  0.00     0.114 C 
HETATM    6  C   UNL     1      39.466 -10.564   6.099  1.00  0.00     0.035 C 
BRANCH   5   7
HETATM    7  C   UNL     1      39.793 -11.068   8.574  1.00  0.00     0.173 C 
BRANCH   7   8
HETATM    8  O   UNL     1      39.012 -12.233   8.890  1.00  0.00    -0.389 OA
HETATM    9  H   UNL     1      38.408 -12.387   8.145  1.00  0.00     0.210 HD
ENDBRANCH   7   8
BRANCH   7  10
HETATM   10  C   UNL     1      40.816 -10.854   9.685  1.00  0.00    -0.028 A 
HETATM   11  C   UNL     1      42.090 -10.326   9.430  1.00  0.00     0.012 A 
HETATM   12  C   UNL     1      42.998 -10.107  10.473  1.00  0.00     0.037 A 
HETATM   13  C   UNL     1      42.655 -10.391  11.795  1.00  0.00     0.068 A 
HETATM   14  C   UNL     1      41.387 -10.896  12.068  1.00  0.00     0.037 A 
HETATM   15  C   UNL     1      40.479 -11.117  11.024  1.00  0.00     0.012 A 
BRANCH  13  16
HETATM   16  O   UNL     1      43.632 -10.127  12.714  1.00  0.00    -0.356 OA
HETATM   17  C   UNL     1      43.257  -9.345  13.841  1.00  0.00     0.210 C 
ENDBRANCH  13  16
ENDBRANCH   7  10
ENDBRANCH   5   7
ENDBRANCH   2   5
BRANCH   1  18
HETATM   18  C   UNL     1      41.640 -14.510   5.717  1.00  0.00     0.075 C 
HETATM   19  C   UNL     1      42.693 -15.385   5.973  1.00  0.00     0.051 C 
HETATM   20  C   UNL     1      44.023 -15.166   6.608  1.00  0.00     0.071 C 
HETATM   21  N   UNL     1      42.271 -16.643   5.530  1.00  0.00    -0.220 N 
HETATM   22  N   UNL     1      40.952 -16.628   5.186  1.00  0.00    -0.177 NA
HETATM   23  C   UNL     1      40.599 -15.351   5.271  1.00  0.00     0.158 C 
BRANCH  21  24
HETATM   24  C   UNL     1      43.034 -17.855   5.399  1.00  0.00     0.150 A 
HETATM   25  N   UNL     1      43.283 -18.611   6.502  1.00  0.00    -0.241 NA
HETATM   26  C   UNL     1      44.026 -19.729   6.339  1.00  0.00     0.119 A 
HETATM   27  C   UNL     1      44.538 -20.145   5.123  1.00  0.00     0.019 A 
HETATM   28  C   UNL     1      44.278 -19.369   4.003  1.00  0.00     0.005 A 
HETATM   29  C   UNL     1      43.522 -18.206   4.137  1.00  0.00     0.052 A 
ENDBRANCH  21  24
ENDBRANCH   1  18
TORSDOF 7
ENDMDL
MODEL 9
REMARK VINA RESULT:      -7.2      2.754      8.928
REMARK  7 active torsions:
REMARK  status: ('A' for Active; 'I' for Inactive)
REMARK    1  A    between atoms: N_3  and  C_4 
REMARK    2  A    between atoms: C_12  and  C_13 
REMARK       I    between atoms: C_13  and  N_14 
REMARK    3  A    between atoms: N_14  and  C_15 
REMARK    4  A    between atoms: C_15  and  C_16 
REMARK    5  A    between atoms: C_16  and  O_17 
REMARK    6  A    between atoms: C_16  and  C_18 
REMARK    7  A    between atoms: C_21  and  O_22 
ROOT
HETATM    1  C   UNL     1      41.403 -15.009   0.798  1.00  0.00     0.255 C 
HETATM    2  N   UNL     1      41.519 -14.628   2.111  1.00  0.00    -0.350 N 
HETATM    3  O   UNL     1      42.251 -15.701   0.241  1.00  0.00    -0.268 OA
HETATM    4  H   UNL     1      40.715 -14.232   2.580  1.00  0.00     0.163 HD
ENDROOT
BRANCH   2   5
HETATM    5  C   UNL     1      42.641 -15.034   2.961  1.00  0.00     0.114 C 
HETATM    6  C   UNL     1      43.157 -13.834   3.767  1.00  0.00     0.035 C 
BRANCH   5   7
HETATM    7  C   UNL     1      42.230 -16.202   3.911  1.00  0.00     0.173 C 
BRANCH   7   8
HETATM    8  O   UNL     1      40.803 -16.363   3.860  1.00  0.00    -0.389 OA
HETATM    9  H   UNL     1      40.611 -17.300   4.030  1.00  0.00     0.210 HD
ENDBRANCH   7   8
BRANCH   7  10
HETATM   10  C   UNL     1      42.881 -17.550   3.621  1.00  0.00    -0.028 A 
HETATM   11  C   UNL     1      42.735 -18.194   2.384  1.00  0.00     0.012 A 
HETATM   12  C   UNL     1      43.371 -19.416   2.131  1.00  0.00     0.037 A 
HETATM   13  C   UNL     1      44.180 -20.017   3.095  1.00  0.00     0.068 A 
HETATM   14  C   UNL     1      44.351 -19.382   4.321  1.00  0.00     0.037 A 
HETATM   15  C   UNL     1      43.714 -18.160   4.575  1.00  0.00     0.012 A 
BRANCH  13  16
HETATM   16  O   UNL     1      44.742 -21.204   2.716  1.00  0.00    -0.356 OA
HETATM   17  C   UNL     1      44.090 -21.917   1.672  1.00  0.00     0.210 C 
ENDBRANCH  13  16
ENDBRANCH   7  10
ENDBRANCH   5   7
ENDBRANCH   2   5
BRANCH   1  18
HETATM   18  C   UNL     1      40.192 -14.594   0.103  1.00  0.00     0.075 C 
HETATM   19  C   UNL     1      39.896 -14.437  -1.250  1.00  0.00     0.051 C 
HETATM   20  C   UNL     1      40.691 -14.739  -2.473  1.00  0.00     0.071 C 
HETATM   21  N   UNL     1      38.594 -13.928  -1.307  1.00  0.00    -0.220 N 
HETATM   22  N   UNL     1      38.006 -13.937  -0.078  1.00  0.00    -0.177 NA
HETATM   23  C   UNL     1      38.974 -14.304   0.753  1.00  0.00     0.158 C 
BRANCH  21  24
HETATM   24  C   UNL     1      37.873 -13.422  -2.444  1.00  0.00     0.150 A 
HETATM   25  N   UNL     1      37.793 -12.079  -2.642  1.00  0.00    -0.241 NA
HETATM   26  C   UNL     1      37.083 -11.645  -3.708  1.00  0.00     0.119 A 
HETATM   27  C   UNL     1      36.445 -12.484  -4.603  1.00  0.00     0.019 A 
HETATM   28  C   UNL     1      36.532 -13.853  -4.395  1.00  0.00     0.005 A 
HETATM   29  C   UNL     1      37.249 -14.334  -3.301  1.00  0.00     0.052 A 
ENDBRANCH  21  24
ENDBRANCH   1  18
TORSDOF 7
ENDMDL
MODEL 10
REMARK VINA RESULT:      -7.1      7.295     10.948
REMARK  7 active torsions:
REMARK  status: ('A' for Active; 'I' for Inactive)
REMARK    1  A    between atoms: N_3  and  C_4 
REMARK    2  A    between atoms: C_12  and  C_13 
REMARK       I    between atoms: C_13  and  N_14 
REMARK    3  A    between atoms: N_14  and  C_15 
REMARK    4  A    between atoms: C_15  and  C_16 
REMARK    5  A    between atoms: C_16  and  O_17 
REMARK    6  A    between atoms: C_16  and  C_18 
REMARK    7  A    between atoms: C_21  and  O_22 
ROOT
HETATM    1  C   UNL     1      41.234 -12.185   6.002  1.00  0.00     0.255 C 
HETATM    2  N   UNL     1      40.364 -12.040   7.053  1.00  0.00    -0.350 N 
HETATM    3  O   UNL     1      41.911 -11.252   5.580  1.00  0.00    -0.268 OA
HETATM    4  H   UNL     1      39.980 -12.867   7.490  1.00  0.00     0.163 HD
ENDROOT
BRANCH   2   5
HETATM    5  C   UNL     1      40.193 -10.777   7.774  1.00  0.00     0.114 C 
HETATM    6  C   UNL     1      39.334  -9.808   6.950  1.00  0.00     0.035 C 
BRANCH   5   7
HETATM    7  C   UNL     1      39.560 -11.015   9.181  1.00  0.00     0.173 C 
BRANCH   7   8
HETATM    8  O   UNL     1      38.994 -12.336   9.218  1.00  0.00    -0.389 OA
HETATM    9  H   UNL     1      39.175 -12.704  10.098  1.00  0.00     0.210 HD
ENDBRANCH   7   8
BRANCH   7  10
HETATM   10  C   UNL     1      40.507 -10.860  10.367  1.00  0.00    -0.028 A 
HETATM   11  C   UNL     1      41.686 -10.104  10.283  1.00  0.00     0.012 A 
HETATM   12  C   UNL     1      42.520  -9.949  11.396  1.00  0.00     0.037 A 
HETATM   13  C   UNL     1      42.194 -10.527  12.623  1.00  0.00     0.068 A 
HETATM   14  C   UNL     1      41.018 -11.263  12.729  1.00  0.00     0.037 A 
HETATM   15  C   UNL     1      40.184 -11.420  11.615  1.00  0.00     0.012 A 
BRANCH  13  16
HETATM   16  O   UNL     1      43.093 -10.294  13.626  1.00  0.00    -0.356 OA
HETATM   17  C   UNL     1      42.664  -9.452  14.689  1.00  0.00     0.210 C 
ENDBRANCH  13  16
ENDBRANCH   7  10
ENDBRANCH   5   7
ENDBRANCH   2   5
BRANCH   1  18
HETATM   18  C   UNL     1      41.356 -13.522   5.436  1.00  0.00     0.075 C 
HETATM   19  C   UNL     1      42.458 -14.337   5.185  1.00  0.00     0.051 C 
HETATM   20  C   UNL     1      43.903 -14.163   5.506  1.00  0.00     0.071 C 
HETATM   21  N   UNL     1      41.962 -15.478   4.547  1.00  0.00    -0.220 N 
HETATM   22  N   UNL     1      40.600 -15.497   4.557  1.00  0.00    -0.177 NA
HETATM   23  C   UNL     1      40.253 -14.316   5.057  1.00  0.00     0.158 C 
BRANCH  21  24
HETATM   24  C   UNL     1      42.691 -16.548   3.919  1.00  0.00     0.150 A 
HETATM   25  N   UNL     1      43.260 -16.343   2.700  1.00  0.00    -0.241 NA
HETATM   26  C   UNL     1      43.913 -17.383   2.133  1.00  0.00     0.119 A 
HETATM   27  C   UNL     1      44.036 -18.630   2.720  1.00  0.00     0.019 A 
HETATM   28  C   UNL     1      43.453 -18.829   3.963  1.00  0.00     0.005 A 
HETATM   29  C   UNL     1      42.766 -17.781   4.572  1.00  0.00     0.052 A 
ENDBRANCH  21  24
ENDBRANCH   1  18
TORSDOF 7
ENDMDL
