MODEL 1
REMARK VINA RESULT:      -8.2      0.000      0.000
REMARK  6 active torsions:
REMARK  status: ('A' for Active; 'I' for Inactive)
REMARK    1  A    between atoms: C_2  and  C_3 
REMARK    2  A    between atoms: C_13  and  C_14 
REMARK       I    between atoms: C_14  and  N_15 
REMARK    3  A    between atoms: N_15  and  C_16 
REMARK    4  A    between atoms: C_16  and  C_17 
REMARK    5  A    between atoms: C_17  and  C_18 
REMARK    6  A    between atoms: C_18  and  C_19 
ROOT
HETATM    1  C   UNL     1      45.041 -13.594   7.369  1.00  0.00     0.251 C 
HETATM    2  N   UNL     1      44.319 -13.101   8.436  1.00  0.00    -0.357 N 
HETATM    3  O   UNL     1      46.150 -13.177   7.058  1.00  0.00    -0.268 OA
HETATM    4  H   UNL     1      43.350 -13.356   8.553  1.00  0.00     0.162 HD
ENDROOT
BRANCH   1   5
HETATM    5  C   UNL     1      44.396 -14.661   6.549  1.00  0.00     0.032 A 
HETATM    6  C   UNL     1      44.379 -16.008   6.923  1.00  0.00     0.017 A 
HETATM    7  C   UNL     1      43.734 -16.964   6.121  1.00  0.00     0.008 A 
HETATM    8  C   UNL     1      43.114 -16.599   4.919  1.00  0.00    -0.052 A 
HETATM    9  C   UNL     1      43.152 -15.243   4.548  1.00  0.00     0.008 A 
HETATM   10  C   UNL     1      43.785 -14.288   5.349  1.00  0.00     0.017 A 
BRANCH   8  11
HETATM   11  C   UNL     1      42.389 -17.577   4.002  1.00  0.00     0.044 C 
HETATM   12  C   UNL     1      41.416 -16.910   3.015  1.00  0.00     0.241 C 
HETATM   13  N   UNL     1      42.094 -16.465   1.757  1.00  0.00    -0.074 N 
HETATM   14  H   UNL     1      42.694 -15.655   1.954  1.00  0.00     0.277 HD
HETATM   15  H   UNL     1      41.377 -16.109   1.111  1.00  0.00     0.277 HD
HETATM   16  C   UNL     1      42.873 -17.532   1.065  1.00  0.00     0.232 C 
HETATM   17  C   UNL     1      43.935 -18.076   2.004  1.00  0.00     0.028 C 
HETATM   18  C   UNL     1      43.335 -18.578   3.315  1.00  0.00     0.013 C 
ENDBRANCH   8  11
ENDBRANCH   1   5
BRANCH   2  19
HETATM   19  C   UNL     1      44.799 -11.977   9.221  1.00  0.00     0.123 C 
BRANCH  19  20
HETATM   20  C   UNL     1      44.518 -12.144  10.715  1.00  0.00     0.026 C 
BRANCH  20  21
HETATM   21  C   UNL     1      44.290 -10.799  11.408  1.00  0.00     0.061 C 
BRANCH  21  22
HETATM   22  C   UNL     1      43.087 -10.783  12.292  1.00  0.00     0.044 A 
HETATM   23  N   UNL     1      42.026 -11.615  11.969  1.00  0.00    -0.229 NA
HETATM   24  C   UNL     1      41.042 -11.452  12.818  1.00  0.00     0.164 A 
HETATM   25  N   UNL     1      39.887 -12.130  12.742  1.00  0.00    -0.378 N 
HETATM   26  S   UNL     1      41.329 -10.308  14.064  1.00  0.00    -0.062 SA
HETATM   27  H   UNL     1      39.910 -12.967  12.169  1.00  0.00     0.158 HD
HETATM   28  H   UNL     1      39.336 -12.220  13.586  1.00  0.00     0.158 HD
HETATM   29  C   UNL     1      42.878  -9.991  13.405  1.00  0.00     0.080 A 
ENDBRANCH  21  22
ENDBRANCH  20  21
ENDBRANCH  19  20
ENDBRANCH   2  19
TORSDOF 6
ENDMDL
MODEL 2
REMARK VINA RESULT:      -8.2      3.452      9.916
REMARK  6 active torsions:
REMARK  status: ('A' for Active; 'I' for Inactive)
REMARK    1  A    between atoms: C_2  and  C_3 
REMARK    2  A    between atoms: C_13  and  C_14 
REMARK       I    between atoms: C_14  and  N_15 
REMARK    3  A    between atoms: N_15  and  C_16 
REMARK    4  A    between atoms: C_16  and  C_17 
REMARK    5  A    between atoms: C_17  and  C_18 
REMARK    6  A    between atoms: C_18  and  C_19 
ROOT
HETATM    1  C   UNL     1      44.996 -12.868   8.194  1.00  0.00     0.251 C 
HETATM    2  N   UNL     1      44.052 -13.720   7.660  1.00  0.00    -0.357 N 
HETATM    3  O   UNL     1      46.178 -12.886   7.871  1.00  0.00    -0.268 OA
HETATM    4  H   UNL     1      43.134 -13.781   8.072  1.00  0.00     0.162 HD
ENDROOT
BRANCH   1   5
HETATM    5  C   UNL     1      44.532 -11.915   9.245  1.00  0.00     0.032 A 
HETATM    6  C   UNL     1      45.226 -11.699  10.440  1.00  0.00     0.017 A 
HETATM    7  C   UNL     1      44.754 -10.770  11.382  1.00  0.00     0.008 A 
HETATM    8  C   UNL     1      43.568 -10.056  11.161  1.00  0.00    -0.052 A 
HETATM    9  C   UNL     1      42.873 -10.295   9.962  1.00  0.00     0.008 A 
HETATM   10  C   UNL     1      43.347 -11.213   9.019  1.00  0.00     0.017 A 
BRANCH   8  11
HETATM   11  C   UNL     1      42.998  -9.028  12.131  1.00  0.00     0.044 C 
HETATM   12  C   UNL     1      41.486  -8.792  11.980  1.00  0.00     0.241 C 
HETATM   13  N   UNL     1      40.674  -9.769  12.771  1.00  0.00    -0.074 N 
HETATM   14  H   UNL     1      40.729 -10.698  12.338  1.00  0.00     0.277 HD
HETATM   15  H   UNL     1      39.682  -9.502  12.695  1.00  0.00     0.277 HD
HETATM   16  C   UNL     1      41.037  -9.847  14.215  1.00  0.00     0.232 C 
HETATM   17  C   UNL     1      42.499 -10.233  14.352  1.00  0.00     0.028 C 
HETATM   18  C   UNL     1      43.415  -9.277  13.592  1.00  0.00     0.013 C 
ENDBRANCH   8  11
ENDBRANCH   1   5
BRANCH   2  19
HETATM   19  C   UNL     1      44.421 -14.768   6.724  1.00  0.00     0.123 C 
BRANCH  19  20
HETATM   20  C   UNL     1      43.850 -16.132   7.117  1.00  0.00     0.026 C 
BRANCH  20  21
HETATM   21  C   UNL     1      44.768 -17.280   6.691  1.00  0.00     0.061 C 
BRANCH  21  22
HETATM   22  C   UNL     1      44.294 -17.997   5.471  1.00  0.00     0.044 A 
HETATM   23  N   UNL     1      44.880 -19.213   5.157  1.00  0.00    -0.229 NA
HETATM   24  C   UNL     1      44.381 -19.688   4.043  1.00  0.00     0.164 A 
HETATM   25  N   UNL     1      44.770 -20.853   3.503  1.00  0.00    -0.378 N 
HETATM   26  S   UNL     1      43.168 -18.721   3.311  1.00  0.00    -0.062 SA
HETATM   27  H   UNL     1      45.265 -21.480   4.127  1.00  0.00     0.158 HD
HETATM   28  H   UNL     1      44.130 -21.316   2.869  1.00  0.00     0.158 HD
HETATM   29  C   UNL     1      43.340 -17.569   4.568  1.00  0.00     0.080 A 
ENDBRANCH  21  22
ENDBRANCH  20  21
ENDBRANCH  19  20
ENDBRANCH   2  19
TORSDOF 6
ENDMDL
MODEL 3
REMARK VINA RESULT:      -7.9      7.694     10.015
REMARK  6 active torsions:
REMARK  status: ('A' for Active; 'I' for Inactive)
REMARK    1  A    between atoms: C_2  and  C_3 
REMARK    2  A    between atoms: C_13  and  C_14 
REMARK       I    between atoms: C_14  and  N_15 
REMARK    3  A    between atoms: N_15  and  C_16 
REMARK    4  A    between atoms: C_16  and  C_17 
REMARK    5  A    between atoms: C_17  and  C_18 
REMARK    6  A    between atoms: C_18  and  C_19 
ROOT
HETATM    1  C   UNL     1      40.560 -16.106   2.982  1.00  0.00     0.251 C 
HETATM    2  N   UNL     1      39.701 -16.080   1.903  1.00  0.00    -0.357 N 
HETATM    3  O   UNL     1      40.471 -15.336   3.931  1.00  0.00    -0.268 OA
HETATM    4  H   UNL     1      39.910 -16.618   1.076  1.00  0.00     0.162 HD
ENDROOT
BRANCH   1   5
HETATM    5  C   UNL     1      41.667 -17.106   2.944  1.00  0.00     0.032 A 
HETATM    6  C   UNL     1      42.019 -17.813   1.790  1.00  0.00     0.017 A 
HETATM    7  C   UNL     1      43.087 -18.725   1.809  1.00  0.00     0.008 A 
HETATM    8  C   UNL     1      43.810 -18.967   2.984  1.00  0.00    -0.052 A 
HETATM    9  C   UNL     1      43.435 -18.260   4.141  1.00  0.00     0.008 A 
HETATM   10  C   UNL     1      42.378 -17.345   4.122  1.00  0.00     0.017 A 
BRANCH   8  11
HETATM   11  C   UNL     1      44.985 -19.933   3.080  1.00  0.00     0.044 C 
HETATM   12  C   UNL     1      45.365 -20.319   4.520  1.00  0.00     0.241 C 
HETATM   13  N   UNL     1      44.565 -21.475   5.032  1.00  0.00    -0.074 N 
HETATM   14  H   UNL     1      43.596 -21.179   5.203  1.00  0.00     0.277 HD
HETATM   15  H   UNL     1      44.927 -21.734   5.960  1.00  0.00     0.277 HD
HETATM   16  C   UNL     1      44.592 -22.681   4.156  1.00  0.00     0.232 C 
HETATM   17  C   UNL     1      44.066 -22.320   2.777  1.00  0.00     0.028 C 
HETATM   18  C   UNL     1      44.838 -21.158   2.159  1.00  0.00     0.013 C 
ENDBRANCH   8  11
ENDBRANCH   1   5
BRANCH   2  19
HETATM   19  C   UNL     1      38.669 -15.066   1.781  1.00  0.00     0.123 C 
BRANCH  19  20
HETATM   20  C   UNL     1      39.157 -13.819   1.042  1.00  0.00     0.026 C 
BRANCH  20  21
HETATM   21  C   UNL     1      38.310 -13.520  -0.197  1.00  0.00     0.061 C 
BRANCH  21  22
HETATM   22  C   UNL     1      38.827 -14.168  -1.439  1.00  0.00     0.044 A 
HETATM   23  N   UNL     1      40.161 -14.544  -1.475  1.00  0.00    -0.229 NA
HETATM   24  C   UNL     1      40.459 -15.058  -2.642  1.00  0.00     0.164 A 
HETATM   25  N   UNL     1      41.685 -15.505  -2.955  1.00  0.00    -0.378 N 
HETATM   26  S   UNL     1      39.162 -15.140  -3.763  1.00  0.00    -0.062 SA
HETATM   27  H   UNL     1      42.299 -15.681  -2.167  1.00  0.00     0.158 HD
HETATM   28  H   UNL     1      41.764 -16.183  -3.703  1.00  0.00     0.158 HD
HETATM   29  C   UNL     1      38.129 -14.413  -2.606  1.00  0.00     0.080 A 
ENDBRANCH  21  22
ENDBRANCH  20  21
ENDBRANCH  19  20
ENDBRANCH   2  19
TORSDOF 6
ENDMDL
MODEL 4
REMARK VINA RESULT:      -7.8      5.910      7.952
REMARK  6 active torsions:
REMARK  status: ('A' for Active; 'I' for Inactive)
REMARK    1  A    between atoms: C_2  and  C_3 
REMARK    2  A    between atoms: C_13  and  C_14 
REMARK       I    between atoms: C_14  and  N_15 
REMARK    3  A    between atoms: N_15  and  C_16 
REMARK    4  A    between atoms: C_16  and  C_17 
REMARK    5  A    between atoms: C_17  and  C_18 
REMARK    6  A    between atoms: C_18  and  C_19 
ROOT
HETATM    1  C   UNL     1      41.425 -16.958   1.227  1.00  0.00     0.251 C 
HETATM    2  N   UNL     1      42.016 -16.206   0.233  1.00  0.00    -0.357 N 
HETATM    3  O   UNL     1      40.211 -17.072   1.351  1.00  0.00    -0.268 OA
HETATM    4  H   UNL     1      43.004 -16.008   0.268  1.00  0.00     0.162 HD
ENDROOT
BRANCH   1   5
HETATM    5  C   UNL     1      42.333 -17.622   2.207  1.00  0.00     0.032 A 
HETATM    6  C   UNL     1      43.240 -18.625   1.852  1.00  0.00     0.017 A 
HETATM    7  C   UNL     1      44.088 -19.195   2.815  1.00  0.00     0.008 A 
HETATM    8  C   UNL     1      44.033 -18.793   4.156  1.00  0.00    -0.052 A 
HETATM    9  C   UNL     1      43.105 -17.794   4.502  1.00  0.00     0.008 A 
HETATM   10  C   UNL     1      42.266 -17.218   3.543  1.00  0.00     0.017 A 
BRANCH   8  11
HETATM   11  C   UNL     1      44.925 -19.359   5.255  1.00  0.00     0.044 C 
HETATM   12  C   UNL     1      44.839 -18.598   6.588  1.00  0.00     0.241 C 
HETATM   13  N   UNL     1      43.719 -19.086   7.453  1.00  0.00    -0.074 N 
HETATM   14  H   UNL     1      42.819 -18.796   7.052  1.00  0.00     0.277 HD
HETATM   15  H   UNL     1      43.772 -18.598   8.358  1.00  0.00     0.277 HD
HETATM   16  C   UNL     1      43.727 -20.556   7.702  1.00  0.00     0.232 C 
HETATM   17  C   UNL     1      43.655 -21.297   6.379  1.00  0.00     0.028 C 
HETATM   18  C   UNL     1      44.777 -20.881   5.431  1.00  0.00     0.013 C 
ENDBRANCH   8  11
ENDBRANCH   1   5
BRANCH   2  19
HETATM   19  C   UNL     1      41.223 -15.419  -0.695  1.00  0.00     0.123 C 
BRANCH  19  20
HETATM   20  C   UNL     1      40.710 -14.121  -0.072  1.00  0.00     0.026 C 
BRANCH  20  21
HETATM   21  C   UNL     1      41.853 -13.178   0.309  1.00  0.00     0.061 C 
BRANCH  21  22
HETATM   22  C   UNL     1      41.999 -12.988   1.783  1.00  0.00     0.044 A 
HETATM   23  N   UNL     1      42.975 -13.719   2.443  1.00  0.00    -0.229 NA
HETATM   24  C   UNL     1      42.945 -13.467   3.727  1.00  0.00     0.164 A 
HETATM   25  N   UNL     1      43.780 -14.039   4.608  1.00  0.00    -0.378 N 
HETATM   26  S   UNL     1      41.762 -12.327   4.225  1.00  0.00    -0.062 SA
HETATM   27  H   UNL     1      44.610 -14.465   4.209  1.00  0.00     0.158 HD
HETATM   28  H   UNL     1      43.939 -13.563   5.486  1.00  0.00     0.158 HD
HETATM   29  C   UNL     1      41.236 -12.178   2.602  1.00  0.00     0.080 A 
ENDBRANCH  21  22
ENDBRANCH  20  21
ENDBRANCH  19  20
ENDBRANCH   2  19
TORSDOF 6
ENDMDL
MODEL 5
REMARK VINA RESULT:      -7.8      3.097      9.631
REMARK  6 active torsions:
REMARK  status: ('A' for Active; 'I' for Inactive)
REMARK    1  A    between atoms: C_2  and  C_3 
REMARK    2  A    between atoms: C_13  and  C_14 
REMARK       I    between atoms: C_14  and  N_15 
REMARK    3  A    between atoms: N_15  and  C_16 
REMARK    4  A    between atoms: C_16  and  C_17 
REMARK    5  A    between atoms: C_17  and  C_18 
REMARK    6  A    between atoms: C_18  and  C_19 
ROOT
HETATM    1  C   UNL     1      44.852 -12.720   8.472  1.00  0.00     0.251 C 
HETATM    2  N   UNL     1      43.939 -13.460   7.749  1.00  0.00    -0.357 N 
HETATM    3  O   UNL     1      46.064 -12.881   8.390  1.00  0.00    -0.268 OA
HETATM    4  H   UNL     1      42.957 -13.408   7.970  1.00  0.00     0.162 HD
ENDROOT
BRANCH   1   5
HETATM    5  C   UNL     1      44.304 -11.710   9.424  1.00  0.00     0.032 A 
HETATM    6  C   UNL     1      43.142 -10.974   9.172  1.00  0.00     0.017 A 
HETATM    7  C   UNL     1      42.660 -10.054  10.117  1.00  0.00     0.008 A 
HETATM    8  C   UNL     1      43.339  -9.833  11.322  1.00  0.00    -0.052 A 
HETATM    9  C   UNL     1      44.515 -10.569  11.556  1.00  0.00     0.008 A 
HETATM   10  C   UNL     1      44.991 -11.492  10.620  1.00  0.00     0.017 A 
BRANCH   8  11
HETATM   11  C   UNL     1      42.874  -8.858  12.398  1.00  0.00     0.044 C 
HETATM   12  C   UNL     1      41.372  -8.532  12.344  1.00  0.00     0.241 C 
HETATM   13  N   UNL     1      40.545  -9.526  13.098  1.00  0.00    -0.074 N 
HETATM   14  H   UNL     1      40.528 -10.419  12.591  1.00  0.00     0.277 HD
HETATM   15  H   UNL     1      39.568  -9.203  13.094  1.00  0.00     0.277 HD
HETATM   16  C   UNL     1      40.972  -9.740  14.511  1.00  0.00     0.232 C 
HETATM   17  C   UNL     1      42.415 -10.211  14.540  1.00  0.00     0.028 C 
HETATM   18  C   UNL     1      43.346  -9.245  13.811  1.00  0.00     0.013 C 
ENDBRANCH   8  11
ENDBRANCH   1   5
BRANCH   2  19
HETATM   19  C   UNL     1      44.361 -14.553   6.890  1.00  0.00     0.123 C 
BRANCH  19  20
HETATM   20  C   UNL     1      43.862 -14.396   5.453  1.00  0.00     0.026 C 
BRANCH  20  21
HETATM   21  C   UNL     1      42.878 -15.500   5.065  1.00  0.00     0.061 C 
BRANCH  21  22
HETATM   22  C   UNL     1      41.710 -15.004   4.277  1.00  0.00     0.044 A 
HETATM   23  N   UNL     1      41.014 -15.914   3.497  1.00  0.00    -0.229 NA
HETATM   24  C   UNL     1      40.050 -15.312   2.844  1.00  0.00     0.164 A 
HETATM   25  N   UNL     1      39.217 -15.954   2.010  1.00  0.00    -0.378 N 
HETATM   26  S   UNL     1      39.904 -13.628   3.137  1.00  0.00    -0.062 SA
HETATM   27  H   UNL     1      39.188 -16.962   2.113  1.00  0.00     0.158 HD
HETATM   28  H   UNL     1      38.318 -15.529   1.823  1.00  0.00     0.158 HD
HETATM   29  C   UNL     1      41.246 -13.705   4.199  1.00  0.00     0.080 A 
ENDBRANCH  21  22
ENDBRANCH  20  21
ENDBRANCH  19  20
ENDBRANCH   2  19
TORSDOF 6
ENDMDL
MODEL 6
REMARK VINA RESULT:      -7.6      7.163      9.419
REMARK  6 active torsions:
REMARK  status: ('A' for Active; 'I' for Inactive)
REMARK    1  A    between atoms: C_2  and  C_3 
REMARK    2  A    between atoms: C_13  and  C_14 
REMARK       I    between atoms: C_14  and  N_15 
REMARK    3  A    between atoms: N_15  and  C_16 
REMARK    4  A    between atoms: C_16  and  C_17 
REMARK    5  A    between atoms: C_17  and  C_18 
REMARK    6  A    between atoms: C_18  and  C_19 
ROOT
HETATM    1  C   UNL     1      41.259 -15.935   3.384  1.00  0.00     0.251 C 
HETATM    2  N   UNL     1      41.472 -17.277   3.618  1.00  0.00    -0.357 N 
HETATM    3  O   UNL     1      41.219 -15.095   4.275  1.00  0.00    -0.268 OA
HETATM    4  H   UNL     1      41.333 -17.949   2.878  1.00  0.00     0.162 HD
ENDROOT
BRANCH   1   5
HETATM    5  C   UNL     1      41.028 -15.521   1.969  1.00  0.00     0.032 A 
HETATM    6  C   UNL     1      40.299 -14.382   1.614  1.00  0.00     0.017 A 
HETATM    7  C   UNL     1      40.136 -14.029   0.265  1.00  0.00     0.008 A 
HETATM    8  C   UNL     1      40.677 -14.817  -0.759  1.00  0.00    -0.052 A 
HETATM    9  C   UNL     1      41.395 -15.969  -0.389  1.00  0.00     0.008 A 
HETATM   10  C   UNL     1      41.566 -16.317   0.955  1.00  0.00     0.017 A 
BRANCH   8  11
HETATM   11  C   UNL     1      40.549 -14.495  -2.243  1.00  0.00     0.044 C 
HETATM   12  C   UNL     1      40.727 -15.711  -3.168  1.00  0.00     0.241 C 
HETATM   13  N   UNL     1      39.450 -16.463  -3.374  1.00  0.00    -0.074 N 
HETATM   14  H   UNL     1      39.197 -16.961  -2.512  1.00  0.00     0.277 HD
HETATM   15  H   UNL     1      39.620 -17.206  -4.066  1.00  0.00     0.277 HD
HETATM   16  C   UNL     1      38.309 -15.626  -3.844  1.00  0.00     0.232 C 
HETATM   17  C   UNL     1      38.044 -14.518  -2.840  1.00  0.00     0.028 C 
HETATM   18  C   UNL     1      39.290 -13.675  -2.578  1.00  0.00     0.013 C 
ENDBRANCH   8  11
ENDBRANCH   1   5
BRANCH   2  19
HETATM   19  C   UNL     1      41.583 -17.803   4.967  1.00  0.00     0.123 C 
BRANCH  19  20
HETATM   20  C   UNL     1      43.014 -18.202   5.326  1.00  0.00     0.026 C 
BRANCH  20  21
HETATM   21  C   UNL     1      43.902 -18.322   4.086  1.00  0.00     0.061 C 
BRANCH  21  22
HETATM   22  C   UNL     1      44.112 -19.732   3.641  1.00  0.00     0.044 A 
HETATM   23  N   UNL     1      44.520 -20.662   4.584  1.00  0.00    -0.229 NA
HETATM   24  C   UNL     1      44.694 -21.834   4.024  1.00  0.00     0.164 A 
HETATM   25  N   UNL     1      45.091 -22.920   4.704  1.00  0.00    -0.378 N 
HETATM   26  S   UNL     1      44.364 -21.901   2.342  1.00  0.00    -0.062 SA
HETATM   27  H   UNL     1      44.988 -22.866   5.712  1.00  0.00     0.158 HD
HETATM   28  H   UNL     1      44.874 -23.828   4.313  1.00  0.00     0.158 HD
HETATM   29  C   UNL     1      43.981 -20.232   2.359  1.00  0.00     0.080 A 
ENDBRANCH  21  22
ENDBRANCH  20  21
ENDBRANCH  19  20
ENDBRANCH   2  19
TORSDOF 6
ENDMDL
MODEL 7
REMARK VINA RESULT:      -7.6      6.960      9.785
REMARK  6 active torsions:
REMARK  status: ('A' for Active; 'I' for Inactive)
REMARK    1  A    between atoms: C_2  and  C_3 
REMARK    2  A    between atoms: C_13  and  C_14 
REMARK       I    between atoms: C_14  and  N_15 
REMARK    3  A    between atoms: N_15  and  C_16 
REMARK    4  A    between atoms: C_16  and  C_17 
REMARK    5  A    between atoms: C_17  and  C_18 
REMARK    6  A    between atoms: C_18  and  C_19 
ROOT
HETATM    1  C   UNL     1      40.899 -16.438   1.882  1.00  0.00     0.251 C 
HETATM    2  N   UNL     1      39.862 -15.784   2.512  1.00  0.00    -0.357 N 
HETATM    3  O   UNL     1      41.032 -16.473   0.664  1.00  0.00    -0.268 OA
HETATM    4  H   UNL     1      39.702 -15.920   3.498  1.00  0.00     0.162 HD
ENDROOT
BRANCH   1   5
HETATM    5  C   UNL     1      41.871 -17.165   2.751  1.00  0.00     0.032 A 
HETATM    6  C   UNL     1      42.514 -18.343   2.359  1.00  0.00     0.017 A 
HETATM    7  C   UNL     1      43.438 -18.969   3.211  1.00  0.00     0.008 A 
HETATM    8  C   UNL     1      43.722 -18.446   4.480  1.00  0.00    -0.052 A 
HETATM    9  C   UNL     1      43.056 -17.269   4.867  1.00  0.00     0.008 A 
HETATM   10  C   UNL     1      42.142 -16.639   4.016  1.00  0.00     0.017 A 
BRANCH   8  11
HETATM   11  C   UNL     1      44.717 -19.064   5.455  1.00  0.00     0.044 C 
HETATM   12  C   UNL     1      44.644 -18.486   6.878  1.00  0.00     0.241 C 
HETATM   13  N   UNL     1      43.617 -19.175   7.722  1.00  0.00    -0.074 N 
HETATM   14  H   UNL     1      42.676 -18.917   7.402  1.00  0.00     0.277 HD
HETATM   15  H   UNL     1      43.681 -18.801   8.679  1.00  0.00     0.277 HD
HETATM   16  C   UNL     1      43.759 -20.658   7.779  1.00  0.00     0.232 C 
HETATM   17  C   UNL     1      43.674 -21.231   6.375  1.00  0.00     0.028 C 
HETATM   18  C   UNL     1      44.704 -20.603   5.439  1.00  0.00     0.013 C 
ENDBRANCH   8  11
ENDBRANCH   1   5
BRANCH   2  19
HETATM   19  C   UNL     1      38.794 -15.153   1.756  1.00  0.00     0.123 C 
BRANCH  19  20
HETATM   20  C   UNL     1      39.113 -13.703   1.388  1.00  0.00     0.026 C 
BRANCH  20  21
HETATM   21  C   UNL     1      38.502 -13.307   0.043  1.00  0.00     0.061 C 
BRANCH  21  22
HETATM   22  C   UNL     1      39.357 -13.667  -1.127  1.00  0.00     0.044 A 
HETATM   23  N   UNL     1      40.716 -13.402  -1.052  1.00  0.00    -0.229 NA
HETATM   24  C   UNL     1      41.310 -13.740  -2.168  1.00  0.00     0.164 A 
HETATM   25  N   UNL     1      42.628 -13.590  -2.373  1.00  0.00    -0.378 N 
HETATM   26  S   UNL     1      40.288 -14.414  -3.371  1.00  0.00    -0.062 SA
HETATM   27  H   UNL     1      43.187 -13.460  -1.537  1.00  0.00     0.158 HD
HETATM   28  H   UNL     1      43.065 -14.169  -3.079  1.00  0.00     0.158 HD
HETATM   29  C   UNL     1      38.945 -14.216  -2.326  1.00  0.00     0.080 A 
ENDBRANCH  21  22
ENDBRANCH  20  21
ENDBRANCH  19  20
ENDBRANCH   2  19
TORSDOF 6
ENDMDL
MODEL 8
REMARK VINA RESULT:      -7.5      6.899     10.720
REMARK  6 active torsions:
REMARK  status: ('A' for Active; 'I' for Inactive)
REMARK    1  A    between atoms: C_2  and  C_3 
REMARK    2  A    between atoms: C_13  and  C_14 
REMARK       I    between atoms: C_14  and  N_15 
REMARK    3  A    between atoms: N_15  and  C_16 
REMARK    4  A    between atoms: C_16  and  C_17 
REMARK    5  A    between atoms: C_17  and  C_18 
REMARK    6  A    between atoms: C_18  and  C_19 
ROOT
HETATM    1  C   UNL     1      41.610 -15.569   0.151  1.00  0.00     0.251 C 
HETATM    2  N   UNL     1      41.755 -14.202   0.264  1.00  0.00    -0.357 N 
HETATM    3  O   UNL     1      41.209 -16.121  -0.867  1.00  0.00    -0.268 OA
HETATM    4  H   UNL     1      41.928 -13.784   1.165  1.00  0.00     0.162 HD
ENDROOT
BRANCH   1   5
HETATM    5  C   UNL     1      41.926 -16.387   1.359  1.00  0.00     0.032 A 
HETATM    6  C   UNL     1      42.792 -17.485   1.333  1.00  0.00     0.017 A 
HETATM    7  C   UNL     1      43.071 -18.202   2.508  1.00  0.00     0.008 A 
HETATM    8  C   UNL     1      42.475 -17.853   3.727  1.00  0.00    -0.052 A 
HETATM    9  C   UNL     1      41.594 -16.755   3.735  1.00  0.00     0.008 A 
HETATM   10  C   UNL     1      41.323 -16.035   2.568  1.00  0.00     0.017 A 
BRANCH   8  11
HETATM   11  C   UNL     1      42.734 -18.577   5.043  1.00  0.00     0.044 C 
HETATM   12  C   UNL     1      43.971 -19.491   5.024  1.00  0.00     0.241 C 
HETATM   13  N   UNL     1      45.231 -18.754   5.353  1.00  0.00    -0.074 N 
HETATM   14  H   UNL     1      45.485 -18.134   4.574  1.00  0.00     0.277 HD
HETATM   15  H   UNL     1      46.000 -19.436   5.408  1.00  0.00     0.277 HD
HETATM   16  C   UNL     1      45.182 -17.987   6.631  1.00  0.00     0.232 C 
HETATM   17  C   UNL     1      44.048 -16.978   6.575  1.00  0.00     0.028 C 
HETATM   18  C   UNL     1      42.708 -17.641   6.265  1.00  0.00     0.013 C 
ENDBRANCH   8  11
ENDBRANCH   1   5
BRANCH   2  19
HETATM   19  C   UNL     1      41.356 -13.307  -0.808  1.00  0.00     0.123 C 
BRANCH  19  20
HETATM   20  C   UNL     1      42.320 -13.347  -1.995  1.00  0.00     0.026 C 
BRANCH  20  21
HETATM   21  C   UNL     1      41.600 -13.115  -3.325  1.00  0.00     0.061 C 
BRANCH  21  22
HETATM   22  C   UNL     1      40.314 -13.865  -3.441  1.00  0.00     0.044 A 
HETATM   23  N   UNL     1      40.370 -15.228  -3.681  1.00  0.00    -0.229 NA
HETATM   24  C   UNL     1      39.163 -15.723  -3.794  1.00  0.00     0.164 A 
HETATM   25  N   UNL     1      38.921 -17.021  -4.032  1.00  0.00    -0.378 N 
HETATM   26  S   UNL     1      37.885 -14.594  -3.603  1.00  0.00    -0.062 SA
HETATM   27  H   UNL     1      39.695 -17.650  -3.849  1.00  0.00     0.158 HD
HETATM   28  H   UNL     1      38.016 -17.389  -3.766  1.00  0.00     0.158 HD
HETATM   29  C   UNL     1      39.035 -13.345  -3.374  1.00  0.00     0.080 A 
ENDBRANCH  21  22
ENDBRANCH  20  21
ENDBRANCH  19  20
ENDBRANCH   2  19
TORSDOF 6
ENDMDL
MODEL 9
REMARK VINA RESULT:      -7.3      7.409      8.948
REMARK  6 active torsions:
REMARK  status: ('A' for Active; 'I' for Inactive)
REMARK    1  A    between atoms: C_2  and  C_3 
REMARK    2  A    between atoms: C_13  and  C_14 
REMARK       I    between atoms: C_14  and  N_15 
REMARK    3  A    between atoms: N_15  and  C_16 
REMARK    4  A    between atoms: C_16  and  C_17 
REMARK    5  A    between atoms: C_17  and  C_18 
REMARK    6  A    between atoms: C_18  and  C_19 
ROOT
HETATM    1  C   UNL     1      40.708 -16.069   2.386  1.00  0.00     0.251 C 
HETATM    2  N   UNL     1      40.893 -14.782   2.848  1.00  0.00    -0.357 N 
HETATM    3  O   UNL     1      39.683 -16.441   1.827  1.00  0.00    -0.268 OA
HETATM    4  H   UNL     1      41.678 -14.566   3.444  1.00  0.00     0.162 HD
ENDROOT
BRANCH   1   5
HETATM    5  C   UNL     1      41.812 -17.043   2.630  1.00  0.00     0.032 A 
HETATM    6  C   UNL     1      42.038 -17.646   3.871  1.00  0.00     0.017 A 
HETATM    7  C   UNL     1      43.078 -18.576   4.034  1.00  0.00     0.008 A 
HETATM    8  C   UNL     1      43.928 -18.905   2.969  1.00  0.00    -0.052 A 
HETATM    9  C   UNL     1      43.697 -18.278   1.730  1.00  0.00     0.008 A 
HETATM   10  C   UNL     1      42.656 -17.360   1.564  1.00  0.00     0.017 A 
BRANCH   8  11
HETATM   11  C   UNL     1      45.071 -19.908   3.067  1.00  0.00     0.044 C 
HETATM   12  C   UNL     1      45.384 -20.366   4.502  1.00  0.00     0.241 C 
HETATM   13  N   UNL     1      44.533 -21.519   4.931  1.00  0.00    -0.074 N 
HETATM   14  H   UNL     1      43.567 -21.203   5.077  1.00  0.00     0.277 HD
HETATM   15  H   UNL     1      44.851 -21.829   5.860  1.00  0.00     0.277 HD
HETATM   16  C   UNL     1      44.562 -22.687   4.004  1.00  0.00     0.232 C 
HETATM   17  C   UNL     1      44.101 -22.252   2.624  1.00  0.00     0.028 C 
HETATM   18  C   UNL     1      44.928 -21.086   2.087  1.00  0.00     0.013 C 
ENDBRANCH   8  11
ENDBRANCH   1   5
BRANCH   2  19
HETATM   19  C   UNL     1      39.834 -13.791   2.775  1.00  0.00     0.123 C 
BRANCH  19  20
HETATM   20  C   UNL     1      40.313 -12.463   2.187  1.00  0.00     0.026 C 
BRANCH  20  21
HETATM   21  C   UNL     1      41.782 -12.523   1.763  1.00  0.00     0.061 C 
BRANCH  21  22
HETATM   22  C   UNL     1      41.970 -12.608   0.284  1.00  0.00     0.044 A 
HETATM   23  N   UNL     1      41.658 -13.802  -0.348  1.00  0.00    -0.229 NA
HETATM   24  C   UNL     1      41.915 -13.722  -1.629  1.00  0.00     0.164 A 
HETATM   25  N   UNL     1      41.709 -14.735  -2.484  1.00  0.00    -0.378 N 
HETATM   26  S   UNL     1      42.528 -12.210  -2.163  1.00  0.00    -0.062 SA
HETATM   27  H   UNL     1      41.094 -15.470  -2.150  1.00  0.00     0.158 HD
HETATM   28  H   UNL     1      41.593 -14.510  -3.464  1.00  0.00     0.158 HD
HETATM   29  C   UNL     1      42.466 -11.627  -0.554  1.00  0.00     0.080 A 
ENDBRANCH  21  22
ENDBRANCH  20  21
ENDBRANCH  19  20
ENDBRANCH   2  19
TORSDOF 6
ENDMDL
MODEL 10
REMARK VINA RESULT:      -7.3      5.064      6.600
REMARK  6 active torsions:
REMARK  status: ('A' for Active; 'I' for Inactive)
REMARK    1  A    between atoms: C_2  and  C_3 
REMARK    2  A    between atoms: C_13  and  C_14 
REMARK       I    between atoms: C_14  and  N_15 
REMARK    3  A    between atoms: N_15  and  C_16 
REMARK    4  A    between atoms: C_16  and  C_17 
REMARK    5  A    between atoms: C_17  and  C_18 
REMARK    6  A    between atoms: C_18  and  C_19 
ROOT
HETATM    1  C   UNL     1      43.721 -18.829   3.456  1.00  0.00     0.251 C 
HETATM    2  N   UNL     1      43.576 -18.602   4.809  1.00  0.00    -0.357 N 
HETATM    3  O   UNL     1      44.465 -19.686   2.995  1.00  0.00    -0.268 OA
HETATM    4  H   UNL     1      43.084 -17.785   5.136  1.00  0.00     0.162 HD
ENDROOT
BRANCH   1   5
HETATM    5  C   UNL     1      42.952 -17.944   2.534  1.00  0.00     0.032 A 
HETATM    6  C   UNL     1      43.392 -17.612   1.249  1.00  0.00     0.017 A 
HETATM    7  C   UNL     1      42.612 -16.794   0.415  1.00  0.00     0.008 A 
HETATM    8  C   UNL     1      41.388 -16.272   0.855  1.00  0.00    -0.052 A 
HETATM    9  C   UNL     1      40.965 -16.602   2.155  1.00  0.00     0.008 A 
HETATM   10  C   UNL     1      41.736 -17.424   2.983  1.00  0.00     0.017 A 
BRANCH   8  11
HETATM   11  C   UNL     1      40.485 -15.385   0.007  1.00  0.00     0.044 C 
HETATM   12  C   UNL     1      39.594 -14.432   0.822  1.00  0.00     0.241 C 
HETATM   13  N   UNL     1      40.289 -13.149   1.156  1.00  0.00    -0.074 N 
HETATM   14  H   UNL     1      41.016 -13.321   1.861  1.00  0.00     0.277 HD
HETATM   15  H   UNL     1      39.613 -12.528   1.623  1.00  0.00     0.277 HD
HETATM   16  C   UNL     1      40.862 -12.433  -0.019  1.00  0.00     0.232 C 
HETATM   17  C   UNL     1      41.858 -13.334  -0.727  1.00  0.00     0.028 C 
HETATM   18  C   UNL     1      41.234 -14.668  -1.131  1.00  0.00     0.013 C 
ENDBRANCH   8  11
ENDBRANCH   1   5
BRANCH   2  19
HETATM   19  C   UNL     1      44.373 -19.321   5.788  1.00  0.00     0.123 C 
BRANCH  19  20
HETATM   20  C   UNL     1      44.944 -18.402   6.868  1.00  0.00     0.026 C 
BRANCH  20  21
HETATM   21  C   UNL     1      43.845 -17.779   7.730  1.00  0.00     0.061 C 
BRANCH  21  22
HETATM   22  C   UNL     1      43.111 -16.672   7.048  1.00  0.00     0.044 A 
HETATM   23  N   UNL     1      41.756 -16.836   6.806  1.00  0.00    -0.229 NA
HETATM   24  C   UNL     1      41.277 -15.797   6.170  1.00  0.00     0.164 A 
HETATM   25  N   UNL     1      39.990 -15.690   5.805  1.00  0.00    -0.378 N 
HETATM   26  S   UNL     1      42.409 -14.551   5.837  1.00  0.00    -0.062 SA
HETATM   27  H   UNL     1      39.348 -16.316   6.278  1.00  0.00     0.158 HD
HETATM   28  H   UNL     1      39.620 -14.761   5.645  1.00  0.00     0.158 HD
HETATM   29  C   UNL     1      43.639 -15.483   6.581  1.00  0.00     0.080 A 
ENDBRANCH  21  22
ENDBRANCH  20  21
ENDBRANCH  19  20
ENDBRANCH   2  19
TORSDOF 6
ENDMDL
