MODEL 1
REMARK VINA RESULT:      -9.8      0.000      0.000
REMARK  5 active torsions:
REMARK  status: ('A' for Active; 'I' for Inactive)
REMARK    1  A    between atoms: C_4  and  C_5 
REMARK    2  A    between atoms: C_5  and  C_6 
REMARK    3  A    between atoms: C_12  and  S_13 
REMARK    4  A    between atoms: S_13  and  C_14 
REMARK    5  A    between atoms: C_14  and  C_15 
ROOT
HETATM    1  C   UNL     1      42.100 -16.932   3.617  1.00  0.00     0.283 C 
HETATM    2  O   UNL     1      42.992 -15.832   3.511  1.00  0.00    -0.303 OA
HETATM    3  C   UNL     1      42.769 -14.934   4.525  1.00  0.00     0.201 A 
HETATM    4  C   UNL     1      41.718 -14.039   4.410  1.00  0.00     0.144 A 
HETATM    5  N   UNL     1      41.607 -13.059   5.325  1.00  0.00    -0.142 NA
HETATM    6  N   UNL     1      42.528 -13.002   6.335  1.00  0.00    -0.122 NA
HETATM    7  C   UNL     1      43.526 -13.916   6.395  1.00  0.00     0.212 A 
HETATM    8  N   UNL     1      43.702 -14.900   5.496  1.00  0.00    -0.195 NA
HETATM    9  C   UNL     1      40.730 -14.134   3.340  1.00  0.00     0.020 A 
HETATM   10  C   UNL     1      40.257 -15.401   2.924  1.00  0.00     0.023 A 
HETATM   11  N   UNL     1      40.653 -16.592   3.568  1.00  0.00    -0.259 NA
HETATM   12  C   UNL     1      40.230 -12.977   2.715  1.00  0.00     0.016 A 
HETATM   13  C   UNL     1      39.286 -13.065   1.692  1.00  0.00     0.001 A 
HETATM   14  C   UNL     1      38.814 -14.311   1.293  1.00  0.00     0.002 A 
HETATM   15  C   UNL     1      39.285 -15.468   1.915  1.00  0.00     0.024 A 
HETATM   16  H   UNL     1      40.175 -17.393   3.141  1.00  0.00     0.130 HD
ENDROOT
BRANCH   7  17
HETATM   17  S   UNL     1      44.700 -13.821   7.724  1.00  0.00    -0.084 SA
BRANCH  17  18
HETATM   18  C   UNL     1      44.643 -12.030   8.044  1.00  0.00     0.121 C 
BRANCH  18  19
HETATM   19  C   UNL     1      44.106 -11.727   9.423  1.00  0.00    -0.048 A 
HETATM   20  C   UNL     1      44.488 -12.511  10.523  1.00  0.00     0.009 A 
HETATM   21  C   UNL     1      43.999 -12.227  11.800  1.00  0.00     0.024 A 
HETATM   22  C   UNL     1      43.120 -11.163  11.984  1.00  0.00     0.034 A 
HETATM   23 CL   UNL     1      42.519 -10.812  13.559  1.00  0.00    -0.084 Cl
HETATM   24  C   UNL     1      42.722 -10.382  10.901  1.00  0.00     0.024 A 
HETATM   25  C   UNL     1      43.212 -10.664   9.624  1.00  0.00     0.009 A 
ENDBRANCH  18  19
ENDBRANCH  17  18
ENDBRANCH   7  17
BRANCH   1  26
HETATM   26  C   UNL     1      42.366 -17.955   2.478  1.00  0.00     0.203 C 
HETATM   27  O   UNL     1      41.894 -17.791   1.347  1.00  0.00    -0.288 OA
BRANCH  26  28
HETATM   28  C   UNL     1      43.180 -19.172   2.741  1.00  0.00     0.014 A 
HETATM   29  C   UNL     1      43.149 -20.198   1.784  1.00  0.00     0.015 A 
HETATM   30  C   UNL     1      43.896 -21.361   1.973  1.00  0.00     0.001 A 
HETATM   31  C   UNL     1      44.669 -21.511   3.123  1.00  0.00     0.000 A 
HETATM   32  C   UNL     1      44.691 -20.501   4.086  1.00  0.00     0.001 A 
HETATM   33  C   UNL     1      43.946 -19.333   3.901  1.00  0.00     0.015 A 
ENDBRANCH  26  28
ENDBRANCH   1  26
TORSDOF 5
ENDMDL
MODEL 2
REMARK VINA RESULT:      -9.7      3.603      8.148
REMARK  5 active torsions:
REMARK  status: ('A' for Active; 'I' for Inactive)
REMARK    1  A    between atoms: C_4  and  C_5 
REMARK    2  A    between atoms: C_5  and  C_6 
REMARK    3  A    between atoms: C_12  and  S_13 
REMARK    4  A    between atoms: S_13  and  C_14 
REMARK    5  A    between atoms: C_14  and  C_15 
ROOT
HETATM    1  C   UNL     1      43.481 -14.685   5.798  1.00  0.00     0.283 C 
HETATM    2  O   UNL     1      42.377 -15.576   5.741  1.00  0.00    -0.303 OA
HETATM    3  C   UNL     1      41.778 -15.520   4.508  1.00  0.00     0.201 A 
HETATM    4  C   UNL     1      40.901 -14.484   4.233  1.00  0.00     0.144 A 
HETATM    5  N   UNL     1      40.195 -14.527   3.088  1.00  0.00    -0.142 NA
HETATM    6  N   UNL     1      40.389 -15.584   2.243  1.00  0.00    -0.122 NA
HETATM    7  C   UNL     1      41.270 -16.560   2.567  1.00  0.00     0.212 A 
HETATM    8  N   UNL     1      41.983 -16.583   3.706  1.00  0.00    -0.195 NA
HETATM    9  C   UNL     1      40.730 -13.351   5.137  1.00  0.00     0.020 A 
HETATM   10  C   UNL     1      41.853 -12.796   5.796  1.00  0.00     0.023 A 
HETATM   11  N   UNL     1      43.164 -13.253   5.548  1.00  0.00    -0.259 NA
HETATM   12  C   UNL     1      39.458 -12.792   5.362  1.00  0.00     0.016 A 
HETATM   13  C   UNL     1      39.293 -11.710   6.225  1.00  0.00     0.001 A 
HETATM   14  C   UNL     1      40.398 -11.158   6.862  1.00  0.00     0.002 A 
HETATM   15  C   UNL     1      41.670 -11.688   6.638  1.00  0.00     0.024 A 
HETATM   16  H   UNL     1      43.834 -12.702   6.095  1.00  0.00     0.130 HD
ENDROOT
BRANCH   7  17
HETATM   17  S   UNL     1      41.505 -17.913   1.442  1.00  0.00    -0.084 SA
BRANCH  17  18
HETATM   18  C   UNL     1      43.320 -18.028   1.488  1.00  0.00     0.121 C 
BRANCH  18  19
HETATM   19  C   UNL     1      43.785 -19.185   2.341  1.00  0.00    -0.048 A 
HETATM   20  C   UNL     1      44.241 -18.963   3.650  1.00  0.00     0.009 A 
HETATM   21  C   UNL     1      44.664 -20.033   4.443  1.00  0.00     0.024 A 
HETATM   22  C   UNL     1      44.641 -21.327   3.931  1.00  0.00     0.034 A 
HETATM   23 CL   UNL     1      45.159 -22.644   4.910  1.00  0.00    -0.084 Cl
HETATM   24  C   UNL     1      44.201 -21.562   2.630  1.00  0.00     0.024 A 
HETATM   25  C   UNL     1      43.777 -20.494   1.836  1.00  0.00     0.009 A 
ENDBRANCH  18  19
ENDBRANCH  17  18
ENDBRANCH   7  17
BRANCH   1  26
HETATM   26  C   UNL     1      44.167 -14.763   7.189  1.00  0.00     0.203 C 
HETATM   27  O   UNL     1      44.032 -15.754   7.916  1.00  0.00    -0.288 OA
BRANCH  26  28
HETATM   28  C   UNL     1      44.985 -13.622   7.686  1.00  0.00     0.014 A 
HETATM   29  C   UNL     1      44.485 -12.883   8.769  1.00  0.00     0.015 A 
HETATM   30  C   UNL     1      45.210 -11.807   9.282  1.00  0.00     0.001 A 
HETATM   31  C   UNL     1      46.431 -11.457   8.709  1.00  0.00     0.000 A 
HETATM   32  C   UNL     1      46.925 -12.178   7.621  1.00  0.00     0.001 A 
HETATM   33  C   UNL     1      46.204 -13.258   7.105  1.00  0.00     0.015 A 
ENDBRANCH  26  28
ENDBRANCH   1  26
TORSDOF 5
ENDMDL
MODEL 3
REMARK VINA RESULT:      -9.6      5.104      8.735
REMARK  5 active torsions:
REMARK  status: ('A' for Active; 'I' for Inactive)
REMARK    1  A    between atoms: C_4  and  C_5 
REMARK    2  A    between atoms: C_5  and  C_6 
REMARK    3  A    between atoms: C_12  and  S_13 
REMARK    4  A    between atoms: S_13  and  C_14 
REMARK    5  A    between atoms: C_14  and  C_15 
ROOT
HETATM    1  C   UNL     1      42.600 -16.063   2.283  1.00  0.00     0.283 C 
HETATM    2  O   UNL     1      41.489 -15.383   1.715  1.00  0.00    -0.303 OA
HETATM    3  C   UNL     1      41.904 -14.255   1.054  1.00  0.00     0.201 A 
HETATM    4  C   UNL     1      42.177 -13.110   1.784  1.00  0.00     0.144 A 
HETATM    5  N   UNL     1      42.422 -11.967   1.118  1.00  0.00    -0.142 NA
HETATM    6  N   UNL     1      42.406 -11.993  -0.249  1.00  0.00    -0.122 NA
HETATM    7  C   UNL     1      42.142 -13.150  -0.903  1.00  0.00     0.212 A 
HETATM    8  N   UNL     1      41.865 -14.314  -0.292  1.00  0.00    -0.195 NA
HETATM    9  C   UNL     1      42.216 -13.111   3.243  1.00  0.00     0.020 A 
HETATM   10  C   UNL     1      42.789 -14.204   3.935  1.00  0.00     0.023 A 
HETATM   11  N   UNL     1      43.404 -15.276   3.255  1.00  0.00    -0.259 NA
HETATM   12  C   UNL     1      41.696 -12.030   3.979  1.00  0.00     0.016 A 
HETATM   13  C   UNL     1      41.732 -12.029   5.373  1.00  0.00     0.001 A 
HETATM   14  C   UNL     1      42.306 -13.098   6.051  1.00  0.00     0.002 A 
HETATM   15  C   UNL     1      42.843 -14.170   5.337  1.00  0.00     0.024 A 
HETATM   16  H   UNL     1      43.785 -15.945   3.934  1.00  0.00     0.130 HD
ENDROOT
BRANCH   7  17
HETATM   17  S   UNL     1      42.139 -13.151  -2.679  1.00  0.00    -0.084 SA
BRANCH  17  18
HETATM   18  C   UNL     1      41.395 -14.785  -2.975  1.00  0.00     0.121 C 
BRANCH  18  19
HETATM   19  C   UNL     1      39.943 -14.674  -3.374  1.00  0.00    -0.048 A 
HETATM   20  C   UNL     1      39.235 -13.481  -3.153  1.00  0.00     0.009 A 
HETATM   21  C   UNL     1      37.894 -13.374  -3.528  1.00  0.00     0.024 A 
HETATM   22  C   UNL     1      37.251 -14.458  -4.119  1.00  0.00     0.034 A 
HETATM   23 CL   UNL     1      35.599 -14.324  -4.584  1.00  0.00    -0.084 Cl
HETATM   24  C   UNL     1      37.936 -15.652  -4.335  1.00  0.00     0.024 A 
HETATM   25  C   UNL     1      39.278 -15.761  -3.961  1.00  0.00     0.009 A 
ENDBRANCH  18  19
ENDBRANCH  17  18
ENDBRANCH   7  17
BRANCH   1  26
HETATM   26  C   UNL     1      42.129 -17.348   3.016  1.00  0.00     0.203 C 
HETATM   27  O   UNL     1      41.051 -17.382   3.622  1.00  0.00    -0.288 OA
BRANCH  26  28
HETATM   28  C   UNL     1      42.988 -18.563   3.024  1.00  0.00     0.014 A 
HETATM   29  C   UNL     1      42.913 -19.423   1.918  1.00  0.00     0.015 A 
HETATM   30  C   UNL     1      43.699 -20.575   1.866  1.00  0.00     0.001 A 
HETATM   31  C   UNL     1      44.555 -20.879   2.923  1.00  0.00     0.000 A 
HETATM   32  C   UNL     1      44.622 -20.036   4.032  1.00  0.00     0.001 A 
HETATM   33  C   UNL     1      43.838 -18.881   4.088  1.00  0.00     0.015 A 
ENDBRANCH  26  28
ENDBRANCH   1  26
TORSDOF 5
ENDMDL
MODEL 4
REMARK VINA RESULT:      -9.6      3.400      4.114
REMARK  5 active torsions:
REMARK  status: ('A' for Active; 'I' for Inactive)
REMARK    1  A    between atoms: C_4  and  C_5 
REMARK    2  A    between atoms: C_5  and  C_6 
REMARK    3  A    between atoms: C_12  and  S_13 
REMARK    4  A    between atoms: S_13  and  C_14 
REMARK    5  A    between atoms: C_14  and  C_15 
ROOT
HETATM    1  C   UNL     1      42.831 -17.097   2.291  1.00  0.00     0.283 C 
HETATM    2  O   UNL     1      43.705 -15.993   2.478  1.00  0.00    -0.303 OA
HETATM    3  C   UNL     1      43.066 -14.984   3.154  1.00  0.00     0.201 A 
HETATM    4  C   UNL     1      42.218 -14.141   2.458  1.00  0.00     0.144 A 
HETATM    5  N   UNL     1      41.726 -13.059   3.089  1.00  0.00    -0.142 NA
HETATM    6  N   UNL     1      42.075 -12.853   4.395  1.00  0.00    -0.122 NA
HETATM    7  C   UNL     1      42.902 -13.724   5.023  1.00  0.00     0.212 A 
HETATM    8  N   UNL     1      43.443 -14.805   4.436  1.00  0.00    -0.195 NA
HETATM    9  C   UNL     1      41.836 -14.394   1.072  1.00  0.00     0.020 A 
HETATM   10  C   UNL     1      41.570 -15.716   0.641  1.00  0.00     0.023 A 
HETATM   11  N   UNL     1      41.584 -16.807   1.535  1.00  0.00    -0.259 NA
HETATM   12  C   UNL     1      41.720 -13.337   0.149  1.00  0.00     0.016 A 
HETATM   13  C   UNL     1      41.357 -13.577  -1.175  1.00  0.00     0.001 A 
HETATM   14  C   UNL     1      41.084 -14.875  -1.593  1.00  0.00     0.002 A 
HETATM   15  C   UNL     1      41.176 -15.934  -0.688  1.00  0.00     0.024 A 
HETATM   16  H   UNL     1      41.333 -17.668   1.036  1.00  0.00     0.130 HD
ENDROOT
BRANCH   7  17
HETATM   17  S   UNL     1      43.327 -13.432   6.722  1.00  0.00    -0.084 SA
BRANCH  17  18
HETATM   18  C   UNL     1      44.839 -14.439   6.828  1.00  0.00     0.121 C 
BRANCH  18  19
HETATM   19  C   UNL     1      44.523 -15.903   7.023  1.00  0.00    -0.048 A 
HETATM   20  C   UNL     1      43.384 -16.294   7.745  1.00  0.00     0.009 A 
HETATM   21  C   UNL     1      43.086 -17.647   7.919  1.00  0.00     0.024 A 
HETATM   22  C   UNL     1      43.927 -18.617   7.380  1.00  0.00     0.034 A 
HETATM   23 CL   UNL     1      43.558 -20.285   7.593  1.00  0.00    -0.084 Cl
HETATM   24  C   UNL     1      45.067 -18.245   6.670  1.00  0.00     0.024 A 
HETATM   25  C   UNL     1      45.366 -16.893   6.494  1.00  0.00     0.009 A 
ENDBRANCH  18  19
ENDBRANCH  17  18
ENDBRANCH   7  17
BRANCH   1  26
HETATM   26  C   UNL     1      43.563 -18.243   1.540  1.00  0.00     0.203 C 
HETATM   27  O   UNL     1      43.854 -18.141   0.343  1.00  0.00    -0.288 OA
BRANCH  26  28
HETATM   28  C   UNL     1      43.905 -19.505   2.251  1.00  0.00     0.014 A 
HETATM   29  C   UNL     1      43.652 -20.717   1.590  1.00  0.00     0.015 A 
HETATM   30  C   UNL     1      43.957 -21.932   2.204  1.00  0.00     0.001 A 
HETATM   31  C   UNL     1      44.506 -21.943   3.485  1.00  0.00     0.000 A 
HETATM   32  C   UNL     1      44.745 -20.742   4.154  1.00  0.00     0.001 A 
HETATM   33  C   UNL     1      44.443 -19.522   3.542  1.00  0.00     0.015 A 
ENDBRANCH  26  28
ENDBRANCH   1  26
TORSDOF 5
ENDMDL
MODEL 5
REMARK VINA RESULT:      -9.6      4.742      7.328
REMARK  5 active torsions:
REMARK  status: ('A' for Active; 'I' for Inactive)
REMARK    1  A    between atoms: C_4  and  C_5 
REMARK    2  A    between atoms: C_5  and  C_6 
REMARK    3  A    between atoms: C_12  and  S_13 
REMARK    4  A    between atoms: S_13  and  C_14 
REMARK    5  A    between atoms: C_14  and  C_15 
ROOT
HETATM    1  C   UNL     1      41.170 -14.058   1.688  1.00  0.00     0.283 C 
HETATM    2  O   UNL     1      41.923 -13.783   2.861  1.00  0.00    -0.303 OA
HETATM    3  C   UNL     1      41.381 -14.431   3.943  1.00  0.00     0.201 A 
HETATM    4  C   UNL     1      40.277 -13.881   4.572  1.00  0.00     0.144 A 
HETATM    5  N   UNL     1      39.855 -14.432   5.725  1.00  0.00    -0.142 NA
HETATM    6  N   UNL     1      40.526 -15.519   6.212  1.00  0.00    -0.122 NA
HETATM    7  C   UNL     1      41.592 -16.016   5.540  1.00  0.00     0.212 A 
HETATM    8  N   UNL     1      42.074 -15.492   4.400  1.00  0.00    -0.195 NA
HETATM    9  C   UNL     1      39.559 -12.737   4.021  1.00  0.00     0.020 A 
HETATM   10  C   UNL     1      39.344 -12.641   2.626  1.00  0.00     0.023 A 
HETATM   11  N   UNL     1      39.737 -13.666   1.740  1.00  0.00    -0.259 NA
HETATM   12  C   UNL     1      39.066 -11.721   4.861  1.00  0.00     0.016 A 
HETATM   13  C   UNL     1      38.380 -10.626   4.336  1.00  0.00     0.001 A 
HETATM   14  C   UNL     1      38.159 -10.540   2.966  1.00  0.00     0.002 A 
HETATM   15  C   UNL     1      38.625 -11.547   2.120  1.00  0.00     0.024 A 
HETATM   16  H   UNL     1      39.462 -13.422   0.782  1.00  0.00     0.130 HD
ENDROOT
BRANCH   7  17
HETATM   17  S   UNL     1      42.435 -17.435   6.194  1.00  0.00    -0.084 SA
BRANCH  17  18
HETATM   18  C   UNL     1      43.939 -17.387   5.172  1.00  0.00     0.121 C 
BRANCH  18  19
HETATM   19  C   UNL     1      44.004 -18.556   4.218  1.00  0.00    -0.048 A 
HETATM   20  C   UNL     1      44.655 -19.743   4.592  1.00  0.00     0.009 A 
HETATM   21  C   UNL     1      44.709 -20.827   3.713  1.00  0.00     0.024 A 
HETATM   22  C   UNL     1      44.120 -20.731   2.456  1.00  0.00     0.034 A 
HETATM   23 CL   UNL     1      44.185 -22.069   1.375  1.00  0.00    -0.084 Cl
HETATM   24  C   UNL     1      43.479 -19.556   2.066  1.00  0.00     0.024 A 
HETATM   25  C   UNL     1      43.423 -18.471   2.943  1.00  0.00     0.009 A 
ENDBRANCH  18  19
ENDBRANCH  17  18
ENDBRANCH   7  17
BRANCH   1  26
HETATM   26  C   UNL     1      41.796 -13.336   0.464  1.00  0.00     0.203 C 
HETATM   27  O   UNL     1      42.464 -12.304   0.601  1.00  0.00    -0.288 OA
BRANCH  26  28
HETATM   28  C   UNL     1      41.577 -13.865  -0.910  1.00  0.00     0.014 A 
HETATM   29  C   UNL     1      41.869 -13.019  -1.990  1.00  0.00     0.015 A 
HETATM   30  C   UNL     1      41.690 -13.463  -3.301  1.00  0.00     0.001 A 
HETATM   31  C   UNL     1      41.208 -14.748  -3.539  1.00  0.00     0.000 A 
HETATM   32  C   UNL     1      40.901 -15.589  -2.468  1.00  0.00     0.001 A 
HETATM   33  C   UNL     1      41.080 -15.150  -1.153  1.00  0.00     0.015 A 
ENDBRANCH  26  28
ENDBRANCH   1  26
TORSDOF 5
ENDMDL
MODEL 6
REMARK VINA RESULT:      -9.5      4.813      8.289
REMARK  5 active torsions:
REMARK  status: ('A' for Active; 'I' for Inactive)
REMARK    1  A    between atoms: C_4  and  C_5 
REMARK    2  A    between atoms: C_5  and  C_6 
REMARK    3  A    between atoms: C_12  and  S_13 
REMARK    4  A    between atoms: S_13  and  C_14 
REMARK    5  A    between atoms: C_14  and  C_15 
ROOT
HETATM    1  C   UNL     1      40.451 -15.379   3.451  1.00  0.00     0.283 C 
HETATM    2  O   UNL     1      41.325 -14.615   2.634  1.00  0.00    -0.303 OA
HETATM    3  C   UNL     1      41.140 -14.925   1.310  1.00  0.00     0.201 A 
HETATM    4  C   UNL     1      41.731 -16.068   0.799  1.00  0.00     0.144 A 
HETATM    5  N   UNL     1      41.682 -16.277  -0.529  1.00  0.00    -0.142 NA
HETATM    6  N   UNL     1      41.037 -15.359  -1.310  1.00  0.00    -0.122 NA
HETATM    7  C   UNL     1      40.470 -14.266  -0.745  1.00  0.00     0.212 A 
HETATM    8  N   UNL     1      40.509 -13.992   0.569  1.00  0.00    -0.195 NA
HETATM    9  C   UNL     1      42.391 -17.050   1.654  1.00  0.00     0.020 A 
HETATM   10  C   UNL     1      41.831 -17.385   2.909  1.00  0.00     0.023 A 
HETATM   11  N   UNL     1      40.596 -16.855   3.340  1.00  0.00    -0.259 NA
HETATM   12  C   UNL     1      43.581 -17.680   1.245  1.00  0.00     0.016 A 
HETATM   13  C   UNL     1      44.213 -18.618   2.060  1.00  0.00     0.001 A 
HETATM   14  C   UNL     1      43.655 -18.955   3.288  1.00  0.00     0.002 A 
HETATM   15  C   UNL     1      42.465 -18.354   3.702  1.00  0.00     0.024 A 
HETATM   16  H   UNL     1      40.350 -17.247   4.256  1.00  0.00     0.130 HD
ENDROOT
BRANCH   7  17
HETATM   17  S   UNL     1      39.632 -13.098  -1.787  1.00  0.00    -0.084 SA
BRANCH  17  18
HETATM   18  C   UNL     1      40.960 -12.756  -2.982  1.00  0.00     0.121 C 
BRANCH  18  19
HETATM   19  C   UNL     1      41.809 -11.583  -2.554  1.00  0.00    -0.048 A 
HETATM   20  C   UNL     1      41.605 -10.314  -3.120  1.00  0.00     0.009 A 
HETATM   21  C   UNL     1      42.385  -9.227  -2.720  1.00  0.00     0.024 A 
HETATM   22  C   UNL     1      43.374  -9.401  -1.757  1.00  0.00     0.034 A 
HETATM   23 CL   UNL     1      44.332  -8.059  -1.261  1.00  0.00    -0.084 Cl
HETATM   24  C   UNL     1      43.596 -10.655  -1.192  1.00  0.00     0.024 A 
HETATM   25  C   UNL     1      42.817 -11.744  -1.591  1.00  0.00     0.009 A 
ENDBRANCH  18  19
ENDBRANCH  17  18
ENDBRANCH   7  17
BRANCH   1  26
HETATM   26  C   UNL     1      40.652 -15.013   4.947  1.00  0.00     0.203 C 
HETATM   27  O   UNL     1      39.907 -14.205   5.514  1.00  0.00    -0.288 OA
BRANCH  26  28
HETATM   28  C   UNL     1      41.770 -15.616   5.721  1.00  0.00     0.014 A 
HETATM   29  C   UNL     1      41.463 -16.653   6.614  1.00  0.00     0.015 A 
HETATM   30  C   UNL     1      42.471 -17.261   7.364  1.00  0.00     0.001 A 
HETATM   31  C   UNL     1      43.789 -16.828   7.233  1.00  0.00     0.000 A 
HETATM   32  C   UNL     1      44.099 -15.786   6.358  1.00  0.00     0.001 A 
HETATM   33  C   UNL     1      43.093 -15.175   5.604  1.00  0.00     0.015 A 
ENDBRANCH  26  28
ENDBRANCH   1  26
TORSDOF 5
ENDMDL
MODEL 7
REMARK VINA RESULT:      -9.4      5.457      9.800
REMARK  5 active torsions:
REMARK  status: ('A' for Active; 'I' for Inactive)
REMARK    1  A    between atoms: C_4  and  C_5 
REMARK    2  A    between atoms: C_5  and  C_6 
REMARK    3  A    between atoms: C_12  and  S_13 
REMARK    4  A    between atoms: S_13  and  C_14 
REMARK    5  A    between atoms: C_14  and  C_15 
ROOT
HETATM    1  C   UNL     1      40.428 -15.405   3.528  1.00  0.00     0.283 C 
HETATM    2  O   UNL     1      41.265 -14.605   2.705  1.00  0.00    -0.303 OA
HETATM    3  C   UNL     1      41.057 -14.897   1.380  1.00  0.00     0.201 A 
HETATM    4  C   UNL     1      41.663 -16.016   0.836  1.00  0.00     0.144 A 
HETATM    5  N   UNL     1      41.589 -16.203  -0.495  1.00  0.00    -0.142 NA
HETATM    6  N   UNL     1      40.904 -15.287  -1.244  1.00  0.00    -0.122 NA
HETATM    7  C   UNL     1      40.325 -14.218  -0.647  1.00  0.00     0.212 A 
HETATM    8  N   UNL     1      40.388 -13.966   0.671  1.00  0.00    -0.195 NA
HETATM    9  C   UNL     1      42.365 -16.997   1.658  1.00  0.00     0.020 A 
HETATM   10  C   UNL     1      41.843 -17.367   2.919  1.00  0.00     0.023 A 
HETATM   11  N   UNL     1      40.606 -16.875   3.387  1.00  0.00    -0.259 NA
HETATM   12  C   UNL     1      43.560 -17.591   1.211  1.00  0.00     0.016 A 
HETATM   13  C   UNL     1      44.233 -18.527   1.994  1.00  0.00     0.001 A 
HETATM   14  C   UNL     1      43.711 -18.899   3.229  1.00  0.00     0.002 A 
HETATM   15  C   UNL     1      42.518 -18.334   3.680  1.00  0.00     0.024 A 
HETATM   16  H   UNL     1      40.390 -17.288   4.301  1.00  0.00     0.130 HD
ENDROOT
BRANCH   7  17
HETATM   17  S   UNL     1      39.436 -13.052  -1.648  1.00  0.00    -0.084 SA
BRANCH  17  18
HETATM   18  C   UNL     1      38.861 -14.167  -2.966  1.00  0.00     0.121 C 
BRANCH  18  19
HETATM   19  C   UNL     1      37.558 -13.697  -3.567  1.00  0.00    -0.048 A 
HETATM   20  C   UNL     1      37.138 -12.367  -3.401  1.00  0.00     0.009 A 
HETATM   21  C   UNL     1      35.937 -11.928  -3.963  1.00  0.00     0.024 A 
HETATM   22  C   UNL     1      35.145 -12.816  -4.686  1.00  0.00     0.034 A 
HETATM   23 CL   UNL     1      33.667 -12.273  -5.380  1.00  0.00    -0.084 Cl
HETATM   24  C   UNL     1      35.542 -14.141  -4.851  1.00  0.00     0.024 A 
HETATM   25  C   UNL     1      36.743 -14.582  -4.291  1.00  0.00     0.009 A 
ENDBRANCH  18  19
ENDBRANCH  17  18
ENDBRANCH   7  17
BRANCH   1  26
HETATM   26  C   UNL     1      40.655 -15.060   5.025  1.00  0.00     0.203 C 
HETATM   27  O   UNL     1      39.906 -14.279   5.624  1.00  0.00    -0.288 OA
BRANCH  26  28
HETATM   28  C   UNL     1      41.804 -15.651   5.764  1.00  0.00     0.014 A 
HETATM   29  C   UNL     1      41.538 -16.710   6.646  1.00  0.00     0.015 A 
HETATM   30  C   UNL     1      42.576 -17.308   7.362  1.00  0.00     0.001 A 
HETATM   31  C   UNL     1      43.882 -16.845   7.209  1.00  0.00     0.000 A 
HETATM   32  C   UNL     1      44.149 -15.782   6.345  1.00  0.00     0.001 A 
HETATM   33  C   UNL     1      43.114 -15.181   5.624  1.00  0.00     0.015 A 
ENDBRANCH  26  28
ENDBRANCH   1  26
TORSDOF 5
ENDMDL
MODEL 8
REMARK VINA RESULT:      -9.3      2.260      3.188
REMARK  5 active torsions:
REMARK  status: ('A' for Active; 'I' for Inactive)
REMARK    1  A    between atoms: C_4  and  C_5 
REMARK    2  A    between atoms: C_5  and  C_6 
REMARK    3  A    between atoms: C_12  and  S_13 
REMARK    4  A    between atoms: S_13  and  C_14 
REMARK    5  A    between atoms: C_14  and  C_15 
ROOT
HETATM    1  C   UNL     1      42.008 -13.905   4.546  1.00  0.00     0.283 C 
HETATM    2  O   UNL     1      42.017 -12.500   4.338  1.00  0.00    -0.303 OA
HETATM    3  C   UNL     1      41.005 -11.903   5.047  1.00  0.00     0.201 A 
HETATM    4  C   UNL     1      39.719 -11.928   4.535  1.00  0.00     0.144 A 
HETATM    5  N   UNL     1      38.768 -11.202   5.151  1.00  0.00    -0.142 NA
HETATM    6  N   UNL     1      39.113 -10.487   6.264  1.00  0.00    -0.122 NA
HETATM    7  C   UNL     1      40.389 -10.514   6.720  1.00  0.00     0.212 A 
HETATM    8  N   UNL     1      41.384 -11.198   6.132  1.00  0.00    -0.195 NA
HETATM    9  C   UNL     1      39.366 -12.721   3.361  1.00  0.00     0.020 A 
HETATM   10  C   UNL     1      39.919 -14.012   3.186  1.00  0.00     0.023 A 
HETATM   11  N   UNL     1      40.753 -14.603   4.159  1.00  0.00    -0.259 NA
HETATM   12  C   UNL     1      38.472 -12.223   2.396  1.00  0.00     0.016 A 
HETATM   13  C   UNL     1      38.133 -12.978   1.274  1.00  0.00     0.001 A 
HETATM   14  C   UNL     1      38.669 -14.251   1.110  1.00  0.00     0.002 A 
HETATM   15  C   UNL     1      39.543 -14.769   2.067  1.00  0.00     0.024 A 
HETATM   16  H   UNL     1      41.019 -15.548   3.861  1.00  0.00     0.130 HD
ENDROOT
BRANCH   7  17
HETATM   17  S   UNL     1      40.801  -9.581   8.173  1.00  0.00    -0.084 SA
BRANCH  17  18
HETATM   18  C   UNL     1      42.115 -10.645   8.847  1.00  0.00     0.121 C 
BRANCH  18  19
HETATM   19  C   UNL     1      42.193 -10.549  10.353  1.00  0.00    -0.048 A 
HETATM   20  C   UNL     1      43.335 -10.017  10.972  1.00  0.00     0.009 A 
HETATM   21  C   UNL     1      43.406  -9.921  12.364  1.00  0.00     0.024 A 
HETATM   22  C   UNL     1      42.341 -10.362  13.144  1.00  0.00     0.034 A 
HETATM   23 CL   UNL     1      42.428 -10.240  14.859  1.00  0.00    -0.084 Cl
HETATM   24  C   UNL     1      41.204 -10.902  12.545  1.00  0.00     0.024 A 
HETATM   25  C   UNL     1      41.131 -10.998  11.154  1.00  0.00     0.009 A 
ENDBRANCH  18  19
ENDBRANCH  17  18
ENDBRANCH   7  17
BRANCH   1  26
HETATM   26  C   UNL     1      43.164 -14.575   3.754  1.00  0.00     0.203 C 
HETATM   27  O   UNL     1      44.062 -13.901   3.237  1.00  0.00    -0.288 OA
BRANCH  26  28
HETATM   28  C   UNL     1      43.194 -16.053   3.582  1.00  0.00     0.014 A 
HETATM   29  C   UNL     1      43.427 -16.839   4.721  1.00  0.00     0.015 A 
HETATM   30  C   UNL     1      43.461 -18.231   4.622  1.00  0.00     0.001 A 
HETATM   31  C   UNL     1      43.274 -18.843   3.384  1.00  0.00     0.000 A 
HETATM   32  C   UNL     1      43.059 -18.066   2.245  1.00  0.00     0.001 A 
HETATM   33  C   UNL     1      43.022 -16.672   2.339  1.00  0.00     0.015 A 
ENDBRANCH  26  28
ENDBRANCH   1  26
TORSDOF 5
ENDMDL
MODEL 9
REMARK VINA RESULT:      -9.2      5.471      9.233
REMARK  5 active torsions:
REMARK  status: ('A' for Active; 'I' for Inactive)
REMARK    1  A    between atoms: C_4  and  C_5 
REMARK    2  A    between atoms: C_5  and  C_6 
REMARK    3  A    between atoms: C_12  and  S_13 
REMARK    4  A    between atoms: S_13  and  C_14 
REMARK    5  A    between atoms: C_14  and  C_15 
ROOT
HETATM    1  C   UNL     1      40.601 -15.278   3.880  1.00  0.00     0.283 C 
HETATM    2  O   UNL     1      41.465 -14.475   3.089  1.00  0.00    -0.303 OA
HETATM    3  C   UNL     1      41.193 -14.647   1.754  1.00  0.00     0.201 A 
HETATM    4  C   UNL     1      41.699 -15.758   1.103  1.00  0.00     0.144 A 
HETATM    5  N   UNL     1      41.568 -15.834  -0.234  1.00  0.00    -0.142 NA
HETATM    6  N   UNL     1      40.926 -14.817  -0.885  1.00  0.00    -0.122 NA
HETATM    7  C   UNL     1      40.444 -13.762  -0.185  1.00  0.00     0.212 A 
HETATM    8  N   UNL     1      40.568 -13.620   1.145  1.00  0.00    -0.195 NA
HETATM    9  C   UNL     1      42.357 -16.846   1.820  1.00  0.00     0.020 A 
HETATM   10  C   UNL     1      41.851 -17.279   3.069  1.00  0.00     0.023 A 
HETATM   11  N   UNL     1      40.668 -16.741   3.620  1.00  0.00    -0.259 NA
HETATM   12  C   UNL     1      43.491 -17.484   1.283  1.00  0.00     0.016 A 
HETATM   13  C   UNL     1      44.121 -18.523   1.967  1.00  0.00     0.001 A 
HETATM   14  C   UNL     1      43.615 -18.954   3.188  1.00  0.00     0.002 A 
HETATM   15  C   UNL     1      42.480 -18.346   3.727  1.00  0.00     0.024 A 
HETATM   16  H   UNL     1      40.455 -17.209   4.507  1.00  0.00     0.130 HD
ENDROOT
BRANCH   7  17
HETATM   17  S   UNL     1      39.607 -12.463  -1.059  1.00  0.00    -0.084 SA
BRANCH  17  18
HETATM   18  C   UNL     1      39.773 -13.091  -2.759  1.00  0.00     0.121 C 
BRANCH  18  19
HETATM   19  C   UNL     1      40.445 -12.085  -3.663  1.00  0.00    -0.048 A 
HETATM   20  C   UNL     1      41.840 -12.091  -3.820  1.00  0.00     0.009 A 
HETATM   21  C   UNL     1      42.462 -11.166  -4.661  1.00  0.00     0.024 A 
HETATM   22  C   UNL     1      41.695 -10.226  -5.345  1.00  0.00     0.034 A 
HETATM   23 CL   UNL     1      42.463  -9.089  -6.384  1.00  0.00    -0.084 Cl
HETATM   24  C   UNL     1      40.311 -10.200  -5.192  1.00  0.00     0.024 A 
HETATM   25  C   UNL     1      39.687 -11.125  -4.352  1.00  0.00     0.009 A 
ENDBRANCH  18  19
ENDBRANCH  17  18
ENDBRANCH   7  17
BRANCH   1  26
HETATM   26  C   UNL     1      40.901 -15.069   5.389  1.00  0.00     0.203 C 
HETATM   27  O   UNL     1      40.261 -14.253   6.062  1.00  0.00    -0.288 OA
BRANCH  26  28
HETATM   28  C   UNL     1      41.991 -15.837   6.049  1.00  0.00     0.014 A 
HETATM   29  C   UNL     1      43.313 -15.438   5.803  1.00  0.00     0.015 A 
HETATM   30  C   UNL     1      44.377 -16.116   6.399  1.00  0.00     0.001 A 
HETATM   31  C   UNL     1      44.126 -17.204   7.233  1.00  0.00     0.000 A 
HETATM   32  C   UNL     1      42.814 -17.616   7.469  1.00  0.00     0.001 A 
HETATM   33  C   UNL     1      41.745 -16.939   6.876  1.00  0.00     0.015 A 
ENDBRANCH  26  28
ENDBRANCH   1  26
TORSDOF 5
ENDMDL
MODEL 10
REMARK VINA RESULT:      -9.2      4.205      7.375
REMARK  5 active torsions:
REMARK  status: ('A' for Active; 'I' for Inactive)
REMARK    1  A    between atoms: C_4  and  C_5 
REMARK    2  A    between atoms: C_5  and  C_6 
REMARK    3  A    between atoms: C_12  and  S_13 
REMARK    4  A    between atoms: S_13  and  C_14 
REMARK    5  A    between atoms: C_14  and  C_15 
ROOT
HETATM    1  C   UNL     1      42.724 -16.546   2.555  1.00  0.00     0.283 C 
HETATM    2  O   UNL     1      41.512 -15.892   2.208  1.00  0.00    -0.303 OA
HETATM    3  C   UNL     1      41.769 -14.764   1.469  1.00  0.00     0.201 A 
HETATM    4  C   UNL     1      42.158 -13.607   2.122  1.00  0.00     0.144 A 
HETATM    5  N   UNL     1      42.248 -12.468   1.412  1.00  0.00    -0.142 NA
HETATM    6  N   UNL     1      41.968 -12.511   0.074  1.00  0.00    -0.122 NA
HETATM    7  C   UNL     1      41.603 -13.679  -0.506  1.00  0.00     0.212 A 
HETATM    8  N   UNL     1      41.471 -14.840   0.157  1.00  0.00    -0.195 NA
HETATM    9  C   UNL     1      42.479 -13.589   3.546  1.00  0.00     0.020 A 
HETATM   10  C   UNL     1      43.196 -14.664   4.123  1.00  0.00     0.023 A 
HETATM   11  N   UNL     1      43.687 -15.735   3.346  1.00  0.00    -0.259 NA
HETATM   12  C   UNL     1      42.093 -12.509   4.360  1.00  0.00     0.016 A 
HETATM   13  C   UNL     1      42.398 -12.490   5.720  1.00  0.00     0.001 A 
HETATM   14  C   UNL     1      43.113 -13.542   6.283  1.00  0.00     0.002 A 
HETATM   15  C   UNL     1      43.520 -14.613   5.487  1.00  0.00     0.024 A 
HETATM   16  H   UNL     1      44.205 -16.389   3.943  1.00  0.00     0.130 HD
ENDROOT
BRANCH   7  17
HETATM   17  S   UNL     1      41.255 -13.702  -2.247  1.00  0.00    -0.084 SA
BRANCH  17  18
HETATM   18  C   UNL     1      39.561 -14.365  -2.205  1.00  0.00     0.121 C 
BRANCH  18  19
HETATM   19  C   UNL     1      38.640 -13.491  -1.388  1.00  0.00    -0.048 A 
HETATM   20  C   UNL     1      38.031 -13.991  -0.225  1.00  0.00     0.009 A 
HETATM   21  C   UNL     1      37.184 -13.181   0.535  1.00  0.00     0.024 A 
HETATM   22  C   UNL     1      36.936 -11.871   0.136  1.00  0.00     0.034 A 
HETATM   23 CL   UNL     1      35.895 -10.873   1.076  1.00  0.00    -0.084 Cl
HETATM   24  C   UNL     1      37.524 -11.363  -1.020  1.00  0.00     0.024 A 
HETATM   25  C   UNL     1      38.371 -12.170  -1.782  1.00  0.00     0.009 A 
ENDBRANCH  18  19
ENDBRANCH  17  18
ENDBRANCH   7  17
BRANCH   1  26
HETATM   26  C   UNL     1      42.427 -17.830   3.378  1.00  0.00     0.203 C 
HETATM   27  O   UNL     1      41.539 -17.850   4.237  1.00  0.00    -0.288 OA
BRANCH  26  28
HETATM   28  C   UNL     1      43.234 -19.062   3.159  1.00  0.00     0.014 A 
HETATM   29  C   UNL     1      42.972 -19.818   2.006  1.00  0.00     0.015 A 
HETATM   30  C   UNL     1      43.700 -20.979   1.745  1.00  0.00     0.001 A 
HETATM   31  C   UNL     1      44.685 -21.397   2.639  1.00  0.00     0.000 A 
HETATM   32  C   UNL     1      44.939 -20.657   3.794  1.00  0.00     0.001 A 
HETATM   33  C   UNL     1      44.213 -19.493   4.060  1.00  0.00     0.015 A 
ENDBRANCH  26  28
ENDBRANCH   1  26
TORSDOF 5
ENDMDL
