MODEL 1
REMARK VINA RESULT:      -9.7      0.000      0.000
REMARK  8 active torsions:
REMARK  status: ('A' for Active; 'I' for Inactive)
REMARK    1  A    between atoms: C_2  and  O_3 
REMARK    2  A    between atoms: O_3  and  C_4 
REMARK    3  A    between atoms: C_7  and  N_8 
REMARK       I    between atoms: N_8  and  C_9 
REMARK    4  A    between atoms: C_9  and  C_10 
REMARK    5  A    between atoms: C_12  and  N_13 
REMARK    6  A    between atoms: N_16  and  C_18 
REMARK    7  A    between atoms: C_18  and  C_19 
REMARK    8  A    between atoms: C_18  and  C_25 
ROOT
HETATM    1  C   UNL     1      40.103 -12.764   2.543  1.00  0.00     0.164 C 
HETATM    2  N   UNL     1      40.271 -14.216   2.354  1.00  0.00    -0.249 NA
HETATM    3  C   UNL     1      41.280 -14.638   1.538  1.00  0.00     0.181 C 
HETATM    4  N   UNL     1      41.958 -13.853   0.762  1.00  0.00    -0.185 NA
HETATM    5  C   UNL     1      41.666 -12.517   0.761  1.00  0.00     0.247 C 
HETATM    6  O   UNL     1      42.501 -11.653   0.503  1.00  0.00    -0.271 OA
HETATM    7  C   UNL     1      40.295 -12.102   1.203  1.00  0.00     0.134 C 
HETATM    8  H   UNL     1      40.237 -14.667   3.265  1.00  0.00     0.131 HD
ENDROOT
BRANCH   3   9
HETATM    9  N   UNL     1      41.558 -15.984   1.579  1.00  0.00    -0.353 N 
HETATM   10  C   UNL     1      40.887 -16.977   2.427  1.00  0.00     0.153 C 
HETATM   11  C   UNL     1      41.834 -17.410   3.567  1.00  0.00     0.256 C 
HETATM   12  N   UNL     1      43.152 -17.931   2.987  1.00  0.00    -0.056 N 
HETATM   13  H   UNL     1      42.926 -18.695   2.347  1.00  0.00     0.281 HD
HETATM   14  C   UNL     1      43.797 -16.865   2.089  1.00  0.00     0.256 C 
HETATM   15  C   UNL     1      42.809 -16.480   0.969  1.00  0.00     0.153 C 
BRANCH  12  16
HETATM   16  C   UNL     1      44.120 -18.534   4.013  1.00  0.00     0.254 C 
BRANCH  16  17
HETATM   17  C   UNL     1      43.802 -18.078   5.437  1.00  0.00    -0.023 A 
HETATM   18  C   UNL     1      42.481 -17.863   5.875  1.00  0.00     0.009 A 
HETATM   19  C   UNL     1      42.221 -17.407   7.168  1.00  0.00     0.001 A 
HETATM   20  C   UNL     1      43.273 -17.163   8.046  1.00  0.00     0.000 A 
HETATM   21  C   UNL     1      44.586 -17.382   7.638  1.00  0.00     0.001 A 
HETATM   22  C   UNL     1      44.851 -17.838   6.346  1.00  0.00     0.009 A 
ENDBRANCH  16  17
BRANCH  16  23
HETATM   23  C   UNL     1      44.372 -20.044   3.844  1.00  0.00    -0.023 A 
HETATM   24  C   UNL     1      44.693 -20.895   4.921  1.00  0.00     0.009 A 
HETATM   25  C   UNL     1      44.857 -22.273   4.735  1.00  0.00     0.001 A 
HETATM   26  C   UNL     1      44.688 -22.836   3.476  1.00  0.00     0.000 A 
HETATM   27  C   UNL     1      44.339 -22.027   2.403  1.00  0.00     0.001 A 
HETATM   28  C   UNL     1      44.167 -20.652   2.587  1.00  0.00     0.009 A 
ENDBRANCH  16  23
ENDBRANCH  12  16
ENDBRANCH   3   9
BRANCH   1  29
HETATM   29  C   UNL     1      41.031 -12.338   3.721  1.00  0.00     0.240 C 
HETATM   30  N   UNL     1      41.525 -13.335   4.536  1.00  0.00    -0.326 N 
HETATM   31  H   UNL     1      41.121 -14.267   4.483  1.00  0.00     0.169 HD
HETATM   32  O   UNL     1      41.218 -11.127   3.885  1.00  0.00    -0.271 OA
BRANCH  30  33
HETATM   33  C   UNL     1      42.398 -13.173   5.635  1.00  0.00     0.034 A 
HETATM   34  C   UNL     1      42.198 -12.252   6.664  1.00  0.00     0.032 A 
HETATM   35  C   UNL     1      43.120 -12.149   7.718  1.00  0.00     0.039 A 
HETATM   36  C   UNL     1      44.243 -12.973   7.754  1.00  0.00     0.068 A 
HETATM   37  C   UNL     1      44.447 -13.887   6.721  1.00  0.00     0.039 A 
HETATM   38  C   UNL     1      43.540 -13.980   5.663  1.00  0.00     0.032 A 
BRANCH  36  39
HETATM   39  O   UNL     1      45.202 -12.992   8.726  1.00  0.00    -0.352 OA
BRANCH  39  40
HETATM   40  C   UNL     1      44.934 -12.269   9.925  1.00  0.00     0.171 C 
HETATM   41  C   UNL     1      45.722 -10.972   9.874  1.00  0.00     0.034 C 
ENDBRANCH  39  40
ENDBRANCH  36  39
ENDBRANCH  30  33
ENDBRANCH   1  29
TORSDOF 8
ENDMDL
MODEL 2
REMARK VINA RESULT:      -9.7      2.346      2.927
REMARK  8 active torsions:
REMARK  status: ('A' for Active; 'I' for Inactive)
REMARK    1  A    between atoms: C_2  and  O_3 
REMARK    2  A    between atoms: O_3  and  C_4 
REMARK    3  A    between atoms: C_7  and  N_8 
REMARK       I    between atoms: N_8  and  C_9 
REMARK    4  A    between atoms: C_9  and  C_10 
REMARK    5  A    between atoms: C_12  and  N_13 
REMARK    6  A    between atoms: N_16  and  C_18 
REMARK    7  A    between atoms: C_18  and  C_19 
REMARK    8  A    between atoms: C_18  and  C_25 
ROOT
HETATM    1  C   UNL     1      38.911 -11.923   4.833  1.00  0.00     0.164 C 
HETATM    2  N   UNL     1      39.288 -13.067   3.985  1.00  0.00    -0.249 NA
HETATM    3  C   UNL     1      40.432 -12.964   3.249  1.00  0.00     0.181 C 
HETATM    4  N   UNL     1      41.090 -11.860   3.086  1.00  0.00    -0.185 NA
HETATM    5  C   UNL     1      40.629 -10.725   3.694  1.00  0.00     0.247 C 
HETATM    6  O   UNL     1      41.369  -9.806   4.039  1.00  0.00    -0.271 OA
HETATM    7  C   UNL     1      39.173 -10.664   4.046  1.00  0.00     0.134 C 
HETATM    8  H   UNL     1      39.205 -13.919   4.535  1.00  0.00     0.131 HD
ENDROOT
BRANCH   3   9
HETATM    9  N   UNL     1      40.876 -14.129   2.668  1.00  0.00    -0.353 N 
HETATM   10  C   UNL     1      40.321 -15.469   2.890  1.00  0.00     0.153 C 
HETATM   11  C   UNL     1      41.294 -16.297   3.758  1.00  0.00     0.256 C 
HETATM   12  N   UNL     1      42.677 -16.339   3.101  1.00  0.00    -0.056 N 
HETATM   13  H   UNL     1      42.561 -16.721   2.161  1.00  0.00     0.281 HD
HETATM   14  C   UNL     1      43.199 -14.913   2.867  1.00  0.00     0.256 C 
HETATM   15  C   UNL     1      42.190 -14.141   1.992  1.00  0.00     0.153 C 
BRANCH  12  16
HETATM   16  C   UNL     1      43.695 -17.258   3.789  1.00  0.00     0.254 C 
BRANCH  16  17
HETATM   17  C   UNL     1      43.578 -17.204   5.312  1.00  0.00    -0.023 A 
HETATM   18  C   UNL     1      42.999 -18.252   6.054  1.00  0.00     0.009 A 
HETATM   19  C   UNL     1      42.868 -18.159   7.440  1.00  0.00     0.001 A 
HETATM   20  C   UNL     1      43.316 -17.024   8.109  1.00  0.00     0.000 A 
HETATM   21  C   UNL     1      43.905 -15.983   7.396  1.00  0.00     0.001 A 
HETATM   22  C   UNL     1      44.038 -16.071   6.009  1.00  0.00     0.009 A 
ENDBRANCH  16  17
BRANCH  16  23
HETATM   23  C   UNL     1      43.792 -18.672   3.183  1.00  0.00    -0.023 A 
HETATM   24  C   UNL     1      44.719 -19.636   3.627  1.00  0.00     0.009 A 
HETATM   25  C   UNL     1      44.736 -20.929   3.091  1.00  0.00     0.001 A 
HETATM   26  C   UNL     1      43.819 -21.295   2.114  1.00  0.00     0.000 A 
HETATM   27  C   UNL     1      42.872 -20.376   1.681  1.00  0.00     0.001 A 
HETATM   28  C   UNL     1      42.848 -19.087   2.220  1.00  0.00     0.009 A 
ENDBRANCH  16  23
ENDBRANCH  12  16
ENDBRANCH   3   9
BRANCH   1  29
HETATM   29  C   UNL     1      39.630 -12.104   6.204  1.00  0.00     0.240 C 
HETATM   30  N   UNL     1      40.042 -10.964   6.864  1.00  0.00    -0.326 N 
HETATM   31  H   UNL     1      40.058 -10.079   6.364  1.00  0.00     0.169 HD
HETATM   32  O   UNL     1      39.837 -13.261   6.586  1.00  0.00    -0.271 OA
BRANCH  30  33
HETATM   33  C   UNL     1      40.683 -10.901   8.121  1.00  0.00     0.034 A 
HETATM   34  C   UNL     1      40.018 -10.993   9.344  1.00  0.00     0.032 A 
HETATM   35  C   UNL     1      40.730 -10.913  10.551  1.00  0.00     0.039 A 
HETATM   36  C   UNL     1      42.114 -10.749  10.542  1.00  0.00     0.068 A 
HETATM   37  C   UNL     1      42.777 -10.649   9.320  1.00  0.00     0.039 A 
HETATM   38  C   UNL     1      42.069 -10.712   8.118  1.00  0.00     0.032 A 
BRANCH  36  39
HETATM   39  O   UNL     1      42.928 -10.678  11.637  1.00  0.00    -0.352 OA
BRANCH  39  40
HETATM   40  C   UNL     1      42.309 -10.439  12.899  1.00  0.00     0.171 C 
HETATM   41  C   UNL     1      43.220  -9.525  13.699  1.00  0.00     0.034 C 
ENDBRANCH  39  40
ENDBRANCH  36  39
ENDBRANCH  30  33
ENDBRANCH   1  29
TORSDOF 8
ENDMDL
MODEL 3
REMARK VINA RESULT:      -9.5      4.170      7.882
REMARK  8 active torsions:
REMARK  status: ('A' for Active; 'I' for Inactive)
REMARK    1  A    between atoms: C_2  and  O_3 
REMARK    2  A    between atoms: O_3  and  C_4 
REMARK    3  A    between atoms: C_7  and  N_8 
REMARK       I    between atoms: N_8  and  C_9 
REMARK    4  A    between atoms: C_9  and  C_10 
REMARK    5  A    between atoms: C_12  and  N_13 
REMARK    6  A    between atoms: N_16  and  C_18 
REMARK    7  A    between atoms: C_18  and  C_19 
REMARK    8  A    between atoms: C_18  and  C_25 
ROOT
HETATM    1  C   UNL     1      41.844 -13.355  -1.863  1.00  0.00     0.164 C 
HETATM    2  N   UNL     1      41.877 -14.482  -0.914  1.00  0.00    -0.249 NA
HETATM    3  C   UNL     1      41.073 -14.410   0.187  1.00  0.00     0.181 C 
HETATM    4  N   UNL     1      40.449 -13.337   0.556  1.00  0.00    -0.185 NA
HETATM    5  C   UNL     1      40.581 -12.205  -0.200  1.00  0.00     0.247 C 
HETATM    6  O   UNL     1      39.708 -11.343  -0.269  1.00  0.00    -0.271 OA
HETATM    7  C   UNL     1      41.803 -12.081  -1.060  1.00  0.00     0.134 C 
HETATM    8  H   UNL     1      41.810 -15.350  -1.439  1.00  0.00     0.131 HD
ENDROOT
BRANCH   3   9
HETATM    9  N   UNL     1      40.948 -15.571   0.913  1.00  0.00    -0.353 N 
HETATM   10  C   UNL     1      40.565 -15.667   2.326  1.00  0.00     0.153 C 
HETATM   11  C   UNL     1      41.800 -16.037   3.175  1.00  0.00     0.256 C 
HETATM   12  N   UNL     1      42.428 -17.332   2.651  1.00  0.00    -0.056 N 
HETATM   13  H   UNL     1      41.706 -18.054   2.667  1.00  0.00     0.281 HD
HETATM   14  C   UNL     1      42.785 -17.187   1.164  1.00  0.00     0.256 C 
HETATM   15  C   UNL     1      41.514 -16.824   0.371  1.00  0.00     0.153 C 
BRANCH  12  16
HETATM   16  C   UNL     1      43.575 -17.889   3.505  1.00  0.00     0.254 C 
BRANCH  16  17
HETATM   17  C   UNL     1      43.431 -17.508   4.978  1.00  0.00    -0.023 A 
HETATM   18  C   UNL     1      44.447 -16.827   5.676  1.00  0.00     0.009 A 
HETATM   19  C   UNL     1      44.306 -16.527   7.032  1.00  0.00     0.001 A 
HETATM   20  C   UNL     1      43.149 -16.897   7.712  1.00  0.00     0.000 A 
HETATM   21  C   UNL     1      42.126 -17.558   7.036  1.00  0.00     0.001 A 
HETATM   22  C   UNL     1      42.262 -17.860   5.681  1.00  0.00     0.009 A 
ENDBRANCH  16  17
BRANCH  16  23
HETATM   23  C   UNL     1      43.914 -19.367   3.235  1.00  0.00    -0.023 A 
HETATM   24  C   UNL     1      44.625 -20.172   4.148  1.00  0.00     0.009 A 
HETATM   25  C   UNL     1      44.862 -21.527   3.891  1.00  0.00     0.001 A 
HETATM   26  C   UNL     1      44.381 -22.116   2.727  1.00  0.00     0.000 A 
HETATM   27  C   UNL     1      43.648 -21.355   1.825  1.00  0.00     0.001 A 
HETATM   28  C   UNL     1      43.404 -20.003   2.083  1.00  0.00     0.009 A 
ENDBRANCH  16  23
ENDBRANCH  12  16
ENDBRANCH   3   9
BRANCH   1  29
HETATM   29  C   UNL     1      40.690 -13.633  -2.873  1.00  0.00     0.240 C 
HETATM   30  N   UNL     1      39.410 -13.291  -2.490  1.00  0.00    -0.326 N 
HETATM   31  H   UNL     1      39.225 -13.070  -1.515  1.00  0.00     0.169 HD
HETATM   32  O   UNL     1      40.988 -14.196  -3.933  1.00  0.00    -0.271 OA
BRANCH  30  33
HETATM   33  C   UNL     1      38.232 -13.430  -3.258  1.00  0.00     0.034 A 
HETATM   34  C   UNL     1      37.644 -14.655  -3.573  1.00  0.00     0.032 A 
HETATM   35  C   UNL     1      36.475 -14.706  -4.349  1.00  0.00     0.039 A 
HETATM   36  C   UNL     1      35.883 -13.531  -4.808  1.00  0.00     0.068 A 
HETATM   37  C   UNL     1      36.476 -12.307  -4.500  1.00  0.00     0.039 A 
HETATM   38  C   UNL     1      37.647 -12.255  -3.741  1.00  0.00     0.032 A 
BRANCH  36  39
HETATM   39  O   UNL     1      34.739 -13.437  -5.549  1.00  0.00    -0.352 OA
BRANCH  39  40
HETATM   40  C   UNL     1      34.844 -12.852  -6.845  1.00  0.00     0.171 C 
HETATM   41  C   UNL     1      35.544 -13.850  -7.751  1.00  0.00     0.034 C 
ENDBRANCH  39  40
ENDBRANCH  36  39
ENDBRANCH  30  33
ENDBRANCH   1  29
TORSDOF 8
ENDMDL
MODEL 4
REMARK VINA RESULT:      -9.4      1.686      2.418
REMARK  8 active torsions:
REMARK  status: ('A' for Active; 'I' for Inactive)
REMARK    1  A    between atoms: C_2  and  O_3 
REMARK    2  A    between atoms: O_3  and  C_4 
REMARK    3  A    between atoms: C_7  and  N_8 
REMARK       I    between atoms: N_8  and  C_9 
REMARK    4  A    between atoms: C_9  and  C_10 
REMARK    5  A    between atoms: C_12  and  N_13 
REMARK    6  A    between atoms: N_16  and  C_18 
REMARK    7  A    between atoms: C_18  and  C_19 
REMARK    8  A    between atoms: C_18  and  C_25 
ROOT
HETATM    1  C   UNL     1      39.638 -12.343   0.509  1.00  0.00     0.164 C 
HETATM    2  N   UNL     1      39.674 -13.807   0.675  1.00  0.00    -0.249 NA
HETATM    3  C   UNL     1      40.866 -14.441   0.475  1.00  0.00     0.181 C 
HETATM    4  N   UNL     1      41.906 -13.875  -0.050  1.00  0.00    -0.185 NA
HETATM    5  C   UNL     1      41.824 -12.560  -0.417  1.00  0.00     0.247 C 
HETATM    6  O   UNL     1      42.798 -11.810  -0.431  1.00  0.00    -0.271 OA
HETATM    7  C   UNL     1      40.464 -11.999  -0.704  1.00  0.00     0.134 C 
HETATM    8  H   UNL     1      39.200 -14.046   1.542  1.00  0.00     0.131 HD
ENDROOT
BRANCH   3   9
HETATM    9  N   UNL     1      40.918 -15.756   0.873  1.00  0.00    -0.353 N 
HETATM   10  C   UNL     1      40.348 -16.306   2.109  1.00  0.00     0.153 C 
HETATM   11  C   UNL     1      41.483 -16.639   3.101  1.00  0.00     0.256 C 
HETATM   12  N   UNL     1      42.489 -17.591   2.447  1.00  0.00    -0.056 N 
HETATM   13  H   UNL     1      41.975 -18.419   2.140  1.00  0.00     0.281 HD
HETATM   14  C   UNL     1      43.034 -16.980   1.148  1.00  0.00     0.256 C 
HETATM   15  C   UNL     1      41.856 -16.676   0.198  1.00  0.00     0.153 C 
BRANCH  12  16
HETATM   16  C   UNL     1      43.586 -18.118   3.382  1.00  0.00     0.254 C 
BRANCH  16  17
HETATM   17  C   UNL     1      43.418 -17.602   4.811  1.00  0.00    -0.023 A 
HETATM   18  C   UNL     1      44.173 -16.523   5.308  1.00  0.00     0.009 A 
HETATM   19  C   UNL     1      44.029 -16.097   6.630  1.00  0.00     0.001 A 
HETATM   20  C   UNL     1      43.128 -16.738   7.475  1.00  0.00     0.000 A 
HETATM   21  C   UNL     1      42.360 -17.798   6.998  1.00  0.00     0.001 A 
HETATM   22  C   UNL     1      42.500 -18.227   5.678  1.00  0.00     0.009 A 
ENDBRANCH  16  17
BRANCH  16  23
HETATM   23  C   UNL     1      43.864 -19.628   3.254  1.00  0.00    -0.023 A 
HETATM   24  C   UNL     1      43.511 -20.381   2.116  1.00  0.00     0.009 A 
HETATM   25  C   UNL     1      43.835 -21.739   2.013  1.00  0.00     0.001 A 
HETATM   26  C   UNL     1      44.532 -22.373   3.034  1.00  0.00     0.000 A 
HETATM   27  C   UNL     1      44.922 -21.649   4.153  1.00  0.00     0.001 A 
HETATM   28  C   UNL     1      44.607 -20.291   4.255  1.00  0.00     0.009 A 
ENDBRANCH  16  23
ENDBRANCH  12  16
ENDBRANCH   3   9
BRANCH   1  29
HETATM   29  C   UNL     1      40.032 -11.711   1.878  1.00  0.00     0.240 C 
HETATM   30  N   UNL     1      39.949 -12.511   2.998  1.00  0.00    -0.326 N 
HETATM   31  H   UNL     1      39.452 -13.396   2.941  1.00  0.00     0.169 HD
HETATM   32  O   UNL     1      40.338 -10.512   1.881  1.00  0.00    -0.271 OA
BRANCH  30  33
HETATM   33  C   UNL     1      40.282 -12.149   4.322  1.00  0.00     0.034 A 
HETATM   34  C   UNL     1      41.530 -12.372   4.905  1.00  0.00     0.032 A 
HETATM   35  C   UNL     1      41.776 -11.987   6.232  1.00  0.00     0.039 A 
HETATM   36  C   UNL     1      40.779 -11.368   6.983  1.00  0.00     0.068 A 
HETATM   37  C   UNL     1      39.529 -11.153   6.403  1.00  0.00     0.039 A 
HETATM   38  C   UNL     1      39.277 -11.549   5.088  1.00  0.00     0.032 A 
BRANCH  36  39
HETATM   39  O   UNL     1      40.891 -10.925   8.270  1.00  0.00    -0.352 OA
BRANCH  39  40
HETATM   40  C   UNL     1      42.100 -10.261   8.631  1.00  0.00     0.171 C 
HETATM   41  C   UNL     1      42.446 -10.664  10.053  1.00  0.00     0.034 C 
ENDBRANCH  39  40
ENDBRANCH  36  39
ENDBRANCH  30  33
ENDBRANCH   1  29
TORSDOF 8
ENDMDL
MODEL 5
REMARK VINA RESULT:      -9.3      3.666      6.019
REMARK  8 active torsions:
REMARK  status: ('A' for Active; 'I' for Inactive)
REMARK    1  A    between atoms: C_2  and  O_3 
REMARK    2  A    between atoms: O_3  and  C_4 
REMARK    3  A    between atoms: C_7  and  N_8 
REMARK       I    between atoms: N_8  and  C_9 
REMARK    4  A    between atoms: C_9  and  C_10 
REMARK    5  A    between atoms: C_12  and  N_13 
REMARK    6  A    between atoms: N_16  and  C_18 
REMARK    7  A    between atoms: C_18  and  C_19 
REMARK    8  A    between atoms: C_18  and  C_25 
ROOT
HETATM    1  C   UNL     1      39.025 -12.893  -0.833  1.00  0.00     0.164 C 
HETATM    2  N   UNL     1      39.426 -14.279  -0.537  1.00  0.00    -0.249 NA
HETATM    3  C   UNL     1      40.309 -14.481   0.484  1.00  0.00     0.181 C 
HETATM    4  N   UNL     1      40.972 -13.532   1.065  1.00  0.00    -0.185 NA
HETATM    5  C   UNL     1      40.774 -12.243   0.651  1.00  0.00     0.247 C 
HETATM    6  O   UNL     1      40.914 -11.275   1.395  1.00  0.00    -0.271 OA
HETATM    7  C   UNL     1      40.257 -12.030  -0.740  1.00  0.00     0.134 C 
HETATM    8  H   UNL     1      38.590 -14.858  -0.503  1.00  0.00     0.131 HD
ENDROOT
BRANCH   3   9
HETATM    9  N   UNL     1      40.469 -15.787   0.887  1.00  0.00    -0.353 N 
HETATM   10  C   UNL     1      40.006 -16.359   2.157  1.00  0.00     0.153 C 
HETATM   11  C   UNL     1      41.215 -16.608   3.085  1.00  0.00     0.256 C 
HETATM   12  N   UNL     1      42.242 -17.500   2.382  1.00  0.00    -0.056 N 
HETATM   13  H   UNL     1      41.768 -18.362   2.109  1.00  0.00     0.281 HD
HETATM   14  C   UNL     1      42.672 -16.868   1.049  1.00  0.00     0.256 C 
HETATM   15  C   UNL     1      41.426 -16.650   0.166  1.00  0.00     0.153 C 
BRANCH  12  16
HETATM   16  C   UNL     1      43.422 -17.945   3.256  1.00  0.00     0.254 C 
BRANCH  16  17
HETATM   17  C   UNL     1      43.270 -17.479   4.704  1.00  0.00    -0.023 A 
HETATM   18  C   UNL     1      42.469 -18.173   5.631  1.00  0.00     0.009 A 
HETATM   19  C   UNL     1      42.315 -17.703   6.936  1.00  0.00     0.001 A 
HETATM   20  C   UNL     1      42.960 -16.538   7.339  1.00  0.00     0.000 A 
HETATM   21  C   UNL     1      43.770 -15.845   6.442  1.00  0.00     0.001 A 
HETATM   22  C   UNL     1      43.927 -16.311   5.136  1.00  0.00     0.009 A 
ENDBRANCH  16  17
BRANCH  16  23
HETATM   23  C   UNL     1      43.830 -19.420   3.077  1.00  0.00    -0.023 A 
HETATM   24  C   UNL     1      44.586 -20.130   4.031  1.00  0.00     0.009 A 
HETATM   25  C   UNL     1      44.887 -21.486   3.857  1.00  0.00     0.001 A 
HETATM   26  C   UNL     1      44.426 -22.170   2.738  1.00  0.00     0.000 A 
HETATM   27  C   UNL     1      43.651 -21.504   1.797  1.00  0.00     0.001 A 
HETATM   28  C   UNL     1      43.343 -20.152   1.972  1.00  0.00     0.009 A 
ENDBRANCH  16  23
ENDBRANCH  12  16
ENDBRANCH   3   9
BRANCH   1  29
HETATM   29  C   UNL     1      37.811 -12.554   0.083  1.00  0.00     0.240 C 
HETATM   30  N   UNL     1      37.300 -11.274   0.019  1.00  0.00    -0.326 N 
HETATM   31  H   UNL     1      37.837 -10.548  -0.448  1.00  0.00     0.169 HD
HETATM   32  O   UNL     1      37.418 -13.438   0.854  1.00  0.00    -0.271 OA
BRANCH  30  33
HETATM   33  C   UNL     1      36.194 -10.769   0.738  1.00  0.00     0.034 A 
HETATM   34  C   UNL     1      34.868 -11.119   0.483  1.00  0.00     0.032 A 
HETATM   35  C   UNL     1      33.825 -10.563   1.240  1.00  0.00     0.039 A 
HETATM   36  C   UNL     1      34.103  -9.660   2.265  1.00  0.00     0.068 A 
HETATM   37  C   UNL     1      35.428  -9.304   2.514  1.00  0.00     0.039 A 
HETATM   38  C   UNL     1      36.465  -9.843   1.751  1.00  0.00     0.032 A 
BRANCH  36  39
HETATM   39  O   UNL     1      33.191  -9.065   3.089  1.00  0.00    -0.352 OA
BRANCH  39  40
HETATM   40  C   UNL     1      32.386  -9.918   3.900  1.00  0.00     0.171 C 
HETATM   41  C   UNL     1      32.845  -9.762   5.339  1.00  0.00     0.034 C 
ENDBRANCH  39  40
ENDBRANCH  36  39
ENDBRANCH  30  33
ENDBRANCH   1  29
TORSDOF 8
ENDMDL
MODEL 6
REMARK VINA RESULT:      -9.1      3.129      6.751
REMARK  8 active torsions:
REMARK  status: ('A' for Active; 'I' for Inactive)
REMARK    1  A    between atoms: C_2  and  O_3 
REMARK    2  A    between atoms: O_3  and  C_4 
REMARK    3  A    between atoms: C_7  and  N_8 
REMARK       I    between atoms: N_8  and  C_9 
REMARK    4  A    between atoms: C_9  and  C_10 
REMARK    5  A    between atoms: C_12  and  N_13 
REMARK    6  A    between atoms: N_16  and  C_18 
REMARK    7  A    between atoms: C_18  and  C_19 
REMARK    8  A    between atoms: C_18  and  C_25 
ROOT
HETATM    1  C   UNL     1      40.753  -9.715   2.676  1.00  0.00     0.164 C 
HETATM    2  N   UNL     1      41.356 -10.594   3.694  1.00  0.00    -0.249 NA
HETATM    3  C   UNL     1      40.517 -11.351   4.459  1.00  0.00     0.181 C 
HETATM    4  N   UNL     1      39.231 -11.193   4.493  1.00  0.00    -0.185 NA
HETATM    5  C   UNL     1      38.667 -10.224   3.710  1.00  0.00     0.247 C 
HETATM    6  O   UNL     1      37.521 -10.304   3.273  1.00  0.00    -0.271 OA
HETATM    7  C   UNL     1      39.534  -9.076   3.288  1.00  0.00     0.134 C 
HETATM    8  H   UNL     1      42.126 -11.105   3.266  1.00  0.00     0.131 HD
ENDROOT
BRANCH   3   9
HETATM    9  N   UNL     1      41.117 -12.328   5.218  1.00  0.00    -0.353 N 
HETATM   10  C   UNL     1      42.493 -12.814   5.065  1.00  0.00     0.153 C 
HETATM   11  C   UNL     1      42.478 -14.225   4.437  1.00  0.00     0.256 C 
HETATM   12  N   UNL     1      41.616 -15.167   5.282  1.00  0.00    -0.056 N 
HETATM   13  H   UNL     1      41.991 -15.160   6.232  1.00  0.00     0.281 HD
HETATM   14  C   UNL     1      40.197 -14.599   5.433  1.00  0.00     0.256 C 
HETATM   15  C   UNL     1      40.277 -13.196   6.069  1.00  0.00     0.153 C 
BRANCH  12  16
HETATM   16  C   UNL     1      41.643 -16.638   4.847  1.00  0.00     0.254 C 
BRANCH  16  17
HETATM   17  C   UNL     1      41.994 -16.791   3.367  1.00  0.00    -0.023 A 
HETATM   18  C   UNL     1      43.328 -16.806   2.914  1.00  0.00     0.009 A 
HETATM   19  C   UNL     1      43.620 -16.906   1.553  1.00  0.00     0.001 A 
HETATM   20  C   UNL     1      42.589 -16.998   0.624  1.00  0.00     0.000 A 
HETATM   21  C   UNL     1      41.264 -17.001   1.052  1.00  0.00     0.001 A 
HETATM   22  C   UNL     1      40.966 -16.900   2.411  1.00  0.00     0.009 A 
ENDBRANCH  16  17
BRANCH  16  23
HETATM   23  C   UNL     1      42.402 -17.575   5.806  1.00  0.00    -0.023 A 
HETATM   24  C   UNL     1      42.865 -18.851   5.428  1.00  0.00     0.009 A 
HETATM   25  C   UNL     1      43.601 -19.649   6.312  1.00  0.00     0.001 A 
HETATM   26  C   UNL     1      43.908 -19.186   7.586  1.00  0.00     0.000 A 
HETATM   27  C   UNL     1      43.493 -17.918   7.975  1.00  0.00     0.001 A 
HETATM   28  C   UNL     1      42.764 -17.117   7.092  1.00  0.00     0.009 A 
ENDBRANCH  16  23
ENDBRANCH  12  16
ENDBRANCH   3   9
BRANCH   1  29
HETATM   29  C   UNL     1      40.576 -10.560   1.378  1.00  0.00     0.240 C 
HETATM   30  N   UNL     1      41.622 -11.378   1.001  1.00  0.00    -0.326 N 
HETATM   31  H   UNL     1      42.530 -11.258   1.442  1.00  0.00     0.169 HD
HETATM   32  O   UNL     1      39.532 -10.400   0.736  1.00  0.00    -0.271 OA
BRANCH  30  33
HETATM   33  C   UNL     1      41.659 -12.241  -0.116  1.00  0.00     0.034 A 
HETATM   34  C   UNL     1      42.479 -12.047  -1.228  1.00  0.00     0.032 A 
HETATM   35  C   UNL     1      42.449 -12.949  -2.303  1.00  0.00     0.039 A 
HETATM   36  C   UNL     1      41.605 -14.057  -2.268  1.00  0.00     0.068 A 
HETATM   37  C   UNL     1      40.780 -14.247  -1.161  1.00  0.00     0.039 A 
HETATM   38  C   UNL     1      40.796 -13.341  -0.098  1.00  0.00     0.032 A 
BRANCH  36  39
HETATM   39  O   UNL     1      41.494 -15.021  -3.230  1.00  0.00    -0.352 OA
BRANCH  39  40
HETATM   40  C   UNL     1      40.527 -16.048  -3.021  1.00  0.00     0.171 C 
HETATM   41  C   UNL     1      39.405 -15.843  -4.022  1.00  0.00     0.034 C 
ENDBRANCH  39  40
ENDBRANCH  36  39
ENDBRANCH  30  33
ENDBRANCH   1  29
TORSDOF 8
ENDMDL
MODEL 7
REMARK VINA RESULT:      -9.1      3.799      8.949
REMARK  8 active torsions:
REMARK  status: ('A' for Active; 'I' for Inactive)
REMARK    1  A    between atoms: C_2  and  O_3 
REMARK    2  A    between atoms: O_3  and  C_4 
REMARK    3  A    between atoms: C_7  and  N_8 
REMARK       I    between atoms: N_8  and  C_9 
REMARK    4  A    between atoms: C_9  and  C_10 
REMARK    5  A    between atoms: C_12  and  N_13 
REMARK    6  A    between atoms: N_16  and  C_18 
REMARK    7  A    between atoms: C_18  and  C_19 
REMARK    8  A    between atoms: C_18  and  C_25 
ROOT
HETATM    1  C   UNL     1      40.500 -14.576   4.899  1.00  0.00     0.164 C 
HETATM    2  N   UNL     1      39.839 -13.843   3.805  1.00  0.00    -0.249 NA
HETATM    3  C   UNL     1      40.594 -12.964   3.082  1.00  0.00     0.181 C 
HETATM    4  N   UNL     1      41.783 -12.581   3.424  1.00  0.00    -0.185 NA
HETATM    5  C   UNL     1      42.334 -13.091   4.568  1.00  0.00     0.247 C 
HETATM    6  O   UNL     1      43.546 -13.221   4.723  1.00  0.00    -0.271 OA
HETATM    7  C   UNL     1      41.401 -13.609   5.621  1.00  0.00     0.134 C 
HETATM    8  H   UNL     1      39.300 -14.504   3.251  1.00  0.00     0.131 HD
ENDROOT
BRANCH   3   9
HETATM    9  N   UNL     1      40.015 -12.487   1.929  1.00  0.00    -0.353 N 
HETATM   10  C   UNL     1      38.989 -13.171   1.134  1.00  0.00     0.153 C 
HETATM   11  C   UNL     1      39.614 -13.703  -0.174  1.00  0.00     0.256 C 
HETATM   12  N   UNL     1      40.282 -12.558  -0.941  1.00  0.00    -0.056 N 
HETATM   13  H   UNL     1      39.573 -11.841  -1.104  1.00  0.00     0.281 HD
HETATM   14  C   UNL     1      41.326 -11.862  -0.056  1.00  0.00     0.256 C 
HETATM   15  C   UNL     1      40.642 -11.348   1.228  1.00  0.00     0.153 C 
BRANCH  12  16
HETATM   16  C   UNL     1      40.809 -12.930  -2.333  1.00  0.00     0.254 C 
BRANCH  16  17
HETATM   17  C   UNL     1      40.025 -14.087  -2.953  1.00  0.00    -0.023 A 
HETATM   18  C   UNL     1      38.699 -13.934  -3.400  1.00  0.00     0.009 A 
HETATM   19  C   UNL     1      37.992 -15.017  -3.925  1.00  0.00     0.001 A 
HETATM   20  C   UNL     1      38.597 -16.266  -4.017  1.00  0.00     0.000 A 
HETATM   21  C   UNL     1      39.913 -16.435  -3.594  1.00  0.00     0.001 A 
HETATM   22  C   UNL     1      40.624 -15.356  -3.069  1.00  0.00     0.009 A 
ENDBRANCH  16  17
BRANCH  16  23
HETATM   23  C   UNL     1      41.061 -11.728  -3.264  1.00  0.00    -0.023 A 
HETATM   24  C   UNL     1      40.224 -10.595  -3.299  1.00  0.00     0.009 A 
HETATM   25  C   UNL     1      40.519  -9.498  -4.117  1.00  0.00     0.001 A 
HETATM   26  C   UNL     1      41.664  -9.498  -4.904  1.00  0.00     0.000 A 
HETATM   27  C   UNL     1      42.525 -10.587  -4.865  1.00  0.00     0.001 A 
HETATM   28  C   UNL     1      42.236 -11.681  -4.044  1.00  0.00     0.009 A 
ENDBRANCH  16  23
ENDBRANCH  12  16
ENDBRANCH   3   9
BRANCH   1  29
HETATM   29  C   UNL     1      41.132 -15.860   4.282  1.00  0.00     0.240 C 
HETATM   30  N   UNL     1      42.279 -16.353   4.870  1.00  0.00    -0.326 N 
HETATM   31  H   UNL     1      42.786 -15.773   5.534  1.00  0.00     0.169 HD
HETATM   32  O   UNL     1      40.599 -16.324   3.267  1.00  0.00    -0.271 OA
BRANCH  30  33
HETATM   33  C   UNL     1      42.993 -17.511   4.490  1.00  0.00     0.034 A 
HETATM   34  C   UNL     1      43.331 -18.544   5.365  1.00  0.00     0.032 A 
HETATM   35  C   UNL     1      44.051 -19.659   4.907  1.00  0.00     0.039 A 
HETATM   36  C   UNL     1      44.430 -19.751   3.569  1.00  0.00     0.068 A 
HETATM   37  C   UNL     1      44.099 -18.714   2.697  1.00  0.00     0.039 A 
HETATM   38  C   UNL     1      43.397 -17.597   3.154  1.00  0.00     0.032 A 
BRANCH  36  39
HETATM   39  O   UNL     1      45.110 -20.785   2.990  1.00  0.00    -0.352 OA
BRANCH  39  40
HETATM   40  C   UNL     1      44.387 -21.988   2.743  1.00  0.00     0.171 C 
HETATM   41  C   UNL     1      43.949 -21.980   1.289  1.00  0.00     0.034 C 
ENDBRANCH  39  40
ENDBRANCH  36  39
ENDBRANCH  30  33
ENDBRANCH   1  29
TORSDOF 8
ENDMDL
MODEL 8
REMARK VINA RESULT:      -9.1      2.814      6.428
REMARK  8 active torsions:
REMARK  status: ('A' for Active; 'I' for Inactive)
REMARK    1  A    between atoms: C_2  and  O_3 
REMARK    2  A    between atoms: O_3  and  C_4 
REMARK    3  A    between atoms: C_7  and  N_8 
REMARK       I    between atoms: N_8  and  C_9 
REMARK    4  A    between atoms: C_9  and  C_10 
REMARK    5  A    between atoms: C_12  and  N_13 
REMARK    6  A    between atoms: N_16  and  C_18 
REMARK    7  A    between atoms: C_18  and  C_19 
REMARK    8  A    between atoms: C_18  and  C_25 
ROOT
HETATM    1  C   UNL     1      40.850  -9.660   3.586  1.00  0.00     0.164 C 
HETATM    2  N   UNL     1      41.383 -10.693   4.492  1.00  0.00    -0.249 NA
HETATM    3  C   UNL     1      40.488 -11.437   5.205  1.00  0.00     0.181 C 
HETATM    4  N   UNL     1      39.227 -11.157   5.296  1.00  0.00    -0.185 NA
HETATM    5  C   UNL     1      38.746 -10.063   4.631  1.00  0.00     0.247 C 
HETATM    6  O   UNL     1      37.589  -9.985   4.224  1.00  0.00    -0.271 OA
HETATM    7  C   UNL     1      39.715  -8.969   4.296  1.00  0.00     0.134 C 
HETATM    8  H   UNL     1      42.088 -11.230   3.992  1.00  0.00     0.131 HD
ENDROOT
BRANCH   3   9
HETATM    9  N   UNL     1      41.003 -12.540   5.844  1.00  0.00    -0.353 N 
HETATM   10  C   UNL     1      42.392 -12.708   6.289  1.00  0.00     0.153 C 
HETATM   11  C   UNL     1      43.114 -13.714   5.367  1.00  0.00     0.256 C 
HETATM   12  N   UNL     1      42.347 -15.039   5.333  1.00  0.00    -0.056 N 
HETATM   13  H   UNL     1      42.263 -15.372   6.295  1.00  0.00     0.281 HD
HETATM   14  C   UNL     1      40.896 -14.803   4.887  1.00  0.00     0.256 C 
HETATM   15  C   UNL     1      40.228 -13.798   5.847  1.00  0.00     0.153 C 
BRANCH  12  16
HETATM   16  C   UNL     1      43.044 -16.173   4.570  1.00  0.00     0.254 C 
BRANCH  16  17
HETATM   17  C   UNL     1      43.315 -17.383   5.464  1.00  0.00    -0.023 A 
HETATM   18  C   UNL     1      43.110 -17.343   6.857  1.00  0.00     0.009 A 
HETATM   19  C   UNL     1      43.403 -18.449   7.656  1.00  0.00     0.001 A 
HETATM   20  C   UNL     1      43.901 -19.614   7.079  1.00  0.00     0.000 A 
HETATM   21  C   UNL     1      44.096 -19.680   5.702  1.00  0.00     0.001 A 
HETATM   22  C   UNL     1      43.804 -18.576   4.899  1.00  0.00     0.009 A 
ENDBRANCH  16  17
BRANCH  16  23
HETATM   23  C   UNL     1      42.428 -16.493   3.195  1.00  0.00    -0.023 A 
HETATM   24  C   UNL     1      41.182 -17.133   3.041  1.00  0.00     0.009 A 
HETATM   25  C   UNL     1      40.630 -17.352   1.773  1.00  0.00     0.001 A 
HETATM   26  C   UNL     1      41.298 -16.924   0.632  1.00  0.00     0.000 A 
HETATM   27  C   UNL     1      42.512 -16.261   0.755  1.00  0.00     0.001 A 
HETATM   28  C   UNL     1      43.063 -16.034   2.020  1.00  0.00     0.009 A 
ENDBRANCH  16  23
ENDBRANCH  12  16
ENDBRANCH   3   9
BRANCH   1  29
HETATM   29  C   UNL     1      40.560 -10.347   2.217  1.00  0.00     0.240 C 
HETATM   30  N   UNL     1      41.266 -11.494   1.916  1.00  0.00    -0.326 N 
HETATM   31  H   UNL     1      42.079 -11.738   2.477  1.00  0.00     0.169 HD
HETATM   32  O   UNL     1      39.757  -9.787   1.461  1.00  0.00    -0.271 OA
BRANCH  30  33
HETATM   33  C   UNL     1      41.139 -12.283   0.752  1.00  0.00     0.034 A 
HETATM   34  C   UNL     1      40.081 -13.159   0.512  1.00  0.00     0.032 A 
HETATM   35  C   UNL     1      40.034 -13.915  -0.671  1.00  0.00     0.039 A 
HETATM   36  C   UNL     1      41.043 -13.791  -1.625  1.00  0.00     0.068 A 
HETATM   37  C   UNL     1      42.104 -12.921  -1.381  1.00  0.00     0.039 A 
HETATM   38  C   UNL     1      42.161 -12.181  -0.198  1.00  0.00     0.032 A 
BRANCH  36  39
HETATM   39  O   UNL     1      41.109 -14.446  -2.822  1.00  0.00    -0.352 OA
BRANCH  39  40
HETATM   40  C   UNL     1      40.643 -15.793  -2.859  1.00  0.00     0.171 C 
HETATM   41  C   UNL     1      39.501 -15.864  -3.856  1.00  0.00     0.034 C 
ENDBRANCH  39  40
ENDBRANCH  36  39
ENDBRANCH  30  33
ENDBRANCH   1  29
TORSDOF 8
ENDMDL
MODEL 9
REMARK VINA RESULT:      -9.0      3.082      6.858
REMARK  8 active torsions:
REMARK  status: ('A' for Active; 'I' for Inactive)
REMARK    1  A    between atoms: C_2  and  O_3 
REMARK    2  A    between atoms: O_3  and  C_4 
REMARK    3  A    between atoms: C_7  and  N_8 
REMARK       I    between atoms: N_8  and  C_9 
REMARK    4  A    between atoms: C_9  and  C_10 
REMARK    5  A    between atoms: C_12  and  N_13 
REMARK    6  A    between atoms: N_16  and  C_18 
REMARK    7  A    between atoms: C_18  and  C_19 
REMARK    8  A    between atoms: C_18  and  C_25 
ROOT
HETATM    1  C   UNL     1      41.157 -13.687  -1.644  1.00  0.00     0.164 C 
HETATM    2  N   UNL     1      40.982 -12.809  -0.474  1.00  0.00    -0.249 NA
HETATM    3  C   UNL     1      39.718 -12.642   0.012  1.00  0.00     0.181 C 
HETATM    4  N   UNL     1      38.649 -13.030  -0.607  1.00  0.00    -0.185 NA
HETATM    5  C   UNL     1      38.780 -13.661  -1.814  1.00  0.00     0.247 C 
HETATM    6  O   UNL     1      37.968 -14.486  -2.227  1.00  0.00    -0.271 OA
HETATM    7  C   UNL     1      40.029 -13.404  -2.602  1.00  0.00     0.134 C 
HETATM    8  H   UNL     1      41.682 -13.054   0.223  1.00  0.00     0.131 HD
ENDROOT
BRANCH   3   9
HETATM    9  N   UNL     1      39.625 -12.021   1.236  1.00  0.00    -0.353 N 
HETATM   10  C   UNL     1      40.509 -10.961   1.734  1.00  0.00     0.153 C 
HETATM   11  C   UNL     1      41.442 -11.532   2.823  1.00  0.00     0.256 C 
HETATM   12  N   UNL     1      40.614 -12.175   3.940  1.00  0.00    -0.056 N 
HETATM   13  H   UNL     1      39.975 -11.464   4.298  1.00  0.00     0.281 HD
HETATM   14  C   UNL     1      39.690 -13.257   3.362  1.00  0.00     0.256 C 
HETATM   15  C   UNL     1      38.781 -12.626   2.287  1.00  0.00     0.153 C 
BRANCH  12  16
HETATM   16  C   UNL     1      41.421 -12.646   5.157  1.00  0.00     0.254 C 
BRANCH  16  17
HETATM   17  C   UNL     1      41.003 -11.921   6.437  1.00  0.00    -0.023 A 
HETATM   18  C   UNL     1      41.909 -11.142   7.182  1.00  0.00     0.009 A 
HETATM   19  C   UNL     1      41.512 -10.524   8.369  1.00  0.00     0.001 A 
HETATM   20  C   UNL     1      40.206 -10.669   8.828  1.00  0.00     0.000 A 
HETATM   21  C   UNL     1      39.291 -11.423   8.098  1.00  0.00     0.001 A 
HETATM   22  C   UNL     1      39.683 -12.043   6.911  1.00  0.00     0.009 A 
ENDBRANCH  16  17
BRANCH  16  23
HETATM   23  C   UNL     1      41.560 -14.176   5.279  1.00  0.00    -0.023 A 
HETATM   24  C   UNL     1      40.611 -14.983   5.937  1.00  0.00     0.009 A 
HETATM   25  C   UNL     1      40.744 -16.376   5.976  1.00  0.00     0.001 A 
HETATM   26  C   UNL     1      41.816 -16.997   5.345  1.00  0.00     0.000 A 
HETATM   27  C   UNL     1      42.749 -16.229   4.661  1.00  0.00     0.001 A 
HETATM   28  C   UNL     1      42.614 -14.838   4.614  1.00  0.00     0.009 A 
ENDBRANCH  16  23
ENDBRANCH  12  16
ENDBRANCH   3   9
BRANCH   1  29
HETATM   29  C   UNL     1      41.332 -15.141  -1.112  1.00  0.00     0.240 C 
HETATM   30  N   UNL     1      41.928 -15.302   0.122  1.00  0.00    -0.326 N 
HETATM   31  H   UNL     1      42.413 -14.515   0.546  1.00  0.00     0.169 HD
HETATM   32  O   UNL     1      40.977 -16.063  -1.856  1.00  0.00    -0.271 OA
BRANCH  30  33
HETATM   33  C   UNL     1      42.156 -16.522   0.798  1.00  0.00     0.034 A 
HETATM   34  C   UNL     1      41.144 -17.333   1.312  1.00  0.00     0.032 A 
HETATM   35  C   UNL     1      41.458 -18.528   1.978  1.00  0.00     0.039 A 
HETATM   36  C   UNL     1      42.786 -18.924   2.126  1.00  0.00     0.068 A 
HETATM   37  C   UNL     1      43.797 -18.109   1.620  1.00  0.00     0.039 A 
HETATM   38  C   UNL     1      43.488 -16.912   0.971  1.00  0.00     0.032 A 
BRANCH  36  39
HETATM   39  O   UNL     1      43.227 -20.067   2.730  1.00  0.00    -0.352 OA
BRANCH  39  40
HETATM   40  C   UNL     1      44.498 -20.572   2.327  1.00  0.00     0.171 C 
HETATM   41  C   UNL     1      44.274 -21.917   1.658  1.00  0.00     0.034 C 
ENDBRANCH  39  40
ENDBRANCH  36  39
ENDBRANCH  30  33
ENDBRANCH   1  29
TORSDOF 8
ENDMDL
MODEL 10
REMARK VINA RESULT:      -9.0      3.954      7.094
REMARK  8 active torsions:
REMARK  status: ('A' for Active; 'I' for Inactive)
REMARK    1  A    between atoms: C_2  and  O_3 
REMARK    2  A    between atoms: O_3  and  C_4 
REMARK    3  A    between atoms: C_7  and  N_8 
REMARK       I    between atoms: N_8  and  C_9 
REMARK    4  A    between atoms: C_9  and  C_10 
REMARK    5  A    between atoms: C_12  and  N_13 
REMARK    6  A    between atoms: N_16  and  C_18 
REMARK    7  A    between atoms: C_18  and  C_19 
REMARK    8  A    between atoms: C_18  and  C_25 
ROOT
HETATM    1  C   UNL     1      40.009 -12.905  -1.417  1.00  0.00     0.164 C 
HETATM    2  N   UNL     1      40.378 -14.248  -0.936  1.00  0.00    -0.249 NA
HETATM    3  C   UNL     1      40.579 -14.411   0.404  1.00  0.00     0.181 C 
HETATM    4  N   UNL     1      40.671 -13.430   1.245  1.00  0.00    -0.185 NA
HETATM    5  C   UNL     1      40.548 -12.151   0.779  1.00  0.00     0.247 C 
HETATM    6  O   UNL     1      40.118 -11.229   1.469  1.00  0.00    -0.271 OA
HETATM    7  C   UNL     1      40.849 -11.904  -0.669  1.00  0.00     0.134 C 
HETATM    8  H   UNL     1      39.754 -14.929  -1.363  1.00  0.00     0.131 HD
ENDROOT
BRANCH   3   9
HETATM    9  N   UNL     1      40.679 -15.712   0.840  1.00  0.00    -0.353 N 
HETATM   10  C   UNL     1      40.173 -16.235   2.114  1.00  0.00     0.153 C 
HETATM   11  C   UNL     1      41.354 -16.509   3.069  1.00  0.00     0.256 C 
HETATM   12  N   UNL     1      42.357 -17.457   2.406  1.00  0.00    -0.056 N 
HETATM   13  H   UNL     1      41.853 -18.306   2.145  1.00  0.00     0.281 HD
HETATM   14  C   UNL     1      42.835 -16.875   1.067  1.00  0.00     0.256 C 
HETATM   15  C   UNL     1      41.614 -16.630   0.156  1.00  0.00     0.153 C 
BRANCH  12  16
HETATM   16  C   UNL     1      43.503 -17.928   3.312  1.00  0.00     0.254 C 
BRANCH  16  17
HETATM   17  C   UNL     1      43.315 -17.470   4.758  1.00  0.00    -0.023 A 
HETATM   18  C   UNL     1      43.914 -16.296   5.252  1.00  0.00     0.009 A 
HETATM   19  C   UNL     1      43.760 -15.922   6.588  1.00  0.00     0.001 A 
HETATM   20  C   UNL     1      43.003 -16.709   7.450  1.00  0.00     0.000 A 
HETATM   21  C   UNL     1      42.389 -17.867   6.977  1.00  0.00     0.001 A 
HETATM   22  C   UNL     1      42.541 -18.245   5.642  1.00  0.00     0.009 A 
ENDBRANCH  16  17
BRANCH  16  23
HETATM   23  C   UNL     1      43.893 -19.408   3.132  1.00  0.00    -0.023 A 
HETATM   24  C   UNL     1      44.668 -20.117   4.072  1.00  0.00     0.009 A 
HETATM   25  C   UNL     1      44.952 -21.477   3.901  1.00  0.00     0.001 A 
HETATM   26  C   UNL     1      44.456 -22.165   2.800  1.00  0.00     0.000 A 
HETATM   27  C   UNL     1      43.661 -21.499   1.875  1.00  0.00     0.001 A 
HETATM   28  C   UNL     1      43.370 -20.143   2.047  1.00  0.00     0.009 A 
ENDBRANCH  16  23
ENDBRANCH  12  16
ENDBRANCH   3   9
BRANCH   1  29
HETATM   29  C   UNL     1      38.457 -12.789  -1.323  1.00  0.00     0.240 C 
HETATM   30  N   UNL     1      37.934 -11.604  -0.850  1.00  0.00    -0.326 N 
HETATM   31  H   UNL     1      38.549 -10.936  -0.391  1.00  0.00     0.169 HD
HETATM   32  O   UNL     1      37.795 -13.789  -1.625  1.00  0.00    -0.271 OA
BRANCH  30  33
HETATM   33  C   UNL     1      36.566 -11.280  -0.711  1.00  0.00     0.034 A 
HETATM   34  C   UNL     1      35.882 -11.274   0.505  1.00  0.00     0.032 A 
HETATM   35  C   UNL     1      34.518 -10.947   0.554  1.00  0.00     0.039 A 
HETATM   36  C   UNL     1      33.830 -10.615  -0.612  1.00  0.00     0.068 A 
HETATM   37  C   UNL     1      34.512 -10.629  -1.828  1.00  0.00     0.039 A 
HETATM   38  C   UNL     1      35.865 -10.969  -1.882  1.00  0.00     0.032 A 
BRANCH  36  39
HETATM   39  O   UNL     1      32.515 -10.258  -0.702  1.00  0.00    -0.352 OA
BRANCH  39  40
HETATM   40  C   UNL     1      31.785 -10.727  -1.833  1.00  0.00     0.171 C 
HETATM   41  C   UNL     1      30.498 -11.356  -1.329  1.00  0.00     0.034 C 
ENDBRANCH  39  40
ENDBRANCH  36  39
ENDBRANCH  30  33
ENDBRANCH   1  29
TORSDOF 8
ENDMDL
