MODEL 1
REMARK VINA RESULT:      -7.7      0.000      0.000
REMARK  4 active torsions:
REMARK  status: ('A' for Active; 'I' for Inactive)
REMARK    1  A    between atoms: S_2  and  C_3 
REMARK    2  A    between atoms: C_5  and  C_6 
REMARK    3  A    between atoms: C_6  and  N_7 
REMARK       I    between atoms: N_7  and  C_8 
REMARK    4  A    between atoms: C_8  and  C_9 
ROOT
HETATM    1  N   UNL     1      42.165 -18.005   1.599  1.00  0.00    -0.353 N 
HETATM    2  C   UNL     1      43.504 -18.109   1.883  1.00  0.00     0.254 C 
HETATM    3  O   UNL     1      44.364 -17.396   1.376  1.00  0.00    -0.268 OA
HETATM    4  H   UNL     1      41.495 -18.508   2.164  1.00  0.00     0.163 HD
ENDROOT
BRANCH   2   5
HETATM    5  C   UNL     1      43.851 -19.102   2.942  1.00  0.00     0.058 A 
HETATM    6  C   UNL     1      43.744 -18.914   4.404  1.00  0.00    -0.003 A 
HETATM    7  C   UNL     1      44.186 -19.945   5.257  1.00  0.00     0.043 A 
HETATM    8  C   UNL     1      43.179 -17.773   4.993  1.00  0.00     0.013 A 
HETATM    9  C   UNL     1      44.107 -19.821   6.651  1.00  0.00     0.018 A 
HETATM   10  C   UNL     1      44.715 -21.208   4.675  1.00  0.00     0.256 A 
HETATM   11  C   UNL     1      43.570 -18.667   7.213  1.00  0.00     0.001 A 
HETATM   12  C   UNL     1      43.102 -17.648   6.385  1.00  0.00     0.001 A 
HETATM   13  O   UNL     1      45.117 -22.130   5.374  1.00  0.00    -0.267 OA
HETATM   14  N   UNL     1      44.718 -21.284   3.302  1.00  0.00    -0.332 N 
HETATM   15  C   UNL     1      44.308 -20.274   2.471  1.00  0.00     0.109 A 
HETATM   16  H   UNL     1      45.061 -22.155   2.911  1.00  0.00     0.168 HD
ENDBRANCH   2   5
BRANCH   1  17
HETATM   17  C   UNL     1      41.665 -16.941   0.754  1.00  0.00     0.161 C 
BRANCH  17  18
HETATM   18  C   UNL     1      40.857 -15.925   1.520  1.00  0.00    -0.039 A 
HETATM   19  C   UNL     1      40.947 -15.864   2.921  1.00  0.00     0.027 A 
HETATM   20  C   UNL     1      40.275 -14.873   3.651  1.00  0.00     0.000 A 
HETATM   21  C   UNL     1      39.517 -13.924   2.964  1.00  0.00     0.018 A 
HETATM   22  C   UNL     1      39.421 -13.969   1.571  1.00  0.00     0.002 A 
HETATM   23  C   UNL     1      40.094 -14.958   0.854  1.00  0.00     0.009 A 
BRANCH  20  24
HETATM   24  S   UNL     1      40.509 -14.847   5.424  1.00  0.00    -0.134 SA
HETATM   25  C   UNL     1      42.160 -14.113   5.570  1.00  0.00     0.095 C 
ENDBRANCH  20  24
ENDBRANCH  17  18
ENDBRANCH   1  17
TORSDOF 4
ENDMDL
MODEL 2
REMARK VINA RESULT:      -7.7      2.159      3.513
REMARK  4 active torsions:
REMARK  status: ('A' for Active; 'I' for Inactive)
REMARK    1  A    between atoms: S_2  and  C_3 
REMARK    2  A    between atoms: C_5  and  C_6 
REMARK    3  A    between atoms: C_6  and  N_7 
REMARK       I    between atoms: N_7  and  C_8 
REMARK    4  A    between atoms: C_8  and  C_9 
ROOT
HETATM    1  N   UNL     1      42.248 -17.788   1.644  1.00  0.00    -0.353 N 
HETATM    2  C   UNL     1      43.570 -17.853   2.005  1.00  0.00     0.254 C 
HETATM    3  O   UNL     1      44.478 -17.345   1.355  1.00  0.00    -0.268 OA
HETATM    4  H   UNL     1      41.538 -18.086   2.300  1.00  0.00     0.163 HD
ENDROOT
BRANCH   2   5
HETATM    5  C   UNL     1      43.838 -18.514   3.316  1.00  0.00     0.058 A 
HETATM    6  C   UNL     1      44.136 -19.943   3.544  1.00  0.00    -0.003 A 
HETATM    7  C   UNL     1      44.294 -20.403   4.867  1.00  0.00     0.043 A 
HETATM    8  C   UNL     1      44.319 -20.866   2.504  1.00  0.00     0.013 A 
HETATM    9  C   UNL     1      44.579 -21.747   5.142  1.00  0.00     0.018 A 
HETATM   10  C   UNL     1      44.192 -19.442   5.998  1.00  0.00     0.256 A 
HETATM   11  C   UNL     1      44.726 -22.651   4.093  1.00  0.00     0.001 A 
HETATM   12  C   UNL     1      44.602 -22.209   2.778  1.00  0.00     0.001 A 
HETATM   13  O   UNL     1      44.315 -19.794   7.166  1.00  0.00    -0.267 OA
HETATM   14  N   UNL     1      43.961 -18.130   5.657  1.00  0.00    -0.332 N 
HETATM   15  C   UNL     1      43.787 -17.685   4.372  1.00  0.00     0.109 A 
HETATM   16  H   UNL     1      43.912 -17.477   6.431  1.00  0.00     0.168 HD
ENDBRANCH   2   5
BRANCH   1  17
HETATM   17  C   UNL     1      41.824 -16.993   0.511  1.00  0.00     0.161 C 
BRANCH  17  18
HETATM   18  C   UNL     1      40.909 -15.863   0.907  1.00  0.00    -0.039 A 
HETATM   19  C   UNL     1      40.474 -14.937  -0.057  1.00  0.00     0.027 A 
HETATM   20  C   UNL     1      39.555 -13.928   0.265  1.00  0.00     0.000 A 
HETATM   21  C   UNL     1      39.053 -13.861   1.566  1.00  0.00     0.018 A 
HETATM   22  C   UNL     1      39.471 -14.777   2.534  1.00  0.00     0.002 A 
HETATM   23  C   UNL     1      40.386 -15.776   2.204  1.00  0.00     0.009 A 
BRANCH  20  24
HETATM   24  S   UNL     1      39.021 -12.842  -1.051  1.00  0.00    -0.134 SA
HETATM   25  C   UNL     1      38.558 -14.025  -2.345  1.00  0.00     0.095 C 
ENDBRANCH  20  24
ENDBRANCH  17  18
ENDBRANCH   1  17
TORSDOF 4
ENDMDL
MODEL 3
REMARK VINA RESULT:      -7.6      1.360      2.470
REMARK  4 active torsions:
REMARK  status: ('A' for Active; 'I' for Inactive)
REMARK    1  A    between atoms: S_2  and  C_3 
REMARK    2  A    between atoms: C_5  and  C_6 
REMARK    3  A    between atoms: C_6  and  N_7 
REMARK       I    between atoms: N_7  and  C_8 
REMARK    4  A    between atoms: C_8  and  C_9 
ROOT
HETATM    1  N   UNL     1      42.146 -17.659   1.701  1.00  0.00    -0.353 N 
HETATM    2  C   UNL     1      43.479 -17.766   2.010  1.00  0.00     0.254 C 
HETATM    3  O   UNL     1      44.374 -17.247   1.350  1.00  0.00    -0.268 OA
HETATM    4  H   UNL     1      41.454 -17.972   2.368  1.00  0.00     0.163 HD
ENDROOT
BRANCH   2   5
HETATM    5  C   UNL     1      43.779 -18.490   3.280  1.00  0.00     0.058 A 
HETATM    6  C   UNL     1      44.096 -19.926   3.429  1.00  0.00    -0.003 A 
HETATM    7  C   UNL     1      44.284 -20.451   4.723  1.00  0.00     0.043 A 
HETATM    8  C   UNL     1      44.265 -20.793   2.339  1.00  0.00     0.013 A 
HETATM    9  C   UNL     1      44.587 -21.804   4.923  1.00  0.00     0.018 A 
HETATM   10  C   UNL     1      44.197 -19.550   5.904  1.00  0.00     0.256 A 
HETATM   11  C   UNL     1      44.721 -22.652   3.827  1.00  0.00     0.001 A 
HETATM   12  C   UNL     1      44.566 -22.145   2.539  1.00  0.00     0.001 A 
HETATM   13  O   UNL     1      44.346 -19.960   7.049  1.00  0.00    -0.267 OA
HETATM   14  N   UNL     1      43.947 -18.225   5.634  1.00  0.00    -0.332 N 
HETATM   15  C   UNL     1      43.743 -17.717   4.378  1.00  0.00     0.109 A 
HETATM   16  H   UNL     1      43.907 -17.613   6.442  1.00  0.00     0.168 HD
ENDBRANCH   2   5
BRANCH   1  17
HETATM   17  C   UNL     1      41.699 -16.806   0.620  1.00  0.00     0.161 C 
BRANCH  17  18
HETATM   18  C   UNL     1      40.833 -15.670   1.100  1.00  0.00    -0.039 A 
HETATM   19  C   UNL     1      40.669 -15.442   2.477  1.00  0.00     0.027 A 
HETATM   20  C   UNL     1      39.941 -14.341   2.952  1.00  0.00     0.000 A 
HETATM   21  C   UNL     1      39.386 -13.450   2.031  1.00  0.00     0.018 A 
HETATM   22  C   UNL     1      39.545 -13.660   0.659  1.00  0.00     0.002 A 
HETATM   23  C   UNL     1      40.271 -14.759   0.198  1.00  0.00     0.009 A 
BRANCH  20  24
HETATM   24  S   UNL     1      39.847 -14.109   4.722  1.00  0.00    -0.134 SA
HETATM   25  C   UNL     1      41.126 -15.248   5.315  1.00  0.00     0.095 C 
ENDBRANCH  20  24
ENDBRANCH  17  18
ENDBRANCH   1  17
TORSDOF 4
ENDMDL
MODEL 4
REMARK VINA RESULT:      -7.6      4.717      7.173
REMARK  4 active torsions:
REMARK  status: ('A' for Active; 'I' for Inactive)
REMARK    1  A    between atoms: S_2  and  C_3 
REMARK    2  A    between atoms: C_5  and  C_6 
REMARK    3  A    between atoms: C_6  and  N_7 
REMARK       I    between atoms: N_7  and  C_8 
REMARK    4  A    between atoms: C_8  and  C_9 
ROOT
HETATM    1  N   UNL     1      44.186 -13.278   8.014  1.00  0.00    -0.353 N 
HETATM    2  C   UNL     1      44.661 -13.795   6.834  1.00  0.00     0.254 C 
HETATM    3  O   UNL     1      45.789 -13.576   6.402  1.00  0.00    -0.268 OA
HETATM    4  H   UNL     1      43.313 -13.622   8.392  1.00  0.00     0.163 HD
ENDROOT
BRANCH   2   5
HETATM    5  C   UNL     1      43.738 -14.736   6.137  1.00  0.00     0.058 A 
HETATM    6  C   UNL     1      43.855 -16.208   6.070  1.00  0.00    -0.003 A 
HETATM    7  C   UNL     1      42.921 -16.932   5.302  1.00  0.00     0.043 A 
HETATM    8  C   UNL     1      44.829 -16.934   6.772  1.00  0.00     0.013 A 
HETATM    9  C   UNL     1      42.985 -18.328   5.204  1.00  0.00     0.018 A 
HETATM   10  C   UNL     1      41.821 -16.211   4.608  1.00  0.00     0.256 A 
HETATM   11  C   UNL     1      43.978 -19.025   5.887  1.00  0.00     0.001 A 
HETATM   12  C   UNL     1      44.894 -18.329   6.673  1.00  0.00     0.001 A 
HETATM   13  O   UNL     1      40.988 -16.794   3.924  1.00  0.00    -0.267 OA
HETATM   14  N   UNL     1      41.786 -14.847   4.786  1.00  0.00    -0.332 N 
HETATM   15  C   UNL     1      42.706 -14.140   5.515  1.00  0.00     0.109 A 
HETATM   16  H   UNL     1      41.023 -14.364   4.326  1.00  0.00     0.168 HD
ENDBRANCH   2   5
BRANCH   1  17
HETATM   17  C   UNL     1      45.049 -12.525   8.898  1.00  0.00     0.161 C 
BRANCH  17  18
HETATM   18  C   UNL     1      44.299 -11.487   9.693  1.00  0.00    -0.039 A 
HETATM   19  C   UNL     1      43.100 -10.950   9.196  1.00  0.00     0.027 A 
HETATM   20  C   UNL     1      42.336 -10.049   9.953  1.00  0.00     0.000 A 
HETATM   21  C   UNL     1      42.776  -9.698  11.231  1.00  0.00     0.018 A 
HETATM   22  C   UNL     1      43.964 -10.228  11.741  1.00  0.00     0.002 A 
HETATM   23  C   UNL     1      44.716 -11.123  10.979  1.00  0.00     0.009 A 
BRANCH  20  24
HETATM   24  S   UNL     1      40.795  -9.475   9.253  1.00  0.00    -0.134 SA
HETATM   25  C   UNL     1      39.742 -10.942   9.418  1.00  0.00     0.095 C 
ENDBRANCH  20  24
ENDBRANCH  17  18
ENDBRANCH   1  17
TORSDOF 4
ENDMDL
MODEL 5
REMARK VINA RESULT:      -7.4      2.328      3.732
REMARK  4 active torsions:
REMARK  status: ('A' for Active; 'I' for Inactive)
REMARK    1  A    between atoms: S_2  and  C_3 
REMARK    2  A    between atoms: C_5  and  C_6 
REMARK    3  A    between atoms: C_6  and  N_7 
REMARK       I    between atoms: N_7  and  C_8 
REMARK    4  A    between atoms: C_8  and  C_9 
ROOT
HETATM    1  N   UNL     1      40.470 -16.673   2.684  1.00  0.00    -0.353 N 
HETATM    2  C   UNL     1      41.746 -16.856   2.210  1.00  0.00     0.254 C 
HETATM    3  O   UNL     1      42.126 -16.461   1.113  1.00  0.00    -0.268 OA
HETATM    4  H   UNL     1      40.265 -16.878   3.653  1.00  0.00     0.163 HD
ENDROOT
BRANCH   2   5
HETATM    5  C   UNL     1      42.692 -17.496   3.170  1.00  0.00     0.058 A 
HETATM    6  C   UNL     1      43.295 -18.840   3.058  1.00  0.00    -0.003 A 
HETATM    7  C   UNL     1      44.118 -19.307   4.102  1.00  0.00     0.043 A 
HETATM    8  C   UNL     1      43.128 -19.667   1.936  1.00  0.00     0.013 A 
HETATM    9  C   UNL     1      44.716 -20.573   4.048  1.00  0.00     0.018 A 
HETATM   10  C   UNL     1      44.392 -18.431   5.272  1.00  0.00     0.256 A 
HETATM   11  C   UNL     1      44.512 -21.388   2.937  1.00  0.00     0.001 A 
HETATM   12  C   UNL     1      43.724 -20.932   1.882  1.00  0.00     0.001 A 
HETATM   13  O   UNL     1      45.095 -18.793   6.208  1.00  0.00    -0.267 OA
HETATM   14  N   UNL     1      43.815 -17.183   5.239  1.00  0.00    -0.332 N 
HETATM   15  C   UNL     1      42.998 -16.736   4.234  1.00  0.00     0.109 A 
HETATM   16  H   UNL     1      44.021 -16.583   6.031  1.00  0.00     0.168 HD
ENDBRANCH   2   5
BRANCH   1  17
HETATM   17  C   UNL     1      39.510 -15.879   1.948  1.00  0.00     0.161 C 
BRANCH  17  18
HETATM   18  C   UNL     1      39.401 -14.470   2.473  1.00  0.00    -0.039 A 
HETATM   19  C   UNL     1      38.700 -13.497   1.740  1.00  0.00     0.027 A 
HETATM   20  C   UNL     1      38.509 -12.203   2.245  1.00  0.00     0.000 A 
HETATM   21  C   UNL     1      39.012 -11.889   3.508  1.00  0.00     0.018 A 
HETATM   22  C   UNL     1      39.707 -12.847   4.252  1.00  0.00     0.002 A 
HETATM   23  C   UNL     1      39.892 -14.131   3.740  1.00  0.00     0.009 A 
BRANCH  20  24
HETATM   24  S   UNL     1      37.549 -11.061   1.259  1.00  0.00    -0.134 SA
HETATM   25  C   UNL     1      38.116 -11.451  -0.418  1.00  0.00     0.095 C 
ENDBRANCH  20  24
ENDBRANCH  17  18
ENDBRANCH   1  17
TORSDOF 4
ENDMDL
MODEL 6
REMARK VINA RESULT:      -7.3      1.783      2.523
REMARK  4 active torsions:
REMARK  status: ('A' for Active; 'I' for Inactive)
REMARK    1  A    between atoms: S_2  and  C_3 
REMARK    2  A    between atoms: C_5  and  C_6 
REMARK    3  A    between atoms: C_6  and  N_7 
REMARK       I    between atoms: N_7  and  C_8 
REMARK    4  A    between atoms: C_8  and  C_9 
ROOT
HETATM    1  N   UNL     1      42.491 -17.644   1.229  1.00  0.00    -0.353 N 
HETATM    2  C   UNL     1      43.767 -17.728   1.727  1.00  0.00     0.254 C 
HETATM    3  O   UNL     1      44.701 -17.041   1.323  1.00  0.00    -0.268 OA
HETATM    4  H   UNL     1      41.737 -18.118   1.708  1.00  0.00     0.163 HD
ENDROOT
BRANCH   2   5
HETATM    5  C   UNL     1      43.938 -18.659   2.880  1.00  0.00     0.058 A 
HETATM    6  C   UNL     1      43.661 -18.370   4.302  1.00  0.00    -0.003 A 
HETATM    7  C   UNL     1      43.949 -19.356   5.267  1.00  0.00     0.043 A 
HETATM    8  C   UNL     1      43.079 -17.172   4.744  1.00  0.00     0.013 A 
HETATM    9  C   UNL     1      43.706 -19.136   6.629  1.00  0.00     0.018 A 
HETATM   10  C   UNL     1      44.488 -20.673   4.835  1.00  0.00     0.256 A 
HETATM   11  C   UNL     1      43.155 -17.928   7.047  1.00  0.00     0.001 A 
HETATM   12  C   UNL     1      42.837 -16.951   6.105  1.00  0.00     0.001 A 
HETATM   13  O   UNL     1      44.760 -21.561   5.635  1.00  0.00    -0.267 OA
HETATM   14  N   UNL     1      44.656 -20.842   3.480  1.00  0.00    -0.332 N 
HETATM   15  C   UNL     1      44.396 -19.876   2.543  1.00  0.00     0.109 A 
HETATM   16  H   UNL     1      45.006 -21.749   3.191  1.00  0.00     0.168 HD
ENDBRANCH   2   5
BRANCH   1  17
HETATM   17  C   UNL     1      42.136 -16.631   0.258  1.00  0.00     0.161 C 
BRANCH  17  18
HETATM   18  C   UNL     1      40.956 -15.800   0.693  1.00  0.00    -0.039 A 
HETATM   19  C   UNL     1      40.477 -14.768  -0.132  1.00  0.00     0.027 A 
HETATM   20  C   UNL     1      39.329 -14.038   0.207  1.00  0.00     0.000 A 
HETATM   21  C   UNL     1      38.644 -14.362   1.379  1.00  0.00     0.018 A 
HETATM   22  C   UNL     1      39.104 -15.389   2.207  1.00  0.00     0.002 A 
HETATM   23  C   UNL     1      40.248 -16.108   1.861  1.00  0.00     0.009 A 
BRANCH  20  24
HETATM   24  S   UNL     1      38.771 -12.789  -0.944  1.00  0.00    -0.134 SA
HETATM   25  C   UNL     1      37.335 -12.099  -0.077  1.00  0.00     0.095 C 
ENDBRANCH  20  24
ENDBRANCH  17  18
ENDBRANCH   1  17
TORSDOF 4
ENDMDL
MODEL 7
REMARK VINA RESULT:      -7.3      2.552      3.874
REMARK  4 active torsions:
REMARK  status: ('A' for Active; 'I' for Inactive)
REMARK    1  A    between atoms: S_2  and  C_3 
REMARK    2  A    between atoms: C_5  and  C_6 
REMARK    3  A    between atoms: C_6  and  N_7 
REMARK       I    between atoms: N_7  and  C_8 
REMARK    4  A    between atoms: C_8  and  C_9 
ROOT
HETATM    1  N   UNL     1      40.969 -16.446   3.988  1.00  0.00    -0.353 N 
HETATM    2  C   UNL     1      42.144 -16.142   4.629  1.00  0.00     0.254 C 
HETATM    3  O   UNL     1      42.667 -15.033   4.599  1.00  0.00    -0.268 OA
HETATM    4  H   UNL     1      40.510 -17.326   4.180  1.00  0.00     0.163 HD
ENDROOT
BRANCH   2   5
HETATM    5  C   UNL     1      42.714 -17.241   5.462  1.00  0.00     0.058 A 
HETATM    6  C   UNL     1      43.412 -18.451   4.978  1.00  0.00    -0.003 A 
HETATM    7  C   UNL     1      43.823 -19.420   5.915  1.00  0.00     0.043 A 
HETATM    8  C   UNL     1      43.730 -18.667   3.629  1.00  0.00     0.013 A 
HETATM    9  C   UNL     1      44.489 -20.586   5.512  1.00  0.00     0.018 A 
HETATM   10  C   UNL     1      43.581 -19.193   7.365  1.00  0.00     0.256 A 
HETATM   11  C   UNL     1      44.768 -20.792   4.164  1.00  0.00     0.001 A 
HETATM   12  C   UNL     1      44.394 -19.831   3.226  1.00  0.00     0.001 A 
HETATM   13  O   UNL     1      43.914 -20.009   8.217  1.00  0.00    -0.267 OA
HETATM   14  N   UNL     1      42.968 -18.007   7.696  1.00  0.00    -0.332 N 
HETATM   15  C   UNL     1      42.549 -17.074   6.785  1.00  0.00     0.109 A 
HETATM   16  H   UNL     1      42.824 -17.850   8.687  1.00  0.00     0.168 HD
ENDBRANCH   2   5
BRANCH   1  17
HETATM   17  C   UNL     1      40.197 -15.419   3.322  1.00  0.00     0.161 C 
BRANCH  17  18
HETATM   18  C   UNL     1      40.417 -15.405   1.831  1.00  0.00    -0.039 A 
HETATM   19  C   UNL     1      39.941 -14.333   1.058  1.00  0.00     0.027 A 
HETATM   20  C   UNL     1      40.206 -14.251  -0.317  1.00  0.00     0.000 A 
HETATM   21  C   UNL     1      40.974 -15.250  -0.917  1.00  0.00     0.018 A 
HETATM   22  C   UNL     1      41.459 -16.320  -0.161  1.00  0.00     0.002 A 
HETATM   23  C   UNL     1      41.189 -16.392   1.205  1.00  0.00     0.009 A 
BRANCH  20  24
HETATM   24  S   UNL     1      39.607 -12.812  -1.194  1.00  0.00    -0.134 SA
HETATM   25  C   UNL     1      39.089 -11.735   0.170  1.00  0.00     0.095 C 
ENDBRANCH  20  24
ENDBRANCH  17  18
ENDBRANCH   1  17
TORSDOF 4
ENDMDL
MODEL 8
REMARK VINA RESULT:      -7.1      6.899      9.929
REMARK  4 active torsions:
REMARK  status: ('A' for Active; 'I' for Inactive)
REMARK    1  A    between atoms: S_2  and  C_3 
REMARK    2  A    between atoms: C_5  and  C_6 
REMARK    3  A    between atoms: C_6  and  N_7 
REMARK       I    between atoms: N_7  and  C_8 
REMARK    4  A    between atoms: C_8  and  C_9 
ROOT
HETATM    1  N   UNL     1      43.870 -12.561   8.591  1.00  0.00    -0.353 N 
HETATM    2  C   UNL     1      44.209 -11.350   9.141  1.00  0.00     0.254 C 
HETATM    3  O   UNL     1      45.357 -10.919   9.184  1.00  0.00    -0.268 OA
HETATM    4  H   UNL     1      42.896 -12.787   8.443  1.00  0.00     0.163 HD
ENDROOT
BRANCH   2   5
HETATM    5  C   UNL     1      43.058 -10.526   9.613  1.00  0.00     0.058 A 
HETATM    6  C   UNL     1      42.836 -10.012  10.981  1.00  0.00    -0.003 A 
HETATM    7  C   UNL     1      41.649  -9.305  11.259  1.00  0.00     0.043 A 
HETATM    8  C   UNL     1      43.772 -10.153  12.016  1.00  0.00     0.013 A 
HETATM    9  C   UNL     1      41.388  -8.795  12.538  1.00  0.00     0.018 A 
HETATM   10  C   UNL     1      40.666  -9.059  10.170  1.00  0.00     0.256 A 
HETATM   11  C   UNL     1      42.319  -8.973  13.557  1.00  0.00     0.001 A 
HETATM   12  C   UNL     1      43.511  -9.645  13.294  1.00  0.00     0.001 A 
HETATM   13  O   UNL     1      39.617  -8.455  10.363  1.00  0.00    -0.267 OA
HETATM   14  N   UNL     1      41.007  -9.541   8.928  1.00  0.00    -0.332 N 
HETATM   15  C   UNL     1      42.151 -10.248   8.661  1.00  0.00     0.109 A 
HETATM   16  H   UNL     1      40.342  -9.354   8.186  1.00  0.00     0.168 HD
ENDBRANCH   2   5
BRANCH   1  17
HETATM   17  C   UNL     1      44.857 -13.367   7.903  1.00  0.00     0.161 C 
BRANCH  17  18
HETATM   18  C   UNL     1      44.243 -14.274   6.867  1.00  0.00    -0.039 A 
HETATM   19  C   UNL     1      44.537 -15.648   6.870  1.00  0.00     0.027 A 
HETATM   20  C   UNL     1      43.913 -16.528   5.974  1.00  0.00     0.000 A 
HETATM   21  C   UNL     1      42.970 -16.023   5.077  1.00  0.00     0.018 A 
HETATM   22  C   UNL     1      42.662 -14.660   5.066  1.00  0.00     0.002 A 
HETATM   23  C   UNL     1      43.289 -13.793   5.961  1.00  0.00     0.009 A 
BRANCH  20  24
HETATM   24  S   UNL     1      44.312 -18.266   6.104  1.00  0.00    -0.134 SA
HETATM   25  C   UNL     1      43.830 -18.631   7.813  1.00  0.00     0.095 C 
ENDBRANCH  20  24
ENDBRANCH  17  18
ENDBRANCH   1  17
TORSDOF 4
ENDMDL
MODEL 9
REMARK VINA RESULT:      -7.1      3.519      5.162
REMARK  4 active torsions:
REMARK  status: ('A' for Active; 'I' for Inactive)
REMARK    1  A    between atoms: S_2  and  C_3 
REMARK    2  A    between atoms: C_5  and  C_6 
REMARK    3  A    between atoms: C_6  and  N_7 
REMARK       I    between atoms: N_7  and  C_8 
REMARK    4  A    between atoms: C_8  and  C_9 
ROOT
HETATM    1  N   UNL     1      41.378 -14.634   1.646  1.00  0.00    -0.353 N 
HETATM    2  C   UNL     1      42.487 -14.320   2.391  1.00  0.00     0.254 C 
HETATM    3  O   UNL     1      43.052 -13.232   2.343  1.00  0.00    -0.268 OA
HETATM    4  H   UNL     1      40.868 -15.484   1.847  1.00  0.00     0.163 HD
ENDROOT
BRANCH   2   5
HETATM    5  C   UNL     1      42.921 -15.372   3.356  1.00  0.00     0.058 A 
HETATM    6  C   UNL     1      43.318 -16.759   3.037  1.00  0.00    -0.003 A 
HETATM    7  C   UNL     1      43.633 -17.638   4.093  1.00  0.00     0.043 A 
HETATM    8  C   UNL     1      43.443 -17.240   1.725  1.00  0.00     0.013 A 
HETATM    9  C   UNL     1      44.016 -18.963   3.848  1.00  0.00     0.018 A 
HETATM   10  C   UNL     1      43.595 -17.146   5.496  1.00  0.00     0.256 A 
HETATM   11  C   UNL     1      44.105 -19.427   2.538  1.00  0.00     0.001 A 
HETATM   12  C   UNL     1      43.825 -18.565   1.480  1.00  0.00     0.001 A 
HETATM   13  O   UNL     1      43.854 -17.872   6.449  1.00  0.00    -0.267 OA
HETATM   14  N   UNL     1      43.261 -15.823   5.664  1.00  0.00    -0.332 N 
HETATM   15  C   UNL     1      42.934 -14.973   4.639  1.00  0.00     0.109 A 
HETATM   16  H   UNL     1      43.255 -15.489   6.621  1.00  0.00     0.168 HD
ENDBRANCH   2   5
BRANCH   1  17
HETATM   17  C   UNL     1      40.723 -13.635   0.830  1.00  0.00     0.161 C 
BRANCH  17  18
HETATM   18  C   UNL     1      41.046 -13.782  -0.635  1.00  0.00    -0.039 A 
HETATM   19  C   UNL     1      40.280 -14.640  -1.443  1.00  0.00     0.027 A 
HETATM   20  C   UNL     1      40.503 -14.730  -2.825  1.00  0.00     0.000 A 
HETATM   21  C   UNL     1      41.494 -13.936  -3.403  1.00  0.00     0.018 A 
HETATM   22  C   UNL     1      42.260 -13.074  -2.614  1.00  0.00     0.002 A 
HETATM   23  C   UNL     1      42.031 -12.992  -1.240  1.00  0.00     0.009 A 
BRANCH  20  24
HETATM   24  S   UNL     1      39.431 -15.806  -3.769  1.00  0.00    -0.134 SA
HETATM   25  C   UNL     1      37.831 -14.967  -3.612  1.00  0.00     0.095 C 
ENDBRANCH  20  24
ENDBRANCH  17  18
ENDBRANCH   1  17
TORSDOF 4
ENDMDL
MODEL 10
REMARK VINA RESULT:      -7.1      1.909      2.745
REMARK  4 active torsions:
REMARK  status: ('A' for Active; 'I' for Inactive)
REMARK    1  A    between atoms: S_2  and  C_3 
REMARK    2  A    between atoms: C_5  and  C_6 
REMARK    3  A    between atoms: C_6  and  N_7 
REMARK       I    between atoms: N_7  and  C_8 
REMARK    4  A    between atoms: C_8  and  C_9 
ROOT
HETATM    1  N   UNL     1      40.729 -16.697   2.614  1.00  0.00    -0.353 N 
HETATM    2  C   UNL     1      41.996 -16.817   2.100  1.00  0.00     0.254 C 
HETATM    3  O   UNL     1      42.490 -16.015   1.315  1.00  0.00    -0.268 OA
HETATM    4  H   UNL     1      40.440 -17.299   3.374  1.00  0.00     0.163 HD
ENDROOT
BRANCH   2   5
HETATM    5  C   UNL     1      42.791 -17.959   2.638  1.00  0.00     0.058 A 
HETATM    6  C   UNL     1      43.487 -18.021   3.940  1.00  0.00    -0.003 A 
HETATM    7  C   UNL     1      44.252 -19.163   4.251  1.00  0.00     0.043 A 
HETATM    8  C   UNL     1      43.389 -17.014   4.912  1.00  0.00     0.013 A 
HETATM    9  C   UNL     1      44.932 -19.275   5.471  1.00  0.00     0.018 A 
HETATM   10  C   UNL     1      44.316 -20.292   3.284  1.00  0.00     0.256 A 
HETATM   11  C   UNL     1      44.843 -18.249   6.408  1.00  0.00     0.001 A 
HETATM   12  C   UNL     1      44.069 -17.125   6.131  1.00  0.00     0.001 A 
HETATM   13  O   UNL     1      44.973 -21.303   3.505  1.00  0.00    -0.267 OA
HETATM   14  N   UNL     1      43.587 -20.139   2.129  1.00  0.00    -0.332 N 
HETATM   15  C   UNL     1      42.859 -19.021   1.817  1.00  0.00     0.109 A 
HETATM   16  H   UNL     1      43.619 -20.921   1.483  1.00  0.00     0.168 HD
ENDBRANCH   2   5
BRANCH   1  17
HETATM   17  C   UNL     1      39.926 -15.523   2.347  1.00  0.00     0.161 C 
BRANCH  17  18
HETATM   18  C   UNL     1      39.941 -14.539   3.489  1.00  0.00    -0.039 A 
HETATM   19  C   UNL     1      39.472 -13.228   3.296  1.00  0.00     0.027 A 
HETATM   20  C   UNL     1      39.393 -12.319   4.361  1.00  0.00     0.000 A 
HETATM   21  C   UNL     1      39.773 -12.739   5.637  1.00  0.00     0.018 A 
HETATM   22  C   UNL     1      40.236 -14.041   5.846  1.00  0.00     0.002 A 
HETATM   23  C   UNL     1      40.311 -14.937   4.780  1.00  0.00     0.009 A 
BRANCH  20  24
HETATM   24  S   UNL     1      38.724 -10.697   4.019  1.00  0.00    -0.134 SA
HETATM   25  C   UNL     1      38.669 -10.692   2.207  1.00  0.00     0.095 C 
ENDBRANCH  20  24
ENDBRANCH  17  18
ENDBRANCH   1  17
TORSDOF 4
ENDMDL
