MODEL 1
REMARK VINA RESULT:      -8.5      0.000      0.000
REMARK  4 active torsions:
REMARK  status: ('A' for Active; 'I' for Inactive)
REMARK    1  A    between atoms: C_3  and  N_4 
REMARK    2  A    between atoms: N_4  and  C_5 
REMARK    3  A    between atoms: C_5  and  C_6 
REMARK    4  A    between atoms: C_8  and  C_9 
REMARK       I    between atoms: C_9  and  N_10 
ROOT
HETATM    1  N   UNL     1      43.599 -16.518   3.798  1.00  0.00    -0.372 N 
HETATM    2  H   UNL     1      43.681 -15.881   3.006  1.00  0.00     0.161 HD
ENDROOT
BRANCH   1   3
HETATM    3  C   UNL     1      43.746 -17.849   3.468  1.00  0.00     0.107 A 
HETATM    4  C   UNL     1      43.579 -18.299   2.144  1.00  0.00    -0.017 A 
HETATM    5  C   UNL     1      43.203 -17.388   1.006  1.00  0.00     0.052 C 
HETATM    6  C   UNL     1      43.783 -19.656   1.852  1.00  0.00     0.024 A 
HETATM    7  C   UNL     1      44.157 -20.548   2.857  1.00  0.00    -0.009 A 
HETATM    8  C   UNL     1      44.310 -20.053   4.166  1.00  0.00     0.043 A 
HETATM    9  C   UNL     1      44.384 -21.911   2.609  1.00  0.00     0.014 A 
HETATM   10  N   UNL     1      44.105 -18.746   4.398  1.00  0.00    -0.342 N 
HETATM   11  C   UNL     1      44.672 -20.917   5.208  1.00  0.00     0.030 A 
HETATM   12  H   UNL     1      44.190 -18.421   5.352  1.00  0.00     0.167 HD
HETATM   13  C   UNL     1      44.894 -22.269   4.946  1.00  0.00     0.002 A 
HETATM   14  C   UNL     1      44.753 -22.763   3.651  1.00  0.00     0.001 A 
ENDBRANCH   1   3
BRANCH   1  15
HETATM   15  C   UNL     1      42.819 -15.984   4.903  1.00  0.00     0.160 C 
BRANCH  15  16
HETATM   16  C   UNL     1      41.708 -15.064   4.458  1.00  0.00    -0.040 A 
HETATM   17  C   UNL     1      40.982 -14.291   5.376  1.00  0.00     0.026 A 
HETATM   18  C   UNL     1      39.932 -13.463   4.950  1.00  0.00     0.032 A 
HETATM   19  C   UNL     1      39.602 -13.401   3.594  1.00  0.00     0.017 A 
HETATM   20  C   UNL     1      40.305 -14.180   2.675  1.00  0.00     0.002 A 
HETATM   21  C   UNL     1      41.344 -15.010   3.103  1.00  0.00     0.009 A 
BRANCH  18  22
HETATM   22  C   UNL     1      39.234 -12.647   5.974  1.00  0.00     0.249 C 
HETATM   23  N   UNL     1      39.338 -13.039   7.276  1.00  0.00    -0.366 N 
HETATM   24  H   UNL     1      40.014 -13.716   7.601  1.00  0.00     0.159 HD
HETATM   25  H   UNL     1      38.941 -12.418   7.972  1.00  0.00     0.159 HD
HETATM   26  O   UNL     1      38.611 -11.645   5.645  1.00  0.00    -0.268 OA
ENDBRANCH  18  22
ENDBRANCH  15  16
ENDBRANCH   1  15
TORSDOF 4
ENDMDL
MODEL 2
REMARK VINA RESULT:      -8.4      4.207      8.413
REMARK  4 active torsions:
REMARK  status: ('A' for Active; 'I' for Inactive)
REMARK    1  A    between atoms: C_3  and  N_4 
REMARK    2  A    between atoms: N_4  and  C_5 
REMARK    3  A    between atoms: C_5  and  C_6 
REMARK    4  A    between atoms: C_8  and  C_9 
REMARK       I    between atoms: C_9  and  N_10 
ROOT
HETATM    1  N   UNL     1      41.957 -17.508   1.104  1.00  0.00    -0.372 N 
HETATM    2  H   UNL     1      41.426 -18.379   1.112  1.00  0.00     0.161 HD
ENDROOT
BRANCH   1   3
HETATM    3  C   UNL     1      41.310 -16.460   0.486  1.00  0.00     0.107 A 
HETATM    4  C   UNL     1      40.555 -15.527   1.223  1.00  0.00    -0.017 A 
HETATM    5  C   UNL     1      40.368 -15.615   2.715  1.00  0.00     0.052 C 
HETATM    6  C   UNL     1      39.952 -14.452   0.554  1.00  0.00     0.024 A 
HETATM    7  C   UNL     1      40.106 -14.301  -0.825  1.00  0.00    -0.009 A 
HETATM    8  C   UNL     1      40.868 -15.258  -1.520  1.00  0.00     0.043 A 
HETATM    9  C   UNL     1      39.532 -13.235  -1.534  1.00  0.00     0.014 A 
HETATM   10  N   UNL     1      41.428 -16.270  -0.837  1.00  0.00    -0.342 N 
HETATM   11  C   UNL     1      41.038 -15.151  -2.907  1.00  0.00     0.030 A 
HETATM   12  H   UNL     1      41.944 -16.962  -1.363  1.00  0.00     0.167 HD
HETATM   13  C   UNL     1      40.461 -14.086  -3.599  1.00  0.00     0.002 A 
HETATM   14  C   UNL     1      39.713 -13.130  -2.914  1.00  0.00     0.001 A 
ENDBRANCH   1   3
BRANCH   1  15
HETATM   15  C   UNL     1      43.396 -17.697   1.205  1.00  0.00     0.160 C 
BRANCH  15  16
HETATM   16  C   UNL     1      43.802 -18.563   2.372  1.00  0.00    -0.040 A 
HETATM   17  C   UNL     1      44.006 -19.943   2.227  1.00  0.00     0.026 A 
HETATM   18  C   UNL     1      44.354 -20.740   3.329  1.00  0.00     0.032 A 
HETATM   19  C   UNL     1      44.503 -20.157   4.589  1.00  0.00     0.017 A 
HETATM   20  C   UNL     1      44.284 -18.788   4.749  1.00  0.00     0.002 A 
HETATM   21  C   UNL     1      43.928 -17.998   3.652  1.00  0.00     0.009 A 
BRANCH  18  22
HETATM   22  C   UNL     1      44.591 -22.185   3.091  1.00  0.00     0.249 C 
HETATM   23  N   UNL     1      44.743 -22.991   4.181  1.00  0.00    -0.366 N 
HETATM   24  H   UNL     1      44.504 -22.706   5.121  1.00  0.00     0.159 HD
HETATM   25  H   UNL     1      44.803 -23.988   4.006  1.00  0.00     0.159 HD
HETATM   26  O   UNL     1      44.622 -22.625   1.949  1.00  0.00    -0.268 OA
ENDBRANCH  18  22
ENDBRANCH  15  16
ENDBRANCH   1  15
TORSDOF 4
ENDMDL
MODEL 3
REMARK VINA RESULT:      -8.2      1.839      2.426
REMARK  4 active torsions:
REMARK  status: ('A' for Active; 'I' for Inactive)
REMARK    1  A    between atoms: C_3  and  N_4 
REMARK    2  A    between atoms: N_4  and  C_5 
REMARK    3  A    between atoms: C_5  and  C_6 
REMARK    4  A    between atoms: C_8  and  C_9 
REMARK       I    between atoms: C_9  and  N_10 
ROOT
HETATM    1  N   UNL     1      43.479 -16.440   3.770  1.00  0.00    -0.372 N 
HETATM    2  H   UNL     1      43.624 -15.791   2.997  1.00  0.00     0.161 HD
ENDROOT
BRANCH   1   3
HETATM    3  C   UNL     1      43.649 -17.765   3.433  1.00  0.00     0.107 A 
HETATM    4  C   UNL     1      43.483 -18.212   2.108  1.00  0.00    -0.017 A 
HETATM    5  C   UNL     1      43.082 -17.302   0.976  1.00  0.00     0.052 C 
HETATM    6  C   UNL     1      43.710 -19.563   1.807  1.00  0.00     0.024 A 
HETATM    7  C   UNL     1      44.106 -20.453   2.806  1.00  0.00    -0.009 A 
HETATM    8  C   UNL     1      44.259 -19.962   4.116  1.00  0.00     0.043 A 
HETATM    9  C   UNL     1      44.357 -21.810   2.549  1.00  0.00     0.014 A 
HETATM   10  N   UNL     1      44.032 -18.660   4.356  1.00  0.00    -0.342 N 
HETATM   11  C   UNL     1      44.644 -20.824   5.151  1.00  0.00     0.030 A 
HETATM   12  H   UNL     1      44.116 -18.338   5.311  1.00  0.00     0.167 HD
HETATM   13  C   UNL     1      44.889 -22.171   4.881  1.00  0.00     0.002 A 
HETATM   14  C   UNL     1      44.749 -22.661   3.584  1.00  0.00     0.001 A 
ENDBRANCH   1   3
BRANCH   1  15
HETATM   15  C   UNL     1      42.618 -15.919   4.821  1.00  0.00     0.160 C 
BRANCH  15  16
HETATM   16  C   UNL     1      41.549 -14.987   4.306  1.00  0.00    -0.040 A 
HETATM   17  C   UNL     1      40.861 -15.247   3.111  1.00  0.00     0.026 A 
HETATM   18  C   UNL     1      39.890 -14.355   2.630  1.00  0.00     0.032 A 
HETATM   19  C   UNL     1      39.598 -13.192   3.346  1.00  0.00     0.017 A 
HETATM   20  C   UNL     1      40.289 -12.915   4.526  1.00  0.00     0.002 A 
HETATM   21  C   UNL     1      41.262 -13.799   4.999  1.00  0.00     0.009 A 
BRANCH  18  22
HETATM   22  C   UNL     1      39.178 -14.715   1.379  1.00  0.00     0.249 C 
HETATM   23  N   UNL     1      39.929 -15.128   0.318  1.00  0.00    -0.366 N 
HETATM   24  H   UNL     1      40.901 -15.394   0.395  1.00  0.00     0.159 HD
HETATM   25  H   UNL     1      39.424 -15.466  -0.494  1.00  0.00     0.159 HD
HETATM   26  O   UNL     1      37.956 -14.661   1.327  1.00  0.00    -0.268 OA
ENDBRANCH  18  22
ENDBRANCH  15  16
ENDBRANCH   1  15
TORSDOF 4
ENDMDL
MODEL 4
REMARK VINA RESULT:      -8.0      2.476      3.815
REMARK  4 active torsions:
REMARK  status: ('A' for Active; 'I' for Inactive)
REMARK    1  A    between atoms: C_3  and  N_4 
REMARK    2  A    between atoms: N_4  and  C_5 
REMARK    3  A    between atoms: C_5  and  C_6 
REMARK    4  A    between atoms: C_8  and  C_9 
REMARK       I    between atoms: C_9  and  N_10 
ROOT
HETATM    1  N   UNL     1      43.257 -16.281   4.101  1.00  0.00    -0.372 N 
HETATM    2  H   UNL     1      43.708 -15.704   3.392  1.00  0.00     0.161 HD
ENDROOT
BRANCH   1   3
HETATM    3  C   UNL     1      43.692 -17.588   4.125  1.00  0.00     0.107 A 
HETATM    4  C   UNL     1      44.320 -18.131   5.263  1.00  0.00    -0.017 A 
HETATM    5  C   UNL     1      44.591 -17.336   6.512  1.00  0.00     0.052 C 
HETATM    6  C   UNL     1      44.706 -19.480   5.253  1.00  0.00     0.024 A 
HETATM    7  C   UNL     1      44.462 -20.278   4.135  1.00  0.00    -0.009 A 
HETATM    8  C   UNL     1      43.833 -19.692   3.021  1.00  0.00     0.043 A 
HETATM    9  C   UNL     1      44.818 -21.635   4.086  1.00  0.00     0.014 A 
HETATM   10  N   UNL     1      43.481 -18.397   3.076  1.00  0.00    -0.342 N 
HETATM   11  C   UNL     1      43.580 -20.454   1.873  1.00  0.00     0.030 A 
HETATM   12  H   UNL     1      43.060 -17.990   2.251  1.00  0.00     0.167 HD
HETATM   13  C   UNL     1      43.941 -21.801   1.837  1.00  0.00     0.002 A 
HETATM   14  C   UNL     1      44.555 -22.390   2.941  1.00  0.00     0.001 A 
ENDBRANCH   1   3
BRANCH   1  15
HETATM   15  C   UNL     1      41.943 -15.800   4.501  1.00  0.00     0.160 C 
BRANCH  15  16
HETATM   16  C   UNL     1      41.171 -15.168   3.369  1.00  0.00    -0.040 A 
HETATM   17  C   UNL     1      41.607 -15.265   2.039  1.00  0.00     0.026 A 
HETATM   18  C   UNL     1      40.894 -14.646   1.000  1.00  0.00     0.032 A 
HETATM   19  C   UNL     1      39.733 -13.925   1.287  1.00  0.00     0.017 A 
HETATM   20  C   UNL     1      39.301 -13.806   2.607  1.00  0.00     0.002 A 
HETATM   21  C   UNL     1      40.017 -14.416   3.642  1.00  0.00     0.009 A 
BRANCH  18  22
HETATM   22  C   UNL     1      41.396 -14.824  -0.385  1.00  0.00     0.249 C 
HETATM   23  N   UNL     1      41.228 -16.045  -0.969  1.00  0.00    -0.366 N 
HETATM   24  H   UNL     1      40.612 -16.757  -0.601  1.00  0.00     0.159 HD
HETATM   25  H   UNL     1      41.483 -16.122  -1.947  1.00  0.00     0.159 HD
HETATM   26  O   UNL     1      41.919 -13.888  -0.977  1.00  0.00    -0.268 OA
ENDBRANCH  18  22
ENDBRANCH  15  16
ENDBRANCH   1  15
TORSDOF 4
ENDMDL
MODEL 5
REMARK VINA RESULT:      -7.9      2.926      7.875
REMARK  4 active torsions:
REMARK  status: ('A' for Active; 'I' for Inactive)
REMARK    1  A    between atoms: C_3  and  N_4 
REMARK    2  A    between atoms: N_4  and  C_5 
REMARK    3  A    between atoms: C_5  and  C_6 
REMARK    4  A    between atoms: C_8  and  C_9 
REMARK       I    between atoms: C_9  and  N_10 
ROOT
HETATM    1  N   UNL     1      40.909 -17.205   2.735  1.00  0.00    -0.372 N 
HETATM    2  H   UNL     1      40.264 -17.913   3.084  1.00  0.00     0.161 HD
ENDROOT
BRANCH   1   3
HETATM    3  C   UNL     1      40.375 -15.936   2.674  1.00  0.00     0.107 A 
HETATM    4  C   UNL     1      40.919 -14.874   3.422  1.00  0.00    -0.017 A 
HETATM    5  C   UNL     1      42.089 -15.041   4.356  1.00  0.00     0.052 C 
HETATM    6  C   UNL     1      40.367 -13.592   3.293  1.00  0.00     0.024 A 
HETATM    7  C   UNL     1      39.297 -13.366   2.426  1.00  0.00    -0.009 A 
HETATM    8  C   UNL     1      38.784 -14.457   1.700  1.00  0.00     0.043 A 
HETATM    9  C   UNL     1      38.721 -12.097   2.255  1.00  0.00     0.014 A 
HETATM   10  N   UNL     1      39.346 -15.667   1.855  1.00  0.00    -0.342 N 
HETATM   11  C   UNL     1      37.703 -14.277   0.828  1.00  0.00     0.030 A 
HETATM   12  H   UNL     1      38.940 -16.441   1.348  1.00  0.00     0.167 HD
HETATM   13  C   UNL     1      37.140 -13.011   0.668  1.00  0.00     0.002 A 
HETATM   14  C   UNL     1      37.649 -11.924   1.377  1.00  0.00     0.001 A 
ENDBRANCH   1   3
BRANCH   1  15
HETATM   15  C   UNL     1      41.965 -17.739   1.888  1.00  0.00     0.160 C 
BRANCH  15  16
HETATM   16  C   UNL     1      42.903 -18.667   2.620  1.00  0.00    -0.040 A 
HETATM   17  C   UNL     1      43.220 -18.473   3.974  1.00  0.00     0.026 A 
HETATM   18  C   UNL     1      44.117 -19.327   4.633  1.00  0.00     0.032 A 
HETATM   19  C   UNL     1      44.705 -20.387   3.940  1.00  0.00     0.017 A 
HETATM   20  C   UNL     1      44.412 -20.578   2.589  1.00  0.00     0.002 A 
HETATM   21  C   UNL     1      43.525 -19.721   1.932  1.00  0.00     0.009 A 
BRANCH  18  22
HETATM   22  C   UNL     1      44.374 -19.083   6.074  1.00  0.00     0.249 C 
HETATM   23  N   UNL     1      45.280 -18.117   6.402  1.00  0.00    -0.366 N 
HETATM   24  H   UNL     1      45.626 -17.433   5.744  1.00  0.00     0.159 HD
HETATM   25  H   UNL     1      45.370 -17.892   7.386  1.00  0.00     0.159 HD
HETATM   26  O   UNL     1      43.766 -19.719   6.926  1.00  0.00    -0.268 OA
ENDBRANCH  18  22
ENDBRANCH  15  16
ENDBRANCH   1  15
TORSDOF 4
ENDMDL
MODEL 6
REMARK VINA RESULT:      -7.9      3.532      4.972
REMARK  4 active torsions:
REMARK  status: ('A' for Active; 'I' for Inactive)
REMARK    1  A    between atoms: C_3  and  N_4 
REMARK    2  A    between atoms: N_4  and  C_5 
REMARK    3  A    between atoms: C_5  and  C_6 
REMARK    4  A    between atoms: C_8  and  C_9 
REMARK       I    between atoms: C_9  and  N_10 
ROOT
HETATM    1  N   UNL     1      41.680 -16.001   2.830  1.00  0.00    -0.372 N 
HETATM    2  H   UNL     1      40.956 -15.786   3.515  1.00  0.00     0.161 HD
ENDROOT
BRANCH   1   3
HETATM    3  C   UNL     1      42.475 -17.075   3.169  1.00  0.00     0.107 A 
HETATM    4  C   UNL     1      43.222 -17.087   4.363  1.00  0.00    -0.017 A 
HETATM    5  C   UNL     1      43.239 -15.937   5.335  1.00  0.00     0.052 C 
HETATM    6  C   UNL     1      43.981 -18.221   4.683  1.00  0.00     0.024 A 
HETATM    7  C   UNL     1      43.990 -19.330   3.836  1.00  0.00    -0.009 A 
HETATM    8  C   UNL     1      43.230 -19.272   2.653  1.00  0.00     0.043 A 
HETATM    9  C   UNL     1      44.725 -20.491   4.122  1.00  0.00     0.014 A 
HETATM   10  N   UNL     1      42.517 -18.165   2.388  1.00  0.00    -0.342 N 
HETATM   11  C   UNL     1      43.220 -20.358   1.768  1.00  0.00     0.030 A 
HETATM   12  H   UNL     1      42.005 -18.135   1.517  1.00  0.00     0.167 HD
HETATM   13  C   UNL     1      43.956 -21.506   2.065  1.00  0.00     0.002 A 
HETATM   14  C   UNL     1      44.703 -21.573   3.240  1.00  0.00     0.001 A 
ENDBRANCH   1   3
BRANCH   1  15
HETATM   15  C   UNL     1      42.067 -14.865   2.008  1.00  0.00     0.160 C 
BRANCH  15  16
HETATM   16  C   UNL     1      41.132 -14.625   0.847  1.00  0.00    -0.040 A 
HETATM   17  C   UNL     1      41.576 -14.705  -0.481  1.00  0.00     0.026 A 
HETATM   18  C   UNL     1      40.701 -14.450  -1.549  1.00  0.00     0.032 A 
HETATM   19  C   UNL     1      39.371 -14.112  -1.293  1.00  0.00     0.017 A 
HETATM   20  C   UNL     1      38.924 -14.011   0.024  1.00  0.00     0.002 A 
HETATM   21  C   UNL     1      39.798 -14.257   1.087  1.00  0.00     0.009 A 
BRANCH  18  22
HETATM   22  C   UNL     1      41.233 -14.591  -2.928  1.00  0.00     0.249 C 
HETATM   23  N   UNL     1      42.438 -14.016  -3.205  1.00  0.00    -0.366 N 
HETATM   24  H   UNL     1      43.073 -13.684  -2.492  1.00  0.00     0.159 HD
HETATM   25  H   UNL     1      42.834 -14.206  -4.119  1.00  0.00     0.159 HD
HETATM   26  O   UNL     1      40.608 -15.226  -3.768  1.00  0.00    -0.268 OA
ENDBRANCH  18  22
ENDBRANCH  15  16
ENDBRANCH   1  15
TORSDOF 4
ENDMDL
MODEL 7
REMARK VINA RESULT:      -7.8      2.810      3.844
REMARK  4 active torsions:
REMARK  status: ('A' for Active; 'I' for Inactive)
REMARK    1  A    between atoms: C_3  and  N_4 
REMARK    2  A    between atoms: N_4  and  C_5 
REMARK    3  A    between atoms: C_5  and  C_6 
REMARK    4  A    between atoms: C_8  and  C_9 
REMARK       I    between atoms: C_9  and  N_10 
ROOT
HETATM    1  N   UNL     1      42.877 -16.193   3.236  1.00  0.00    -0.372 N 
HETATM    2  H   UNL     1      43.316 -15.704   2.456  1.00  0.00     0.161 HD
ENDROOT
BRANCH   1   3
HETATM    3  C   UNL     1      43.311 -17.490   3.404  1.00  0.00     0.107 A 
HETATM    4  C   UNL     1      43.800 -18.246   2.321  1.00  0.00    -0.017 A 
HETATM    5  C   UNL     1      43.857 -17.722   0.910  1.00  0.00     0.052 C 
HETATM    6  C   UNL     1      44.272 -19.546   2.551  1.00  0.00     0.024 A 
HETATM    7  C   UNL     1      44.268 -20.083   3.839  1.00  0.00    -0.009 A 
HETATM    8  C   UNL     1      43.769 -19.291   4.891  1.00  0.00     0.043 A 
HETATM    9  C   UNL     1      44.742 -21.374   4.119  1.00  0.00     0.014 A 
HETATM   10  N   UNL     1      43.329 -18.051   4.623  1.00  0.00    -0.342 N 
HETATM   11  C   UNL     1      43.736 -19.795   6.197  1.00  0.00     0.030 A 
HETATM   12  H   UNL     1      42.945 -17.514   5.389  1.00  0.00     0.167 HD
HETATM   13  C   UNL     1      44.209 -21.081   6.461  1.00  0.00     0.002 A 
HETATM   14  C   UNL     1      44.713 -21.866   5.425  1.00  0.00     0.001 A 
ENDBRANCH   1   3
BRANCH   1  15
HETATM   15  C   UNL     1      41.570 -15.666   3.599  1.00  0.00     0.160 C 
BRANCH  15  16
HETATM   16  C   UNL     1      40.771 -15.186   2.412  1.00  0.00    -0.040 A 
HETATM   17  C   UNL     1      41.305 -15.197   1.114  1.00  0.00     0.026 A 
HETATM   18  C   UNL     1      40.560 -14.720   0.024  1.00  0.00     0.032 A 
HETATM   19  C   UNL     1      39.269 -14.228   0.227  1.00  0.00     0.017 A 
HETATM   20  C   UNL     1      38.735 -14.195   1.515  1.00  0.00     0.002 A 
HETATM   21  C   UNL     1      39.482 -14.663   2.600  1.00  0.00     0.009 A 
BRANCH  18  22
HETATM   22  C   UNL     1      41.177 -14.798  -1.323  1.00  0.00     0.249 C 
HETATM   23  N   UNL     1      42.085 -13.838  -1.661  1.00  0.00    -0.366 N 
HETATM   24  H   UNL     1      42.507 -13.210  -0.991  1.00  0.00     0.159 HD
HETATM   25  H   UNL     1      42.571 -13.961  -2.543  1.00  0.00     0.159 HD
HETATM   26  O   UNL     1      40.887 -15.713  -2.083  1.00  0.00    -0.268 OA
ENDBRANCH  18  22
ENDBRANCH  15  16
ENDBRANCH   1  15
TORSDOF 4
ENDMDL
MODEL 8
REMARK VINA RESULT:      -7.8      4.076      5.130
REMARK  4 active torsions:
REMARK  status: ('A' for Active; 'I' for Inactive)
REMARK    1  A    between atoms: C_3  and  N_4 
REMARK    2  A    between atoms: N_4  and  C_5 
REMARK    3  A    between atoms: C_5  and  C_6 
REMARK    4  A    between atoms: C_8  and  C_9 
REMARK       I    between atoms: C_9  and  N_10 
ROOT
HETATM    1  N   UNL     1      44.033 -14.601   7.363  1.00  0.00    -0.372 N 
HETATM    2  H   UNL     1      43.662 -14.877   8.272  1.00  0.00     0.161 HD
ENDROOT
BRANCH   1   3
HETATM    3  C   UNL     1      43.844 -15.538   6.369  1.00  0.00     0.107 A 
HETATM    4  C   UNL     1      43.122 -15.231   5.200  1.00  0.00    -0.017 A 
HETATM    5  C   UNL     1      42.482 -13.889   4.956  1.00  0.00     0.052 C 
HETATM    6  C   UNL     1      42.995 -16.204   4.198  1.00  0.00     0.024 A 
HETATM    7  C   UNL     1      43.584 -17.459   4.352  1.00  0.00    -0.009 A 
HETATM    8  C   UNL     1      44.295 -17.722   5.538  1.00  0.00     0.043 A 
HETATM    9  C   UNL     1      43.494 -18.459   3.372  1.00  0.00     0.014 A 
HETATM   10  N   UNL     1      44.392 -16.759   6.469  1.00  0.00    -0.342 N 
HETATM   11  C   UNL     1      44.893 -18.973   5.739  1.00  0.00     0.030 A 
HETATM   12  H   UNL     1      44.880 -16.982   7.326  1.00  0.00     0.167 HD
HETATM   13  C   UNL     1      44.794 -19.959   4.756  1.00  0.00     0.002 A 
HETATM   14  C   UNL     1      44.099 -19.701   3.576  1.00  0.00     0.001 A 
ENDBRANCH   1   3
BRANCH   1  15
HETATM   15  C   UNL     1      45.113 -13.630   7.440  1.00  0.00     0.160 C 
BRANCH  15  16
HETATM   16  C   UNL     1      44.865 -12.544   8.459  1.00  0.00    -0.040 A 
HETATM   17  C   UNL     1      43.582 -12.022   8.678  1.00  0.00     0.026 A 
HETATM   18  C   UNL     1      43.372 -10.992   9.608  1.00  0.00     0.032 A 
HETATM   19  C   UNL     1      44.451 -10.476  10.330  1.00  0.00     0.017 A 
HETATM   20  C   UNL     1      45.734 -10.975  10.106  1.00  0.00     0.002 A 
HETATM   21  C   UNL     1      45.942 -11.995   9.173  1.00  0.00     0.009 A 
BRANCH  18  22
HETATM   22  C   UNL     1      41.981 -10.517   9.814  1.00  0.00     0.249 C 
HETATM   23  N   UNL     1      41.144 -11.306  10.547  1.00  0.00    -0.366 N 
HETATM   24  H   UNL     1      41.463 -12.075  11.119  1.00  0.00     0.159 HD
HETATM   25  H   UNL     1      40.230 -10.922  10.763  1.00  0.00     0.159 HD
HETATM   26  O   UNL     1      41.622  -9.441   9.353  1.00  0.00    -0.268 OA
ENDBRANCH  18  22
ENDBRANCH  15  16
ENDBRANCH   1  15
TORSDOF 4
ENDMDL
MODEL 9
REMARK VINA RESULT:      -7.7      4.143      5.634
REMARK  4 active torsions:
REMARK  status: ('A' for Active; 'I' for Inactive)
REMARK    1  A    between atoms: C_3  and  N_4 
REMARK    2  A    between atoms: N_4  and  C_5 
REMARK    3  A    between atoms: C_5  and  C_6 
REMARK    4  A    between atoms: C_8  and  C_9 
REMARK       I    between atoms: C_9  and  N_10 
ROOT
HETATM    1  N   UNL     1      43.842 -14.636   7.301  1.00  0.00    -0.372 N 
HETATM    2  H   UNL     1      43.434 -14.799   8.221  1.00  0.00     0.161 HD
ENDROOT
BRANCH   1   3
HETATM    3  C   UNL     1      43.632 -15.659   6.402  1.00  0.00     0.107 A 
HETATM    4  C   UNL     1      43.402 -16.979   6.834  1.00  0.00    -0.017 A 
HETATM    5  C   UNL     1      43.397 -17.381   8.285  1.00  0.00     0.052 C 
HETATM    6  C   UNL     1      43.150 -17.977   5.882  1.00  0.00     0.024 A 
HETATM    7  C   UNL     1      43.117 -17.666   4.522  1.00  0.00    -0.009 A 
HETATM    8  C   UNL     1      43.354 -16.333   4.136  1.00  0.00     0.043 A 
HETATM    9  C   UNL     1      42.856 -18.629   3.535  1.00  0.00     0.014 A 
HETATM   10  N   UNL     1      43.590 -15.411   5.084  1.00  0.00    -0.342 N 
HETATM   11  C   UNL     1      43.342 -15.979   2.781  1.00  0.00     0.030 A 
HETATM   12  H   UNL     1      43.789 -14.468   4.780  1.00  0.00     0.167 HD
HETATM   13  C   UNL     1      43.082 -16.947   1.810  1.00  0.00     0.002 A 
HETATM   14  C   UNL     1      42.837 -18.267   2.186  1.00  0.00     0.001 A 
ENDBRANCH   1   3
BRANCH   1  15
HETATM   15  C   UNL     1      44.967 -13.713   7.312  1.00  0.00     0.160 C 
BRANCH  15  16
HETATM   16  C   UNL     1      44.828 -12.619   8.343  1.00  0.00    -0.040 A 
HETATM   17  C   UNL     1      43.576 -12.087   8.686  1.00  0.00     0.026 A 
HETATM   18  C   UNL     1      43.467 -11.050   9.625  1.00  0.00     0.032 A 
HETATM   19  C   UNL     1      44.616 -10.537  10.231  1.00  0.00     0.017 A 
HETATM   20  C   UNL     1      45.867 -11.045   9.884  1.00  0.00     0.002 A 
HETATM   21  C   UNL     1      45.975 -12.072   8.942  1.00  0.00     0.009 A 
BRANCH  18  22
HETATM   22  C   UNL     1      42.107 -10.564   9.965  1.00  0.00     0.249 C 
HETATM   23  N   UNL     1      41.337 -11.348  10.773  1.00  0.00    -0.366 N 
HETATM   24  H   UNL     1      41.703 -12.123  11.310  1.00  0.00     0.159 HD
HETATM   25  H   UNL     1      40.452 -10.958  11.078  1.00  0.00     0.159 HD
HETATM   26  O   UNL     1      41.714  -9.483   9.545  1.00  0.00    -0.268 OA
ENDBRANCH  18  22
ENDBRANCH  15  16
ENDBRANCH   1  15
TORSDOF 4
ENDMDL
MODEL 10
REMARK VINA RESULT:      -7.6      2.471      3.204
REMARK  4 active torsions:
REMARK  status: ('A' for Active; 'I' for Inactive)
REMARK    1  A    between atoms: C_3  and  N_4 
REMARK    2  A    between atoms: N_4  and  C_5 
REMARK    3  A    between atoms: C_5  and  C_6 
REMARK    4  A    between atoms: C_8  and  C_9 
REMARK       I    between atoms: C_9  and  N_10 
ROOT
HETATM    1  N   UNL     1      40.279 -16.507   3.314  1.00  0.00    -0.372 N 
HETATM    2  H   UNL     1      39.377 -16.950   3.487  1.00  0.00     0.161 HD
ENDROOT
BRANCH   1   3
HETATM    3  C   UNL     1      41.320 -17.395   3.149  1.00  0.00     0.107 A 
HETATM    4  C   UNL     1      41.866 -17.658   1.878  1.00  0.00    -0.017 A 
HETATM    5  C   UNL     1      41.347 -17.026   0.613  1.00  0.00     0.052 C 
HETATM    6  C   UNL     1      42.953 -18.536   1.768  1.00  0.00     0.024 A 
HETATM    7  C   UNL     1      43.496 -19.136   2.905  1.00  0.00    -0.009 A 
HETATM    8  C   UNL     1      42.917 -18.846   4.154  1.00  0.00     0.043 A 
HETATM    9  C   UNL     1      44.592 -20.011   2.844  1.00  0.00     0.014 A 
HETATM   10  N   UNL     1      41.878 -17.997   4.211  1.00  0.00    -0.342 N 
HETATM   11  C   UNL     1      43.423 -19.436   5.319  1.00  0.00     0.030 A 
HETATM   12  H   UNL     1      41.458 -17.830   5.116  1.00  0.00     0.167 HD
HETATM   13  C   UNL     1      44.512 -20.305   5.244  1.00  0.00     0.002 A 
HETATM   14  C   UNL     1      45.096 -20.589   4.011  1.00  0.00     0.001 A 
ENDBRANCH   1   3
BRANCH   1  15
HETATM   15  C   UNL     1      40.375 -15.149   3.828  1.00  0.00     0.160 C 
BRANCH  15  16
HETATM   16  C   UNL     1      41.778 -14.761   4.225  1.00  0.00    -0.040 A 
HETATM   17  C   UNL     1      42.253 -14.959   5.530  1.00  0.00     0.026 A 
HETATM   18  C   UNL     1      43.551 -14.565   5.892  1.00  0.00     0.032 A 
HETATM   19  C   UNL     1      44.387 -13.970   4.944  1.00  0.00     0.017 A 
HETATM   20  C   UNL     1      43.918 -13.751   3.649  1.00  0.00     0.002 A 
HETATM   21  C   UNL     1      42.622 -14.136   3.293  1.00  0.00     0.009 A 
BRANCH  18  22
HETATM   22  C   UNL     1      43.996 -14.841   7.280  1.00  0.00     0.249 C 
HETATM   23  N   UNL     1      43.597 -16.012   7.853  1.00  0.00    -0.366 N 
HETATM   24  H   UNL     1      43.197 -16.780   7.331  1.00  0.00     0.159 HD
HETATM   25  H   UNL     1      43.990 -16.233   8.762  1.00  0.00     0.159 HD
HETATM   26  O   UNL     1      44.717 -14.044   7.867  1.00  0.00    -0.268 OA
ENDBRANCH  18  22
ENDBRANCH  15  16
ENDBRANCH   1  15
TORSDOF 4
ENDMDL
