MODEL 1
REMARK VINA RESULT:     -10.4      0.000      0.000
REMARK  7 active torsions:
REMARK  status: ('A' for Active; 'I' for Inactive)
REMARK    1  A    between atoms: C_3  and  N_4 
REMARK    2  A    between atoms: C_5  and  S_6 
REMARK    3  A    between atoms: S_6  and  C_7 
REMARK    4  A    between atoms: C_7  and  C_8 
REMARK       I    between atoms: C_8  and  N_9 
REMARK    5  A    between atoms: N_9  and  C_10 
REMARK    6  A    between atoms: C_13  and  C_14 
REMARK       I    between atoms: C_14  and  N_15 
REMARK    7  A    between atoms: C_22  and  C_23 
ROOT
HETATM    1  N   UNL     1      43.488 -16.212   5.053  1.00  0.00    -0.271 N 
HETATM    2  C   UNL     1      44.033 -15.640   6.188  1.00  0.00     0.197 C 
HETATM    3  N   UNL     1      44.632 -16.559   6.911  1.00  0.00    -0.122 NA
HETATM    4  N   UNL     1      44.595 -17.730   6.210  1.00  0.00    -0.128 NA
HETATM    5  C   UNL     1      43.985 -17.510   5.057  1.00  0.00     0.171 C 
ENDROOT
BRANCH   2   6
HETATM    6  S   UNL     1      43.840 -13.986   6.670  1.00  0.00    -0.080 SA
BRANCH   6   7
HETATM    7  C   UNL     1      45.465 -13.610   7.378  1.00  0.00     0.185 C 
BRANCH   7   8
HETATM    8  C   UNL     1      45.404 -12.458   8.371  1.00  0.00     0.231 C 
HETATM    9  N   UNL     1      44.211 -12.407   9.069  1.00  0.00    -0.327 N 
HETATM   10  H   UNL     1      43.635 -13.250   9.030  1.00  0.00     0.169 HD
HETATM   11  O   UNL     1      46.336 -11.664   8.472  1.00  0.00    -0.272 OA
BRANCH   9  12
HETATM   12  C   UNL     1      43.734 -11.381   9.905  1.00  0.00     0.034 A 
HETATM   13  C   UNL     1      44.405 -11.191  11.120  1.00  0.00     0.030 A 
HETATM   14  C   UNL     1      43.961 -10.237  12.043  1.00  0.00     0.019 A 
HETATM   15  C   UNL     1      42.834  -9.462  11.756  1.00  0.00     0.032 A 
HETATM   16  C   UNL     1      42.184  -9.624  10.529  1.00  0.00     0.019 A 
HETATM   17  C   UNL     1      42.628 -10.584   9.610  1.00  0.00     0.030 A 
BRANCH  15  18
HETATM   18  C   UNL     1      42.303  -8.457  12.713  1.00  0.00     0.249 C 
HETATM   19  N   UNL     1      42.893  -8.393  13.946  1.00  0.00    -0.366 N 
HETATM   20  H   UNL     1      43.493  -9.125  14.296  1.00  0.00     0.159 HD
HETATM   21  H   UNL     1      42.440  -7.793  14.624  1.00  0.00     0.159 HD
HETATM   22  O   UNL     1      41.348  -7.743  12.438  1.00  0.00    -0.268 OA
ENDBRANCH  15  18
ENDBRANCH   9  12
ENDBRANCH   7   8
ENDBRANCH   6   7
ENDBRANCH   2   6
BRANCH   1  23
HETATM   23  C   UNL     1      42.538 -15.644   4.166  1.00  0.00     0.049 A 
HETATM   24  C   UNL     1      41.154 -15.704   4.445  1.00  0.00    -0.035 A 
HETATM   25  C   UNL     1      40.569 -16.291   5.702  1.00  0.00     0.050 C 
HETATM   26  C   UNL     1      40.264 -15.165   3.501  1.00  0.00     0.009 A 
HETATM   27  C   UNL     1      40.733 -14.549   2.339  1.00  0.00     0.001 A 
HETATM   28  C   UNL     1      42.101 -14.465   2.095  1.00  0.00     0.002 A 
HETATM   29  C   UNL     1      43.006 -15.011   3.004  1.00  0.00     0.031 A 
ENDBRANCH   1  23
BRANCH   5  30
HETATM   30  C   UNL     1      43.958 -18.525   3.955  1.00  0.00     0.040 A 
HETATM   31  C   UNL     1      44.265 -19.917   4.072  1.00  0.00     0.006 A 
HETATM   32  C   UNL     1      44.130 -20.476   2.798  1.00  0.00     0.043 A 
HETATM   33  C   UNL     1      44.633 -20.769   5.136  1.00  0.00     0.015 A 
HETATM   34  C   UNL     1      44.345 -21.834   2.537  1.00  0.00     0.030 A 
HETATM   35  N   UNL     1      43.773 -19.459   1.944  1.00  0.00    -0.364 N 
HETATM   36  C   UNL     1      44.708 -22.652   3.610  1.00  0.00     0.002 A 
HETATM   37  C   UNL     1      44.850 -22.130   4.892  1.00  0.00     0.001 A 
HETATM   38  H   UNL     1      43.621 -19.573   0.951  1.00  0.00     0.165 HD
HETATM   39  C   UNL     1      43.672 -18.277   2.629  1.00  0.00     0.104 A 
ENDBRANCH   5  30
TORSDOF 7
ENDMDL
MODEL 2
REMARK VINA RESULT:     -10.3      3.729     10.074
REMARK  7 active torsions:
REMARK  status: ('A' for Active; 'I' for Inactive)
REMARK    1  A    between atoms: C_3  and  N_4 
REMARK    2  A    between atoms: C_5  and  S_6 
REMARK    3  A    between atoms: S_6  and  C_7 
REMARK    4  A    between atoms: C_7  and  C_8 
REMARK       I    between atoms: C_8  and  N_9 
REMARK    5  A    between atoms: N_9  and  C_10 
REMARK    6  A    between atoms: C_13  and  C_14 
REMARK       I    between atoms: C_14  and  N_15 
REMARK    7  A    between atoms: C_22  and  C_23 
ROOT
HETATM    1  N   UNL     1      41.590 -13.299   5.157  1.00  0.00    -0.271 N 
HETATM    2  C   UNL     1      42.034 -12.905   3.907  1.00  0.00     0.197 C 
HETATM    3  N   UNL     1      41.456 -11.778   3.560  1.00  0.00    -0.122 NA
HETATM    4  N   UNL     1      40.712 -11.347   4.621  1.00  0.00    -0.128 NA
HETATM    5  C   UNL     1      40.856 -12.210   5.612  1.00  0.00     0.171 C 
ENDROOT
BRANCH   2   6
HETATM    6  S   UNL     1      43.084 -13.826   2.879  1.00  0.00    -0.080 SA
BRANCH   6   7
HETATM    7  C   UNL     1      41.907 -14.875   1.986  1.00  0.00     0.185 C 
BRANCH   7   8
HETATM    8  C   UNL     1      41.948 -16.319   2.469  1.00  0.00     0.231 C 
HETATM    9  N   UNL     1      43.230 -16.765   2.734  1.00  0.00    -0.327 N 
HETATM   10  H   UNL     1      43.946 -16.041   2.818  1.00  0.00     0.169 HD
HETATM   11  O   UNL     1      40.918 -16.982   2.558  1.00  0.00    -0.272 OA
BRANCH   9  12
HETATM   12  C   UNL     1      43.658 -18.079   2.998  1.00  0.00     0.034 A 
HETATM   13  C   UNL     1      43.611 -18.986   1.931  1.00  0.00     0.030 A 
HETATM   14  C   UNL     1      43.955 -20.330   2.117  1.00  0.00     0.019 A 
HETATM   15  C   UNL     1      44.349 -20.780   3.380  1.00  0.00     0.032 A 
HETATM   16  C   UNL     1      44.430 -19.870   4.438  1.00  0.00     0.019 A 
HETATM   17  C   UNL     1      44.080 -18.527   4.250  1.00  0.00     0.030 A 
BRANCH  15  18
HETATM   18  C   UNL     1      44.695 -22.202   3.638  1.00  0.00     0.249 C 
HETATM   19  N   UNL     1      45.020 -22.543   4.923  1.00  0.00    -0.366 N 
HETATM   20  H   UNL     1      45.249 -21.854   5.624  1.00  0.00     0.159 HD
HETATM   21  H   UNL     1      45.373 -23.484   5.057  1.00  0.00     0.159 HD
HETATM   22  O   UNL     1      44.737 -23.032   2.740  1.00  0.00    -0.268 OA
ENDBRANCH  15  18
ENDBRANCH   9  12
ENDBRANCH   7   8
ENDBRANCH   6   7
ENDBRANCH   2   6
BRANCH   1  23
HETATM   23  C   UNL     1      41.742 -14.569   5.770  1.00  0.00     0.049 A 
HETATM   24  C   UNL     1      42.954 -14.935   6.397  1.00  0.00    -0.035 A 
HETATM   25  C   UNL     1      44.142 -14.022   6.539  1.00  0.00     0.050 C 
HETATM   26  C   UNL     1      43.054 -16.227   6.942  1.00  0.00     0.009 A 
HETATM   27  C   UNL     1      41.974 -17.110   6.904  1.00  0.00     0.001 A 
HETATM   28  C   UNL     1      40.774 -16.722   6.315  1.00  0.00     0.002 A 
HETATM   29  C   UNL     1      40.653 -15.454   5.747  1.00  0.00     0.031 A 
ENDBRANCH   1  23
BRANCH   5  30
HETATM   30  C   UNL     1      40.350 -11.938   6.996  1.00  0.00     0.040 A 
HETATM   31  C   UNL     1      41.068 -11.296   8.054  1.00  0.00     0.006 A 
HETATM   32  C   UNL     1      40.224 -11.272   9.167  1.00  0.00     0.043 A 
HETATM   33  C   UNL     1      42.349 -10.717   8.179  1.00  0.00     0.015 A 
HETATM   34  C   UNL     1      40.596 -10.704  10.392  1.00  0.00     0.030 A 
HETATM   35  N   UNL     1      39.051 -11.890   8.802  1.00  0.00    -0.364 N 
HETATM   36  C   UNL     1      41.870 -10.139  10.485  1.00  0.00     0.002 A 
HETATM   37  C   UNL     1      42.737 -10.144   9.396  1.00  0.00     0.001 A 
HETATM   38  H   UNL     1      38.261 -12.028   9.418  1.00  0.00     0.165 HD
HETATM   39  C   UNL     1      39.118 -12.301   7.497  1.00  0.00     0.104 A 
ENDBRANCH   5  30
TORSDOF 7
ENDMDL
MODEL 3
REMARK VINA RESULT:     -10.1      5.042      8.610
REMARK  7 active torsions:
REMARK  status: ('A' for Active; 'I' for Inactive)
REMARK    1  A    between atoms: C_3  and  N_4 
REMARK    2  A    between atoms: C_5  and  S_6 
REMARK    3  A    between atoms: S_6  and  C_7 
REMARK    4  A    between atoms: C_7  and  C_8 
REMARK       I    between atoms: C_8  and  N_9 
REMARK    5  A    between atoms: N_9  and  C_10 
REMARK    6  A    between atoms: C_13  and  C_14 
REMARK       I    between atoms: C_14  and  N_15 
REMARK    7  A    between atoms: C_22  and  C_23 
ROOT
HETATM    1  N   UNL     1      41.360 -13.747   0.986  1.00  0.00    -0.271 N 
HETATM    2  C   UNL     1      42.135 -12.877   1.731  1.00  0.00     0.197 C 
HETATM    3  N   UNL     1      42.217 -11.715   1.123  1.00  0.00    -0.122 NA
HETATM    4  N   UNL     1      41.402 -11.759   0.028  1.00  0.00    -0.128 NA
HETATM    5  C   UNL     1      40.819 -12.946  -0.013  1.00  0.00     0.171 C 
ENDROOT
BRANCH   2   6
HETATM    6  S   UNL     1      42.996 -13.288   3.178  1.00  0.00    -0.080 SA
BRANCH   6   7
HETATM    7  C   UNL     1      41.651 -13.436   4.384  1.00  0.00     0.185 C 
BRANCH   7   8
HETATM    8  C   UNL     1      41.724 -14.741   5.165  1.00  0.00     0.231 C 
HETATM    9  N   UNL     1      42.915 -15.419   4.975  1.00  0.00    -0.327 N 
HETATM   10  H   UNL     1      43.675 -14.879   4.559  1.00  0.00     0.169 HD
HETATM   11  O   UNL     1      40.777 -15.119   5.849  1.00  0.00    -0.272 OA
BRANCH   9  12
HETATM   12  C   UNL     1      43.243 -16.729   5.371  1.00  0.00     0.034 A 
HETATM   13  C   UNL     1      43.370 -17.684   4.354  1.00  0.00     0.030 A 
HETATM   14  C   UNL     1      43.630 -19.026   4.658  1.00  0.00     0.019 A 
HETATM   15  C   UNL     1      43.764 -19.424   5.991  1.00  0.00     0.032 A 
HETATM   16  C   UNL     1      43.673 -18.467   7.006  1.00  0.00     0.019 A 
HETATM   17  C   UNL     1      43.407 -17.126   6.698  1.00  0.00     0.030 A 
BRANCH  15  18
HETATM   18  C   UNL     1      44.011 -20.839   6.370  1.00  0.00     0.249 C 
HETATM   19  N   UNL     1      44.719 -21.610   5.489  1.00  0.00    -0.366 N 
HETATM   20  H   UNL     1      44.874 -21.332   4.531  1.00  0.00     0.159 HD
HETATM   21  H   UNL     1      44.769 -22.598   5.705  1.00  0.00     0.159 HD
HETATM   22  O   UNL     1      43.565 -21.320   7.404  1.00  0.00    -0.268 OA
ENDBRANCH  15  18
ENDBRANCH   9  12
ENDBRANCH   7   8
ENDBRANCH   6   7
ENDBRANCH   2   6
BRANCH   1  23
HETATM   23  C   UNL     1      41.250 -15.153   1.133  1.00  0.00     0.049 A 
HETATM   24  C   UNL     1      40.111 -15.736   1.731  1.00  0.00    -0.035 A 
HETATM   25  C   UNL     1      38.906 -14.960   2.191  1.00  0.00     0.050 C 
HETATM   26  C   UNL     1      40.088 -17.133   1.891  1.00  0.00     0.009 A 
HETATM   27  C   UNL     1      41.142 -17.927   1.434  1.00  0.00     0.001 A 
HETATM   28  C   UNL     1      42.241 -17.341   0.814  1.00  0.00     0.002 A 
HETATM   29  C   UNL     1      42.301 -15.956   0.662  1.00  0.00     0.031 A 
ENDBRANCH   1  23
BRANCH   5  30
HETATM   30  C   UNL     1      39.703 -13.261  -0.962  1.00  0.00     0.040 A 
HETATM   31  C   UNL     1      39.698 -14.287  -1.958  1.00  0.00     0.006 A 
HETATM   32  C   UNL     1      38.471 -14.210  -2.622  1.00  0.00     0.043 A 
HETATM   33  C   UNL     1      40.608 -15.289  -2.360  1.00  0.00     0.015 A 
HETATM   34  C   UNL     1      38.111 -15.076  -3.661  1.00  0.00     0.030 A 
HETATM   35  N   UNL     1      37.770 -13.168  -2.060  1.00  0.00    -0.364 N 
HETATM   36  C   UNL     1      39.033 -16.057  -4.036  1.00  0.00     0.002 A 
HETATM   37  C   UNL     1      40.264 -16.164  -3.397  1.00  0.00     0.001 A 
HETATM   38  H   UNL     1      36.849 -12.873  -2.355  1.00  0.00     0.165 HD
HETATM   39  C   UNL     1      38.506 -12.585  -1.062  1.00  0.00     0.104 A 
ENDBRANCH   5  30
TORSDOF 7
ENDMDL
MODEL 4
REMARK VINA RESULT:     -10.1      5.402      9.833
REMARK  7 active torsions:
REMARK  status: ('A' for Active; 'I' for Inactive)
REMARK    1  A    between atoms: C_3  and  N_4 
REMARK    2  A    between atoms: C_5  and  S_6 
REMARK    3  A    between atoms: S_6  and  C_7 
REMARK    4  A    between atoms: C_7  and  C_8 
REMARK       I    between atoms: C_8  and  N_9 
REMARK    5  A    between atoms: N_9  and  C_10 
REMARK    6  A    between atoms: C_13  and  C_14 
REMARK       I    between atoms: C_14  and  N_15 
REMARK    7  A    between atoms: C_22  and  C_23 
ROOT
HETATM    1  N   UNL     1      40.322 -14.202   1.141  1.00  0.00    -0.271 N 
HETATM    2  C   UNL     1      40.790 -14.900   2.240  1.00  0.00     0.197 C 
HETATM    3  N   UNL     1      41.581 -15.874   1.849  1.00  0.00    -0.122 NA
HETATM    4  N   UNL     1      41.743 -15.763   0.498  1.00  0.00    -0.128 NA
HETATM    5  C   UNL     1      41.059 -14.711   0.079  1.00  0.00     0.171 C 
ENDROOT
BRANCH   2   6
HETATM    6  S   UNL     1      40.301 -14.634   3.882  1.00  0.00    -0.080 SA
BRANCH   6   7
HETATM    7  C   UNL     1      41.829 -14.989   4.790  1.00  0.00     0.185 C 
BRANCH   7   8
HETATM    8  C   UNL     1      42.095 -16.484   4.900  1.00  0.00     0.231 C 
HETATM    9  N   UNL     1      43.211 -16.890   4.191  1.00  0.00    -0.327 N 
HETATM   10  H   UNL     1      43.847 -16.147   3.897  1.00  0.00     0.169 HD
HETATM   11  O   UNL     1      41.338 -17.212   5.537  1.00  0.00    -0.272 OA
BRANCH   9  12
HETATM   12  C   UNL     1      43.633 -18.201   3.907  1.00  0.00     0.034 A 
HETATM   13  C   UNL     1      43.268 -18.728   2.661  1.00  0.00     0.030 A 
HETATM   14  C   UNL     1      43.587 -20.047   2.318  1.00  0.00     0.019 A 
HETATM   15  C   UNL     1      44.278 -20.854   3.225  1.00  0.00     0.032 A 
HETATM   16  C   UNL     1      44.675 -20.321   4.455  1.00  0.00     0.019 A 
HETATM   17  C   UNL     1      44.349 -19.002   4.797  1.00  0.00     0.030 A 
BRANCH  15  18
HETATM   18  C   UNL     1      44.616 -22.270   2.924  1.00  0.00     0.249 C 
HETATM   19  N   UNL     1      44.898 -23.086   3.985  1.00  0.00    -0.366 N 
HETATM   20  H   UNL     1      45.102 -22.725   4.905  1.00  0.00     0.159 HD
HETATM   21  H   UNL     1      45.245 -24.009   3.755  1.00  0.00     0.159 HD
HETATM   22  O   UNL     1      44.687 -22.688   1.776  1.00  0.00    -0.268 OA
ENDBRANCH  15  18
ENDBRANCH   9  12
ENDBRANCH   7   8
ENDBRANCH   6   7
ENDBRANCH   2   6
BRANCH   1  23
HETATM   23  C   UNL     1      39.248 -13.277   1.096  1.00  0.00     0.049 A 
HETATM   24  C   UNL     1      39.419 -11.941   1.520  1.00  0.00    -0.035 A 
HETATM   25  C   UNL     1      40.730 -11.360   1.980  1.00  0.00     0.050 C 
HETATM   26  C   UNL     1      38.300 -11.090   1.496  1.00  0.00     0.009 A 
HETATM   27  C   UNL     1      37.065 -11.538   1.026  1.00  0.00     0.001 A 
HETATM   28  C   UNL     1      36.921 -12.847   0.576  1.00  0.00     0.002 A 
HETATM   29  C   UNL     1      38.008 -13.720   0.610  1.00  0.00     0.031 A 
ENDBRANCH   1  23
BRANCH   5  30
HETATM   30  C   UNL     1      41.185 -14.172  -1.313  1.00  0.00     0.040 A 
HETATM   31  C   UNL     1      41.792 -12.935  -1.695  1.00  0.00     0.006 A 
HETATM   32  C   UNL     1      41.668 -12.827  -3.083  1.00  0.00     0.043 A 
HETATM   33  C   UNL     1      42.449 -11.894  -1.005  1.00  0.00     0.015 A 
HETATM   34  C   UNL     1      42.164 -11.738  -3.809  1.00  0.00     0.030 A 
HETATM   35  N   UNL     1      40.999 -13.947  -3.519  1.00  0.00    -0.364 N 
HETATM   36  C   UNL     1      42.810 -10.724  -3.098  1.00  0.00     0.002 A 
HETATM   37  C   UNL     1      42.952 -10.798  -1.716  1.00  0.00     0.001 A 
HETATM   38  H   UNL     1      40.756 -14.129  -4.484  1.00  0.00     0.165 HD
HETATM   39  C   UNL     1      40.697 -14.762  -2.460  1.00  0.00     0.104 A 
ENDBRANCH   5  30
TORSDOF 7
ENDMDL
MODEL 5
REMARK VINA RESULT:     -10.0      5.755     10.034
REMARK  7 active torsions:
REMARK  status: ('A' for Active; 'I' for Inactive)
REMARK    1  A    between atoms: C_3  and  N_4 
REMARK    2  A    between atoms: C_5  and  S_6 
REMARK    3  A    between atoms: S_6  and  C_7 
REMARK    4  A    between atoms: C_7  and  C_8 
REMARK       I    between atoms: C_8  and  N_9 
REMARK    5  A    between atoms: N_9  and  C_10 
REMARK    6  A    between atoms: C_13  and  C_14 
REMARK       I    between atoms: C_14  and  N_15 
REMARK    7  A    between atoms: C_22  and  C_23 
ROOT
HETATM    1  N   UNL     1      42.469 -16.674   2.649  1.00  0.00    -0.271 N 
HETATM    2  C   UNL     1      42.124 -16.340   1.352  1.00  0.00     0.197 C 
HETATM    3  N   UNL     1      42.941 -16.924   0.506  1.00  0.00    -0.122 NA
HETATM    4  N   UNL     1      43.764 -17.746   1.220  1.00  0.00    -0.128 NA
HETATM    5  C   UNL     1      43.430 -17.666   2.497  1.00  0.00     0.171 C 
ENDROOT
BRANCH   2   6
HETATM    6  S   UNL     1      40.891 -15.206   0.902  1.00  0.00    -0.080 SA
BRANCH   6   7
HETATM    7  C   UNL     1      41.799 -14.083  -0.194  1.00  0.00     0.185 C 
BRANCH   7   8
HETATM    8  C   UNL     1      41.054 -13.830  -1.498  1.00  0.00     0.231 C 
HETATM    9  N   UNL     1      39.681 -13.934  -1.366  1.00  0.00    -0.327 N 
HETATM   10  H   UNL     1      39.322 -13.918  -0.410  1.00  0.00     0.169 HD
HETATM   11  O   UNL     1      41.666 -13.598  -2.537  1.00  0.00    -0.272 OA
BRANCH   9  12
HETATM   12  C   UNL     1      38.709 -13.962  -2.382  1.00  0.00     0.034 A 
HETATM   13  C   UNL     1      37.922 -12.814  -2.537  1.00  0.00     0.030 A 
HETATM   14  C   UNL     1      36.887 -12.775  -3.479  1.00  0.00     0.019 A 
HETATM   15  C   UNL     1      36.629 -13.893  -4.276  1.00  0.00     0.032 A 
HETATM   16  C   UNL     1      37.435 -15.028  -4.149  1.00  0.00     0.019 A 
HETATM   17  C   UNL     1      38.467 -15.065  -3.201  1.00  0.00     0.030 A 
BRANCH  15  18
HETATM   18  C   UNL     1      35.524 -13.916  -5.270  1.00  0.00     0.249 C 
HETATM   19  N   UNL     1      35.867 -13.817  -6.590  1.00  0.00    -0.366 N 
HETATM   20  H   UNL     1      36.781 -13.511  -6.890  1.00  0.00     0.159 HD
HETATM   21  H   UNL     1      35.099 -13.709  -7.242  1.00  0.00     0.159 HD
HETATM   22  O   UNL     1      34.350 -13.974  -4.930  1.00  0.00    -0.268 OA
ENDBRANCH  15  18
ENDBRANCH   9  12
ENDBRANCH   7   8
ENDBRANCH   6   7
ENDBRANCH   2   6
BRANCH   1  23
HETATM   23  C   UNL     1      42.035 -16.054   3.849  1.00  0.00     0.049 A 
HETATM   24  C   UNL     1      42.602 -14.836   4.285  1.00  0.00    -0.035 A 
HETATM   25  C   UNL     1      43.636 -14.060   3.513  1.00  0.00     0.050 C 
HETATM   26  C   UNL     1      42.162 -14.301   5.508  1.00  0.00     0.009 A 
HETATM   27  C   UNL     1      41.163 -14.931   6.251  1.00  0.00     0.001 A 
HETATM   28  C   UNL     1      40.588 -16.112   5.791  1.00  0.00     0.002 A 
HETATM   29  C   UNL     1      41.020 -16.677   4.592  1.00  0.00     0.031 A 
ENDBRANCH   1  23
BRANCH   5  30
HETATM   30  C   UNL     1      43.986 -18.595   3.534  1.00  0.00     0.040 A 
HETATM   31  C   UNL     1      44.185 -20.004   3.395  1.00  0.00     0.006 A 
HETATM   32  C   UNL     1      44.703 -20.468   4.607  1.00  0.00     0.043 A 
HETATM   33  C   UNL     1      43.990 -20.939   2.355  1.00  0.00     0.015 A 
HETATM   34  C   UNL     1      45.032 -21.810   4.831  1.00  0.00     0.030 A 
HETATM   35  N   UNL     1      44.797 -19.385   5.450  1.00  0.00    -0.364 N 
HETATM   36  C   UNL     1      44.828 -22.711   3.783  1.00  0.00     0.002 A 
HETATM   37  C   UNL     1      44.316 -22.285   2.561  1.00  0.00     0.001 A 
HETATM   38  H   UNL     1      45.128 -19.429   6.404  1.00  0.00     0.165 HD
HETATM   39  C   UNL     1      44.361 -18.251   4.815  1.00  0.00     0.104 A 
ENDBRANCH   5  30
TORSDOF 7
ENDMDL
MODEL 6
REMARK VINA RESULT:     -10.0      2.237      5.273
REMARK  7 active torsions:
REMARK  status: ('A' for Active; 'I' for Inactive)
REMARK    1  A    between atoms: C_3  and  N_4 
REMARK    2  A    between atoms: C_5  and  S_6 
REMARK    3  A    between atoms: S_6  and  C_7 
REMARK    4  A    between atoms: C_7  and  C_8 
REMARK       I    between atoms: C_8  and  N_9 
REMARK    5  A    between atoms: N_9  and  C_10 
REMARK    6  A    between atoms: C_13  and  C_14 
REMARK       I    between atoms: C_14  and  N_15 
REMARK    7  A    between atoms: C_22  and  C_23 
ROOT
HETATM    1  N   UNL     1      42.297 -15.088   4.448  1.00  0.00    -0.271 N 
HETATM    2  C   UNL     1      42.795 -14.475   5.583  1.00  0.00     0.197 C 
HETATM    3  N   UNL     1      42.233 -13.298   5.741  1.00  0.00    -0.122 NA
HETATM    4  N   UNL     1      41.271 -13.163   4.781  1.00  0.00    -0.128 NA
HETATM    5  C   UNL     1      41.245 -14.268   4.056  1.00  0.00     0.171 C 
ENDROOT
BRANCH   2   6
HETATM    6  S   UNL     1      44.074 -15.092   6.579  1.00  0.00    -0.080 SA
BRANCH   6   7
HETATM    7  C   UNL     1      45.296 -13.757   6.486  1.00  0.00     0.185 C 
BRANCH   7   8
HETATM    8  C   UNL     1      45.446 -13.025   7.812  1.00  0.00     0.231 C 
HETATM    9  N   UNL     1      44.257 -12.926   8.513  1.00  0.00    -0.327 N 
HETATM   10  H   UNL     1      43.504 -13.543   8.203  1.00  0.00     0.169 HD
HETATM   11  O   UNL     1      46.529 -12.558   8.155  1.00  0.00    -0.272 OA
BRANCH   9  12
HETATM   12  C   UNL     1      43.982 -12.156   9.658  1.00  0.00     0.034 A 
HETATM   13  C   UNL     1      44.206 -12.766  10.899  1.00  0.00     0.030 A 
HETATM   14  C   UNL     1      43.900 -12.100  12.092  1.00  0.00     0.019 A 
HETATM   15  C   UNL     1      43.362 -10.811  12.051  1.00  0.00     0.032 A 
HETATM   16  C   UNL     1      43.171 -10.186  10.815  1.00  0.00     0.019 A 
HETATM   17  C   UNL     1      43.474 -10.858   9.623  1.00  0.00     0.030 A 
BRANCH  15  18
HETATM   18  C   UNL     1      42.991 -10.071  13.285  1.00  0.00     0.249 C 
HETATM   19  N   UNL     1      41.775 -10.355  13.843  1.00  0.00    -0.366 N 
HETATM   20  H   UNL     1      41.055 -10.856  13.344  1.00  0.00     0.159 HD
HETATM   21  H   UNL     1      41.487  -9.756  14.607  1.00  0.00     0.159 HD
HETATM   22  O   UNL     1      43.715  -9.208  13.765  1.00  0.00    -0.268 OA
ENDBRANCH  15  18
ENDBRANCH   9  12
ENDBRANCH   7   8
ENDBRANCH   6   7
ENDBRANCH   2   6
BRANCH   1  23
HETATM   23  C   UNL     1      42.823 -16.218   3.771  1.00  0.00     0.049 A 
HETATM   24  C   UNL     1      42.570 -17.528   4.235  1.00  0.00    -0.035 A 
HETATM   25  C   UNL     1      41.687 -17.853   5.411  1.00  0.00     0.050 C 
HETATM   26  C   UNL     1      43.163 -18.601   3.547  1.00  0.00     0.009 A 
HETATM   27  C   UNL     1      43.946 -18.383   2.412  1.00  0.00     0.001 A 
HETATM   28  C   UNL     1      44.156 -17.089   1.945  1.00  0.00     0.002 A 
HETATM   29  C   UNL     1      43.598 -16.004   2.621  1.00  0.00     0.031 A 
ENDBRANCH   1  23
BRANCH   5  30
HETATM   30  C   UNL     1      40.168 -14.547   3.052  1.00  0.00     0.040 A 
HETATM   31  C   UNL     1      39.303 -13.584   2.443  1.00  0.00     0.006 A 
HETATM   32  C   UNL     1      38.444 -14.284   1.592  1.00  0.00     0.043 A 
HETATM   33  C   UNL     1      39.168 -12.181   2.516  1.00  0.00     0.015 A 
HETATM   34  C   UNL     1      37.462 -13.655   0.816  1.00  0.00     0.030 A 
HETATM   35  N   UNL     1      38.765 -15.617   1.696  1.00  0.00    -0.364 N 
HETATM   36  C   UNL     1      37.353 -12.266   0.910  1.00  0.00     0.002 A 
HETATM   37  C   UNL     1      38.192 -11.536   1.746  1.00  0.00     0.001 A 
HETATM   38  H   UNL     1      38.293 -16.360   1.198  1.00  0.00     0.165 HD
HETATM   39  C   UNL     1      39.799 -15.788   2.578  1.00  0.00     0.104 A 
ENDBRANCH   5  30
TORSDOF 7
ENDMDL
MODEL 7
REMARK VINA RESULT:      -9.7      4.681      8.725
REMARK  7 active torsions:
REMARK  status: ('A' for Active; 'I' for Inactive)
REMARK    1  A    between atoms: C_3  and  N_4 
REMARK    2  A    between atoms: C_5  and  S_6 
REMARK    3  A    between atoms: S_6  and  C_7 
REMARK    4  A    between atoms: C_7  and  C_8 
REMARK       I    between atoms: C_8  and  N_9 
REMARK    5  A    between atoms: N_9  and  C_10 
REMARK    6  A    between atoms: C_13  and  C_14 
REMARK       I    between atoms: C_14  and  N_15 
REMARK    7  A    between atoms: C_22  and  C_23 
ROOT
HETATM    1  N   UNL     1      40.699 -12.769   2.106  1.00  0.00    -0.271 N 
HETATM    2  C   UNL     1      41.110 -12.680   3.424  1.00  0.00     0.197 C 
HETATM    3  N   UNL     1      42.408 -12.862   3.503  1.00  0.00    -0.122 NA
HETATM    4  N   UNL     1      42.894 -12.955   2.231  1.00  0.00    -0.128 NA
HETATM    5  C   UNL     1      41.887 -12.815   1.386  1.00  0.00     0.171 C 
ENDROOT
BRANCH   2   6
HETATM    6  S   UNL     1      40.060 -12.502   4.793  1.00  0.00    -0.080 SA
BRANCH   6   7
HETATM    7  C   UNL     1      40.959 -13.415   6.075  1.00  0.00     0.185 C 
BRANCH   7   8
HETATM    8  C   UNL     1      41.117 -14.888   5.723  1.00  0.00     0.231 C 
HETATM    9  N   UNL     1      42.406 -15.219   5.346  1.00  0.00    -0.327 N 
HETATM   10  H   UNL     1      43.128 -14.535   5.577  1.00  0.00     0.169 HD
HETATM   11  O   UNL     1      40.154 -15.649   5.754  1.00  0.00    -0.272 OA
BRANCH   9  12
HETATM   12  C   UNL     1      42.864 -16.419   4.772  1.00  0.00     0.034 A 
HETATM   13  C   UNL     1      42.908 -16.475   3.373  1.00  0.00     0.030 A 
HETATM   14  C   UNL     1      43.288 -17.650   2.713  1.00  0.00     0.019 A 
HETATM   15  C   UNL     1      43.628 -18.785   3.454  1.00  0.00     0.032 A 
HETATM   16  C   UNL     1      43.619 -18.722   4.851  1.00  0.00     0.019 A 
HETATM   17  C   UNL     1      43.232 -17.546   5.507  1.00  0.00     0.030 A 
BRANCH  15  18
HETATM   18  C   UNL     1      44.009 -20.066   2.804  1.00  0.00     0.249 C 
HETATM   19  N   UNL     1      44.867 -20.884   3.488  1.00  0.00    -0.366 N 
HETATM   20  H   UNL     1      45.408 -20.561   4.276  1.00  0.00     0.159 HD
HETATM   21  H   UNL     1      45.212 -21.689   2.980  1.00  0.00     0.159 HD
HETATM   22  O   UNL     1      43.616 -20.367   1.685  1.00  0.00    -0.268 OA
ENDBRANCH  15  18
ENDBRANCH   9  12
ENDBRANCH   7   8
ENDBRANCH   6   7
ENDBRANCH   2   6
BRANCH   1  23
HETATM   23  C   UNL     1      39.375 -12.912   1.619  1.00  0.00     0.049 A 
HETATM   24  C   UNL     1      38.766 -14.183   1.527  1.00  0.00    -0.035 A 
HETATM   25  C   UNL     1      39.408 -15.464   1.990  1.00  0.00     0.050 C 
HETATM   26  C   UNL     1      37.470 -14.259   0.989  1.00  0.00     0.009 A 
HETATM   27  C   UNL     1      36.785 -13.109   0.594  1.00  0.00     0.001 A 
HETATM   28  C   UNL     1      37.385 -11.859   0.724  1.00  0.00     0.002 A 
HETATM   29  C   UNL     1      38.678 -11.756   1.234  1.00  0.00     0.031 A 
ENDBRANCH   1  23
BRANCH   5  30
HETATM   30  C   UNL     1      42.091 -12.653  -0.090  1.00  0.00     0.040 A 
HETATM   31  C   UNL     1      41.733 -13.594  -1.106  1.00  0.00     0.006 A 
HETATM   32  C   UNL     1      42.122 -13.045  -2.330  1.00  0.00     0.043 A 
HETATM   33  C   UNL     1      41.104 -14.858  -1.116  1.00  0.00     0.015 A 
HETATM   34  C   UNL     1      41.916 -13.691  -3.555  1.00  0.00     0.030 A 
HETATM   35  N   UNL     1      42.706 -11.829  -2.063  1.00  0.00    -0.364 N 
HETATM   36  C   UNL     1      41.291 -14.941  -3.532  1.00  0.00     0.002 A 
HETATM   37  C   UNL     1      40.889 -15.518  -2.331  1.00  0.00     0.001 A 
HETATM   38  H   UNL     1      43.095 -11.214  -2.765  1.00  0.00     0.165 HD
HETATM   39  C   UNL     1      42.699 -11.585  -0.715  1.00  0.00     0.104 A 
ENDBRANCH   5  30
TORSDOF 7
ENDMDL
MODEL 8
REMARK VINA RESULT:      -9.7      4.819      8.280
REMARK  7 active torsions:
REMARK  status: ('A' for Active; 'I' for Inactive)
REMARK    1  A    between atoms: C_3  and  N_4 
REMARK    2  A    between atoms: C_5  and  S_6 
REMARK    3  A    between atoms: S_6  and  C_7 
REMARK    4  A    between atoms: C_7  and  C_8 
REMARK       I    between atoms: C_8  and  N_9 
REMARK    5  A    between atoms: N_9  and  C_10 
REMARK    6  A    between atoms: C_13  and  C_14 
REMARK       I    between atoms: C_14  and  N_15 
REMARK    7  A    between atoms: C_22  and  C_23 
ROOT
HETATM    1  N   UNL     1      43.497 -16.489   5.130  1.00  0.00    -0.271 N 
HETATM    2  C   UNL     1      43.782 -15.186   5.499  1.00  0.00     0.197 C 
HETATM    3  N   UNL     1      43.983 -15.121   6.795  1.00  0.00    -0.122 NA
HETATM    4  N   UNL     1      43.951 -16.394   7.288  1.00  0.00    -0.128 NA
HETATM    5  C   UNL     1      43.745 -17.227   6.281  1.00  0.00     0.171 C 
ENDROOT
BRANCH   2   6
HETATM    6  S   UNL     1      43.741 -13.812   4.442  1.00  0.00    -0.080 SA
BRANCH   6   7
HETATM    7  C   UNL     1      42.003 -13.785   3.931  1.00  0.00     0.185 C 
BRANCH   7   8
HETATM    8  C   UNL     1      41.849 -13.506   2.442  1.00  0.00     0.231 C 
HETATM    9  N   UNL     1      40.796 -14.196   1.868  1.00  0.00    -0.327 N 
HETATM   10  H   UNL     1      40.117 -14.596   2.518  1.00  0.00     0.169 HD
HETATM   11  O   UNL     1      42.632 -12.763   1.857  1.00  0.00    -0.272 OA
BRANCH   9  12
HETATM   12  C   UNL     1      40.488 -14.335   0.502  1.00  0.00     0.034 A 
HETATM   13  C   UNL     1      39.284 -13.766   0.064  1.00  0.00     0.030 A 
HETATM   14  C   UNL     1      38.864 -13.911  -1.263  1.00  0.00     0.019 A 
HETATM   15  C   UNL     1      39.649 -14.631  -2.167  1.00  0.00     0.032 A 
HETATM   16  C   UNL     1      40.867 -15.170  -1.742  1.00  0.00     0.019 A 
HETATM   17  C   UNL     1      41.282 -15.028  -0.411  1.00  0.00     0.030 A 
BRANCH  15  18
HETATM   18  C   UNL     1      39.235 -14.840  -3.579  1.00  0.00     0.249 C 
HETATM   19  N   UNL     1      38.164 -14.119  -4.031  1.00  0.00    -0.366 N 
HETATM   20  H   UNL     1      37.530 -13.644  -3.406  1.00  0.00     0.159 HD
HETATM   21  H   UNL     1      37.821 -14.364  -4.952  1.00  0.00     0.159 HD
HETATM   22  O   UNL     1      39.792 -15.655  -4.303  1.00  0.00    -0.268 OA
ENDBRANCH  15  18
ENDBRANCH   9  12
ENDBRANCH   7   8
ENDBRANCH   6   7
ENDBRANCH   2   6
BRANCH   1  23
HETATM   23  C   UNL     1      42.952 -16.942   3.902  1.00  0.00     0.049 A 
HETATM   24  C   UNL     1      41.625 -17.421   3.826  1.00  0.00    -0.035 A 
HETATM   25  C   UNL     1      40.662 -17.430   4.983  1.00  0.00     0.050 C 
HETATM   26  C   UNL     1      41.164 -17.902   2.588  1.00  0.00     0.009 A 
HETATM   27  C   UNL     1      41.978 -17.869   1.455  1.00  0.00     0.001 A 
HETATM   28  C   UNL     1      43.272 -17.361   1.537  1.00  0.00     0.002 A 
HETATM   29  C   UNL     1      43.763 -16.898   2.757  1.00  0.00     0.031 A 
ENDBRANCH   1  23
BRANCH   5  30
HETATM   30  C   UNL     1      43.863 -18.713   6.430  1.00  0.00     0.040 A 
HETATM   31  C   UNL     1      44.233 -19.644   5.409  1.00  0.00     0.006 A 
HETATM   32  C   UNL     1      44.195 -20.918   5.981  1.00  0.00     0.043 A 
HETATM   33  C   UNL     1      44.610 -19.536   4.053  1.00  0.00     0.015 A 
HETATM   34  C   UNL     1      44.512 -22.081   5.270  1.00  0.00     0.030 A 
HETATM   35  N   UNL     1      43.802 -20.765   7.290  1.00  0.00    -0.364 N 
HETATM   36  C   UNL     1      44.882 -21.942   3.929  1.00  0.00     0.002 A 
HETATM   37  C   UNL     1      44.931 -20.689   3.327  1.00  0.00     0.001 A 
HETATM   38  H   UNL     1      43.676 -21.527   7.943  1.00  0.00     0.165 HD
HETATM   39  C   UNL     1      43.594 -19.440   7.571  1.00  0.00     0.104 A 
ENDBRANCH   5  30
TORSDOF 7
ENDMDL
MODEL 9
REMARK VINA RESULT:      -9.6      6.115     10.922
REMARK  7 active torsions:
REMARK  status: ('A' for Active; 'I' for Inactive)
REMARK    1  A    between atoms: C_3  and  N_4 
REMARK    2  A    between atoms: C_5  and  S_6 
REMARK    3  A    between atoms: S_6  and  C_7 
REMARK    4  A    between atoms: C_7  and  C_8 
REMARK       I    between atoms: C_8  and  N_9 
REMARK    5  A    between atoms: N_9  and  C_10 
REMARK    6  A    between atoms: C_13  and  C_14 
REMARK       I    between atoms: C_14  and  N_15 
REMARK    7  A    between atoms: C_22  and  C_23 
ROOT
HETATM    1  N   UNL     1      41.049 -12.940  -0.508  1.00  0.00    -0.271 N 
HETATM    2  C   UNL     1      41.528 -13.508   0.659  1.00  0.00     0.197 C 
HETATM    3  N   UNL     1      42.471 -12.752   1.173  1.00  0.00    -0.122 NA
HETATM    4  N   UNL     1      42.550 -11.615   0.421  1.00  0.00    -0.128 NA
HETATM    5  C   UNL     1      41.642 -11.683  -0.538  1.00  0.00     0.171 C 
ENDROOT
BRANCH   2   6
HETATM    6  S   UNL     1      41.064 -15.057   1.285  1.00  0.00    -0.080 SA
BRANCH   6   7
HETATM    7  C   UNL     1      41.595 -14.937   3.013  1.00  0.00     0.185 C 
BRANCH   7   8
HETATM    8  C   UNL     1      41.897 -16.302   3.615  1.00  0.00     0.231 C 
HETATM    9  N   UNL     1      43.087 -16.842   3.161  1.00  0.00    -0.327 N 
HETATM   10  H   UNL     1      43.723 -16.193   2.694  1.00  0.00     0.169 HD
HETATM   11  O   UNL     1      41.110 -16.835   4.392  1.00  0.00    -0.272 OA
BRANCH   9  12
HETATM   12  C   UNL     1      43.576 -18.149   3.344  1.00  0.00     0.034 A 
HETATM   13  C   UNL     1      43.397 -19.045   2.282  1.00  0.00     0.030 A 
HETATM   14  C   UNL     1      43.793 -20.383   2.398  1.00  0.00     0.019 A 
HETATM   15  C   UNL     1      44.372 -20.837   3.586  1.00  0.00     0.032 A 
HETATM   16  C   UNL     1      44.583 -19.937   4.635  1.00  0.00     0.019 A 
HETATM   17  C   UNL     1      44.181 -18.600   4.517  1.00  0.00     0.030 A 
BRANCH  15  18
HETATM   18  C   UNL     1      44.782 -22.253   3.774  1.00  0.00     0.249 C 
HETATM   19  N   UNL     1      45.202 -22.623   5.022  1.00  0.00    -0.366 N 
HETATM   20  H   UNL     1      45.453 -21.949   5.730  1.00  0.00     0.159 HD
HETATM   21  H   UNL     1      45.593 -23.554   5.101  1.00  0.00     0.159 HD
HETATM   22  O   UNL     1      44.791 -23.053   2.847  1.00  0.00    -0.268 OA
ENDBRANCH  15  18
ENDBRANCH   9  12
ENDBRANCH   7   8
ENDBRANCH   6   7
ENDBRANCH   2   6
BRANCH   1  23
HETATM   23  C   UNL     1      40.246 -13.551  -1.504  1.00  0.00     0.049 A 
HETATM   24  C   UNL     1      38.842 -13.395  -1.505  1.00  0.00    -0.035 A 
HETATM   25  C   UNL     1      38.086 -12.534  -0.528  1.00  0.00     0.050 C 
HETATM   26  C   UNL     1      38.101 -14.069  -2.491  1.00  0.00     0.009 A 
HETATM   27  C   UNL     1      38.736 -14.837  -3.469  1.00  0.00     0.001 A 
HETATM   28  C   UNL     1      40.123 -14.952  -3.477  1.00  0.00     0.002 A 
HETATM   29  C   UNL     1      40.882 -14.312  -2.498  1.00  0.00     0.031 A 
ENDBRANCH   1  23
BRANCH   5  30
HETATM   30  C   UNL     1      41.310 -10.515  -1.416  1.00  0.00     0.040 A 
HETATM   31  C   UNL     1      41.636 -10.372  -2.801  1.00  0.00     0.006 A 
HETATM   32  C   UNL     1      41.154  -9.125  -3.210  1.00  0.00     0.043 A 
HETATM   33  C   UNL     1      42.282 -11.181  -3.761  1.00  0.00     0.015 A 
HETATM   34  C   UNL     1      41.287  -8.651  -4.521  1.00  0.00     0.030 A 
HETATM   35  N   UNL     1      40.576  -8.532  -2.112  1.00  0.00    -0.364 N 
HETATM   36  C   UNL     1      41.931  -9.475  -5.447  1.00  0.00     0.002 A 
HETATM   37  C   UNL     1      42.422 -10.722  -5.076  1.00  0.00     0.001 A 
HETATM   38  H   UNL     1      40.156  -7.613  -2.113  1.00  0.00     0.165 HD
HETATM   39  C   UNL     1      40.670  -9.358  -1.023  1.00  0.00     0.104 A 
ENDBRANCH   5  30
TORSDOF 7
ENDMDL
MODEL 10
REMARK VINA RESULT:      -9.5      5.594     10.512
REMARK  7 active torsions:
REMARK  status: ('A' for Active; 'I' for Inactive)
REMARK    1  A    between atoms: C_3  and  N_4 
REMARK    2  A    between atoms: C_5  and  S_6 
REMARK    3  A    between atoms: S_6  and  C_7 
REMARK    4  A    between atoms: C_7  and  C_8 
REMARK       I    between atoms: C_8  and  N_9 
REMARK    5  A    between atoms: N_9  and  C_10 
REMARK    6  A    between atoms: C_13  and  C_14 
REMARK       I    between atoms: C_14  and  N_15 
REMARK    7  A    between atoms: C_22  and  C_23 
ROOT
HETATM    1  N   UNL     1      40.574 -12.639   0.634  1.00  0.00    -0.271 N 
HETATM    2  C   UNL     1      40.809 -13.449   1.731  1.00  0.00     0.197 C 
HETATM    3  N   UNL     1      39.674 -13.751   2.318  1.00  0.00    -0.122 NA
HETATM    4  N   UNL     1      38.662 -13.245   1.554  1.00  0.00    -0.128 NA
HETATM    5  C   UNL     1      39.191 -12.650   0.498  1.00  0.00     0.171 C 
ENDROOT
BRANCH   2   6
HETATM    6  S   UNL     1      42.374 -13.890   2.336  1.00  0.00    -0.080 SA
BRANCH   6   7
HETATM    7  C   UNL     1      41.979 -14.462   4.009  1.00  0.00     0.185 C 
BRANCH   7   8
HETATM    8  C   UNL     1      41.979 -15.981   4.109  1.00  0.00     0.231 C 
HETATM    9  N   UNL     1      43.119 -16.559   3.579  1.00  0.00    -0.327 N 
HETATM   10  H   UNL     1      43.906 -15.928   3.420  1.00  0.00     0.169 HD
HETATM   11  O   UNL     1      41.020 -16.580   4.588  1.00  0.00    -0.272 OA
BRANCH   9  12
HETATM   12  C   UNL     1      43.366 -17.920   3.322  1.00  0.00     0.034 A 
HETATM   13  C   UNL     1      44.067 -18.632   4.304  1.00  0.00     0.030 A 
HETATM   14  C   UNL     1      44.414 -19.974   4.106  1.00  0.00     0.019 A 
HETATM   15  C   UNL     1      44.063 -20.616   2.916  1.00  0.00     0.032 A 
HETATM   16  C   UNL     1      43.333 -19.918   1.949  1.00  0.00     0.019 A 
HETATM   17  C   UNL     1      42.991 -18.574   2.148  1.00  0.00     0.030 A 
BRANCH  15  18
HETATM   18  C   UNL     1      44.433 -22.029   2.642  1.00  0.00     0.249 C 
HETATM   19  N   UNL     1      44.722 -22.820   3.720  1.00  0.00    -0.366 N 
HETATM   20  H   UNL     1      44.911 -22.439   4.636  1.00  0.00     0.159 HD
HETATM   21  H   UNL     1      45.092 -23.740   3.509  1.00  0.00     0.159 HD
HETATM   22  O   UNL     1      44.524 -22.465   1.502  1.00  0.00    -0.268 OA
ENDBRANCH  15  18
ENDBRANCH   9  12
ENDBRANCH   7   8
ENDBRANCH   6   7
ENDBRANCH   2   6
BRANCH   1  23
HETATM   23  C   UNL     1      41.517 -11.872  -0.095  1.00  0.00     0.049 A 
HETATM   24  C   UNL     1      42.094 -12.368  -1.286  1.00  0.00    -0.035 A 
HETATM   25  C   UNL     1      41.726 -13.683  -1.920  1.00  0.00     0.050 C 
HETATM   26  C   UNL     1      43.060 -11.578  -1.933  1.00  0.00     0.009 A 
HETATM   27  C   UNL     1      43.410 -10.321  -1.439  1.00  0.00     0.001 A 
HETATM   28  C   UNL     1      42.806  -9.830  -0.285  1.00  0.00     0.002 A 
HETATM   29  C   UNL     1      41.861 -10.601   0.390  1.00  0.00     0.031 A 
ENDBRANCH   1  23
BRANCH   5  30
HETATM   30  C   UNL     1      38.362 -12.172  -0.655  1.00  0.00     0.040 A 
HETATM   31  C   UNL     1      37.935 -12.949  -1.776  1.00  0.00     0.006 A 
HETATM   32  C   UNL     1      37.206 -12.099  -2.612  1.00  0.00     0.043 A 
HETATM   33  C   UNL     1      38.081 -14.299  -2.166  1.00  0.00     0.015 A 
HETATM   34  C   UNL     1      36.621 -12.528  -3.810  1.00  0.00     0.030 A 
HETATM   35  N   UNL     1      37.207 -10.855  -2.027  1.00  0.00    -0.364 N 
HETATM   36  C   UNL     1      36.783 -13.868  -4.168  1.00  0.00     0.002 A 
HETATM   37  C   UNL     1      37.501 -14.743  -3.360  1.00  0.00     0.001 A 
HETATM   38  H   UNL     1      36.764 -10.036  -2.422  1.00  0.00     0.165 HD
HETATM   39  C   UNL     1      37.906 -10.885  -0.849  1.00  0.00     0.104 A 
ENDBRANCH   5  30
TORSDOF 7
ENDMDL
