MODEL 1
REMARK VINA RESULT:      -8.3      0.000      0.000
REMARK  5 active torsions:
REMARK  status: ('A' for Active; 'I' for Inactive)
REMARK    1  A    between atoms: C_3  and  S_4 
REMARK    2  A    between atoms: S_4  and  C_5 
REMARK    3  A    between atoms: C_5  and  C_6 
REMARK       I    between atoms: C_6  and  N_7 
REMARK    4  A    between atoms: N_7  and  C_8 
REMARK    5  A    between atoms: C_10  and  C_11 
ROOT
HETATM    1  C   UNL     1      42.320 -16.854   4.092  1.00  0.00     0.231 C 
HETATM    2  N   UNL     1      41.492 -17.146   3.017  1.00  0.00    -0.327 N 
HETATM    3  O   UNL     1      42.780 -15.753   4.380  1.00  0.00    -0.272 OA
HETATM    4  H   UNL     1      41.350 -18.129   2.819  1.00  0.00     0.169 HD
ENDROOT
BRANCH   2   5
HETATM    5  C   UNL     1      40.884 -16.232   2.132  1.00  0.00     0.035 A 
HETATM    6  C   UNL     1      41.290 -16.045   0.807  1.00  0.00     0.042 A 
HETATM    7  C   UNL     1      40.674 -15.089  -0.020  1.00  0.00    -0.021 A 
HETATM    8  C   UNL     1      39.638 -14.312   0.511  1.00  0.00     0.012 A 
HETATM    9  C   UNL     1      39.225 -14.487   1.833  1.00  0.00     0.003 A 
HETATM   10  C   UNL     1      39.846 -15.442   2.639  1.00  0.00     0.029 A 
BRANCH   7  11
HETATM   11  C   UNL     1      41.110 -14.890  -1.394  1.00  0.00     0.010 A 
HETATM   12  C   UNL     1      40.898 -15.668  -2.559  1.00  0.00     0.152 A 
HETATM   13  N   UNL     1      41.472 -15.145  -3.647  1.00  0.00    -0.187 NA
HETATM   14  N   UNL     1      42.053 -14.027  -3.186  1.00  0.00    -0.289 N 
HETATM   15  H   UNL     1      42.563 -13.443  -3.840  1.00  0.00     0.188 HD
HETATM   16  C   UNL     1      41.871 -13.831  -1.848  1.00  0.00     0.123 A 
ENDBRANCH   7  11
ENDBRANCH   2   5
BRANCH   1  17
HETATM   17  C   UNL     1      42.579 -18.059   4.978  1.00  0.00     0.182 C 
BRANCH  17  18
HETATM   18  S   UNL     1      44.364 -18.364   5.145  1.00  0.00    -0.120 SA
BRANCH  18  19
HETATM   19  C   UNL     1      44.426 -20.020   4.465  1.00  0.00     0.006 A 
HETATM   20  C   UNL     1      44.296 -20.316   3.093  1.00  0.00    -0.045 A 
HETATM   21  C   UNL     1      44.053 -19.270   2.039  1.00  0.00     0.049 C 
HETATM   22  C   UNL     1      44.431 -21.652   2.671  1.00  0.00     0.008 A 
HETATM   23  C   UNL     1      44.644 -22.679   3.590  1.00  0.00     0.001 A 
HETATM   24  C   UNL     1      44.727 -22.388   4.947  1.00  0.00     0.001 A 
HETATM   25  C   UNL     1      44.618 -21.067   5.380  1.00  0.00     0.019 A 
ENDBRANCH  18  19
ENDBRANCH  17  18
ENDBRANCH   1  17
TORSDOF 5
ENDMDL
MODEL 2
REMARK VINA RESULT:      -8.3      1.813      2.745
REMARK  5 active torsions:
REMARK  status: ('A' for Active; 'I' for Inactive)
REMARK    1  A    between atoms: C_3  and  S_4 
REMARK    2  A    between atoms: S_4  and  C_5 
REMARK    3  A    between atoms: C_5  and  C_6 
REMARK       I    between atoms: C_6  and  N_7 
REMARK    4  A    between atoms: N_7  and  C_8 
REMARK    5  A    between atoms: C_10  and  C_11 
ROOT
HETATM    1  C   UNL     1      42.454 -17.821   5.297  1.00  0.00     0.231 C 
HETATM    2  N   UNL     1      43.276 -16.765   4.927  1.00  0.00    -0.327 N 
HETATM    3  O   UNL     1      41.259 -17.938   5.045  1.00  0.00    -0.272 OA
HETATM    4  H   UNL     1      44.188 -16.736   5.366  1.00  0.00     0.169 HD
ENDROOT
BRANCH   2   5
HETATM    5  C   UNL     1      42.959 -15.695   4.065  1.00  0.00     0.035 A 
HETATM    6  C   UNL     1      42.525 -15.862   2.746  1.00  0.00     0.042 A 
HETATM    7  C   UNL     1      42.262 -14.758   1.917  1.00  0.00    -0.021 A 
HETATM    8  C   UNL     1      42.448 -13.471   2.435  1.00  0.00     0.012 A 
HETATM    9  C   UNL     1      42.881 -13.291   3.750  1.00  0.00     0.003 A 
HETATM   10  C   UNL     1      43.136 -14.399   4.559  1.00  0.00     0.029 A 
BRANCH   7  11
HETATM   11  C   UNL     1      41.823 -14.938   0.540  1.00  0.00     0.010 A 
HETATM   12  C   UNL     1      41.668 -14.006  -0.516  1.00  0.00     0.152 A 
HETATM   13  N   UNL     1      41.233 -14.568  -1.647  1.00  0.00    -0.187 NA
HETATM   14  N   UNL     1      41.110 -15.864  -1.324  1.00  0.00    -0.289 N 
HETATM   15  H   UNL     1      40.788 -16.511  -2.036  1.00  0.00     0.188 HD
HETATM   16  C   UNL     1      41.445 -16.137  -0.030  1.00  0.00     0.123 A 
ENDBRANCH   7  11
ENDBRANCH   2   5
BRANCH   1  17
HETATM   17  C   UNL     1      43.204 -18.921   6.026  1.00  0.00     0.182 C 
BRANCH  17  18
HETATM   18  S   UNL     1      44.894 -19.090   5.375  1.00  0.00    -0.120 SA
BRANCH  18  19
HETATM   19  C   UNL     1      44.551 -20.176   3.992  1.00  0.00     0.006 A 
HETATM   20  C   UNL     1      44.705 -21.576   4.030  1.00  0.00    -0.045 A 
HETATM   21  C   UNL     1      45.213 -22.321   5.235  1.00  0.00     0.049 C 
HETATM   22  C   UNL     1      44.337 -22.330   2.901  1.00  0.00     0.008 A 
HETATM   23  C   UNL     1      43.871 -21.710   1.741  1.00  0.00     0.001 A 
HETATM   24  C   UNL     1      43.764 -20.325   1.692  1.00  0.00     0.001 A 
HETATM   25  C   UNL     1      44.102 -19.564   2.811  1.00  0.00     0.019 A 
ENDBRANCH  18  19
ENDBRANCH  17  18
ENDBRANCH   1  17
TORSDOF 5
ENDMDL
MODEL 3
REMARK VINA RESULT:      -8.1      3.450      7.001
REMARK  5 active torsions:
REMARK  status: ('A' for Active; 'I' for Inactive)
REMARK    1  A    between atoms: C_3  and  S_4 
REMARK    2  A    between atoms: S_4  and  C_5 
REMARK    3  A    between atoms: C_5  and  C_6 
REMARK       I    between atoms: C_6  and  N_7 
REMARK    4  A    between atoms: N_7  and  C_8 
REMARK    5  A    between atoms: C_10  and  C_11 
ROOT
HETATM    1  C   UNL     1      42.284 -14.331   2.783  1.00  0.00     0.231 C 
HETATM    2  N   UNL     1      43.438 -15.099   2.865  1.00  0.00    -0.327 N 
HETATM    3  O   UNL     1      41.193 -14.698   2.359  1.00  0.00    -0.272 OA
HETATM    4  H   UNL     1      44.294 -14.596   3.068  1.00  0.00     0.169 HD
ENDROOT
BRANCH   2   5
HETATM    5  C   UNL     1      43.563 -16.484   2.630  1.00  0.00     0.035 A 
HETATM    6  C   UNL     1      43.751 -17.430   3.642  1.00  0.00     0.042 A 
HETATM    7  C   UNL     1      43.910 -18.795   3.346  1.00  0.00    -0.021 A 
HETATM    8  C   UNL     1      43.883 -19.199   2.006  1.00  0.00     0.012 A 
HETATM    9  C   UNL     1      43.697 -18.264   0.987  1.00  0.00     0.003 A 
HETATM   10  C   UNL     1      43.539 -16.913   1.298  1.00  0.00     0.029 A 
BRANCH   7  11
HETATM   11  C   UNL     1      44.119 -19.775   4.403  1.00  0.00     0.010 A 
HETATM   12  C   UNL     1      43.784 -19.744   5.779  1.00  0.00     0.152 A 
HETATM   13  N   UNL     1      44.152 -20.851   6.430  1.00  0.00    -0.187 NA
HETATM   14  N   UNL     1      44.724 -21.600   5.474  1.00  0.00    -0.289 N 
HETATM   15  H   UNL     1      45.090 -22.511   5.729  1.00  0.00     0.188 HD
HETATM   16  C   UNL     1      44.734 -21.001   4.248  1.00  0.00     0.123 A 
ENDBRANCH   7  11
ENDBRANCH   2   5
BRANCH   1  17
HETATM   17  C   UNL     1      42.466 -12.936   3.353  1.00  0.00     0.182 C 
BRANCH  17  18
HETATM   18  S   UNL     1      41.632 -12.783   4.961  1.00  0.00    -0.120 SA
BRANCH  18  19
HETATM   19  C   UNL     1      42.485 -14.089   5.841  1.00  0.00     0.006 A 
HETATM   20  C   UNL     1      41.905 -15.330   6.170  1.00  0.00    -0.045 A 
HETATM   21  C   UNL     1      40.480 -15.690   5.847  1.00  0.00     0.049 C 
HETATM   22  C   UNL     1      42.699 -16.304   6.803  1.00  0.00     0.008 A 
HETATM   23  C   UNL     1      44.025 -16.041   7.146  1.00  0.00     0.001 A 
HETATM   24  C   UNL     1      44.580 -14.798   6.861  1.00  0.00     0.001 A 
HETATM   25  C   UNL     1      43.814 -13.830   6.213  1.00  0.00     0.019 A 
ENDBRANCH  18  19
ENDBRANCH  17  18
ENDBRANCH   1  17
TORSDOF 5
ENDMDL
MODEL 4
REMARK VINA RESULT:      -8.0      3.352      6.810
REMARK  5 active torsions:
REMARK  status: ('A' for Active; 'I' for Inactive)
REMARK    1  A    between atoms: C_3  and  S_4 
REMARK    2  A    between atoms: S_4  and  C_5 
REMARK    3  A    between atoms: C_5  and  C_6 
REMARK       I    between atoms: C_6  and  N_7 
REMARK    4  A    between atoms: N_7  and  C_8 
REMARK    5  A    between atoms: C_10  and  C_11 
ROOT
HETATM    1  C   UNL     1      43.176 -13.852   3.876  1.00  0.00     0.231 C 
HETATM    2  N   UNL     1      42.680 -14.912   4.623  1.00  0.00    -0.327 N 
HETATM    3  O   UNL     1      44.352 -13.653   3.583  1.00  0.00    -0.272 OA
HETATM    4  H   UNL     1      41.717 -14.832   4.924  1.00  0.00     0.169 HD
ENDROOT
BRANCH   2   5
HETATM    5  C   UNL     1      43.385 -16.051   5.065  1.00  0.00     0.035 A 
HETATM    6  C   UNL     1      43.503 -17.229   4.320  1.00  0.00     0.042 A 
HETATM    7  C   UNL     1      44.183 -18.350   4.828  1.00  0.00    -0.021 A 
HETATM    8  C   UNL     1      44.743 -18.272   6.109  1.00  0.00     0.012 A 
HETATM    9  C   UNL     1      44.631 -17.102   6.861  1.00  0.00     0.003 A 
HETATM   10  C   UNL     1      43.954 -15.998   6.342  1.00  0.00     0.029 A 
BRANCH   7  11
HETATM   11  C   UNL     1      44.291 -19.579   4.054  1.00  0.00     0.010 A 
HETATM   12  C   UNL     1      43.994 -19.853   2.697  1.00  0.00     0.152 A 
HETATM   13  N   UNL     1      44.227 -21.123   2.358  1.00  0.00    -0.187 NA
HETATM   14  N   UNL     1      44.678 -21.672   3.496  1.00  0.00    -0.289 N 
HETATM   15  H   UNL     1      44.929 -22.655   3.492  1.00  0.00     0.188 HD
HETATM   16  C   UNL     1      44.731 -20.794   4.539  1.00  0.00     0.123 A 
ENDBRANCH   7  11
ENDBRANCH   2   5
BRANCH   1  17
HETATM   17  C   UNL     1      42.082 -12.934   3.361  1.00  0.00     0.182 C 
BRANCH  17  18
HETATM   18  S   UNL     1      41.876 -13.124   1.564  1.00  0.00    -0.120 SA
BRANCH  18  19
HETATM   19  C   UNL     1      41.539 -14.883   1.509  1.00  0.00     0.006 A 
HETATM   20  C   UNL     1      40.336 -15.471   1.946  1.00  0.00    -0.045 A 
HETATM   21  C   UNL     1      39.200 -14.687   2.546  1.00  0.00     0.049 C 
HETATM   22  C   UNL     1      40.162 -16.858   1.788  1.00  0.00     0.008 A 
HETATM   23  C   UNL     1      41.174 -17.654   1.252  1.00  0.00     0.001 A 
HETATM   24  C   UNL     1      42.377 -17.077   0.864  1.00  0.00     0.001 A 
HETATM   25  C   UNL     1      42.558 -15.700   0.992  1.00  0.00     0.019 A 
ENDBRANCH  18  19
ENDBRANCH  17  18
ENDBRANCH   1  17
TORSDOF 5
ENDMDL
MODEL 5
REMARK VINA RESULT:      -8.0      2.826      3.970
REMARK  5 active torsions:
REMARK  status: ('A' for Active; 'I' for Inactive)
REMARK    1  A    between atoms: C_3  and  S_4 
REMARK    2  A    between atoms: S_4  and  C_5 
REMARK    3  A    between atoms: C_5  and  C_6 
REMARK       I    between atoms: C_6  and  N_7 
REMARK    4  A    between atoms: N_7  and  C_8 
REMARK    5  A    between atoms: C_10  and  C_11 
ROOT
HETATM    1  C   UNL     1      41.944 -16.893   0.662  1.00  0.00     0.231 C 
HETATM    2  N   UNL     1      42.053 -15.861  -0.261  1.00  0.00    -0.327 N 
HETATM    3  O   UNL     1      40.902 -17.385   1.086  1.00  0.00    -0.272 OA
HETATM    4  H   UNL     1      42.974 -15.455  -0.366  1.00  0.00     0.169 HD
ENDROOT
BRANCH   2   5
HETATM    5  C   UNL     1      41.016 -15.273  -1.013  1.00  0.00     0.035 A 
HETATM    6  C   UNL     1      40.023 -14.455  -0.464  1.00  0.00     0.042 A 
HETATM    7  C   UNL     1      38.988 -13.929  -1.255  1.00  0.00    -0.021 A 
HETATM    8  C   UNL     1      38.960 -14.243  -2.619  1.00  0.00     0.012 A 
HETATM    9  C   UNL     1      39.944 -15.059  -3.180  1.00  0.00     0.003 A 
HETATM   10  C   UNL     1      40.966 -15.572  -2.380  1.00  0.00     0.029 A 
BRANCH   7  11
HETATM   11  C   UNL     1      37.950 -13.089  -0.675  1.00  0.00     0.010 A 
HETATM   12  C   UNL     1      37.273 -11.956  -1.191  1.00  0.00     0.152 A 
HETATM   13  N   UNL     1      36.376 -11.452  -0.340  1.00  0.00    -0.187 NA
HETATM   14  N   UNL     1      36.470 -12.260   0.727  1.00  0.00    -0.289 N 
HETATM   15  H   UNL     1      35.872 -12.077   1.526  1.00  0.00     0.188 HD
HETATM   16  C   UNL     1      37.398 -13.249   0.580  1.00  0.00     0.123 A 
ENDBRANCH   7  11
ENDBRANCH   2   5
BRANCH   1  17
HETATM   17  C   UNL     1      43.292 -17.447   1.086  1.00  0.00     0.182 C 
BRANCH  17  18
HETATM   18  S   UNL     1      43.365 -17.654   2.891  1.00  0.00    -0.120 SA
BRANCH  18  19
HETATM   19  C   UNL     1      43.837 -19.381   2.952  1.00  0.00     0.006 A 
HETATM   20  C   UNL     1      44.498 -19.981   4.042  1.00  0.00    -0.045 A 
HETATM   21  C   UNL     1      44.917 -19.226   5.275  1.00  0.00     0.049 C 
HETATM   22  C   UNL     1      44.755 -21.364   4.002  1.00  0.00     0.008 A 
HETATM   23  C   UNL     1      44.408 -22.129   2.889  1.00  0.00     0.001 A 
HETATM   24  C   UNL     1      43.797 -21.524   1.796  1.00  0.00     0.001 A 
HETATM   25  C   UNL     1      43.514 -20.159   1.829  1.00  0.00     0.019 A 
ENDBRANCH  18  19
ENDBRANCH  17  18
ENDBRANCH   1  17
TORSDOF 5
ENDMDL
MODEL 6
REMARK VINA RESULT:      -7.9      3.209      6.843
REMARK  5 active torsions:
REMARK  status: ('A' for Active; 'I' for Inactive)
REMARK    1  A    between atoms: C_3  and  S_4 
REMARK    2  A    between atoms: S_4  and  C_5 
REMARK    3  A    between atoms: C_5  and  C_6 
REMARK       I    between atoms: C_6  and  N_7 
REMARK    4  A    between atoms: N_7  and  C_8 
REMARK    5  A    between atoms: C_10  and  C_11 
ROOT
HETATM    1  C   UNL     1      41.632 -15.455   5.166  1.00  0.00     0.231 C 
HETATM    2  N   UNL     1      42.824 -15.839   4.567  1.00  0.00    -0.327 N 
HETATM    3  O   UNL     1      40.938 -16.139   5.912  1.00  0.00    -0.272 OA
HETATM    4  H   UNL     1      43.176 -15.225   3.842  1.00  0.00     0.169 HD
ENDROOT
BRANCH   2   5
HETATM    5  C   UNL     1      43.561 -17.018   4.804  1.00  0.00     0.035 A 
HETATM    6  C   UNL     1      43.557 -18.123   3.947  1.00  0.00     0.042 A 
HETATM    7  C   UNL     1      44.278 -19.290   4.255  1.00  0.00    -0.021 A 
HETATM    8  C   UNL     1      45.006 -19.333   5.450  1.00  0.00     0.012 A 
HETATM    9  C   UNL     1      45.017 -18.237   6.314  1.00  0.00     0.003 A 
HETATM   10  C   UNL     1      44.297 -17.086   5.992  1.00  0.00     0.029 A 
BRANCH   7  11
HETATM   11  C   UNL     1      44.260 -20.442   3.365  1.00  0.00     0.010 A 
HETATM   12  C   UNL     1      44.667 -21.784   3.572  1.00  0.00     0.152 A 
HETATM   13  N   UNL     1      44.493 -22.553   2.494  1.00  0.00    -0.187 NA
HETATM   14  N   UNL     1      43.970 -21.711   1.590  1.00  0.00    -0.289 N 
HETATM   15  H   UNL     1      43.744 -22.071   0.669  1.00  0.00     0.188 HD
HETATM   16  C   UNL     1      43.815 -20.439   2.058  1.00  0.00     0.123 A 
ENDBRANCH   7  11
ENDBRANCH   2   5
BRANCH   1  17
HETATM   17  C   UNL     1      41.261 -14.014   4.866  1.00  0.00     0.182 C 
BRANCH  17  18
HETATM   18  S   UNL     1      39.897 -13.937   3.667  1.00  0.00    -0.120 SA
BRANCH  18  19
HETATM   19  C   UNL     1      40.582 -15.000   2.398  1.00  0.00     0.006 A 
HETATM   20  C   UNL     1      41.534 -14.582   1.447  1.00  0.00    -0.045 A 
HETATM   21  C   UNL     1      42.062 -13.175   1.367  1.00  0.00     0.049 C 
HETATM   22  C   UNL     1      42.050 -15.528   0.542  1.00  0.00     0.008 A 
HETATM   23  C   UNL     1      41.600 -16.848   0.546  1.00  0.00     0.001 A 
HETATM   24  C   UNL     1      40.627 -17.245   1.456  1.00  0.00     0.001 A 
HETATM   25  C   UNL     1      40.122 -16.326   2.376  1.00  0.00     0.019 A 
ENDBRANCH  18  19
ENDBRANCH  17  18
ENDBRANCH   1  17
TORSDOF 5
ENDMDL
MODEL 7
REMARK VINA RESULT:      -7.8      3.041      7.626
REMARK  5 active torsions:
REMARK  status: ('A' for Active; 'I' for Inactive)
REMARK    1  A    between atoms: C_3  and  S_4 
REMARK    2  A    between atoms: S_4  and  C_5 
REMARK    3  A    between atoms: C_5  and  C_6 
REMARK       I    between atoms: C_6  and  N_7 
REMARK    4  A    between atoms: N_7  and  C_8 
REMARK    5  A    between atoms: C_10  and  C_11 
ROOT
HETATM    1  C   UNL     1      40.957 -16.403   1.546  1.00  0.00     0.231 C 
HETATM    2  N   UNL     1      42.299 -16.753   1.612  1.00  0.00    -0.327 N 
HETATM    3  O   UNL     1      40.023 -16.987   2.088  1.00  0.00    -0.272 OA
HETATM    4  H   UNL     1      42.915 -16.276   0.966  1.00  0.00     0.169 HD
ENDROOT
BRANCH   2   5
HETATM    5  C   UNL     1      42.886 -17.744   2.427  1.00  0.00     0.035 A 
HETATM    6  C   UNL     1      42.926 -17.678   3.823  1.00  0.00     0.042 A 
HETATM    7  C   UNL     1      43.561 -18.675   4.584  1.00  0.00    -0.021 A 
HETATM    8  C   UNL     1      44.166 -19.746   3.915  1.00  0.00     0.012 A 
HETATM    9  C   UNL     1      44.133 -19.822   2.522  1.00  0.00     0.003 A 
HETATM   10  C   UNL     1      43.496 -18.825   1.782  1.00  0.00     0.029 A 
BRANCH   7  11
HETATM   11  C   UNL     1      43.612 -18.595   6.037  1.00  0.00     0.010 A 
HETATM   12  C   UNL     1      43.438 -17.497   6.915  1.00  0.00     0.152 A 
HETATM   13  N   UNL     1      43.567 -17.833   8.202  1.00  0.00    -0.187 NA
HETATM   14  N   UNL     1      43.822 -19.149   8.156  1.00  0.00    -0.289 N 
HETATM   15  H   UNL     1      43.960 -19.645   9.031  1.00  0.00     0.188 HD
HETATM   16  C   UNL     1      43.864 -19.652   6.889  1.00  0.00     0.123 A 
ENDBRANCH   7  11
ENDBRANCH   2   5
BRANCH   1  17
HETATM   17  C   UNL     1      40.722 -15.126   0.760  1.00  0.00     0.182 C 
BRANCH  17  18
HETATM   18  S   UNL     1      40.151 -13.791   1.855  1.00  0.00    -0.120 SA
BRANCH  18  19
HETATM   19  C   UNL     1      41.409 -13.917   3.124  1.00  0.00     0.006 A 
HETATM   20  C   UNL     1      41.140 -14.212   4.475  1.00  0.00    -0.045 A 
HETATM   21  C   UNL     1      39.753 -14.423   5.018  1.00  0.00     0.049 C 
HETATM   22  C   UNL     1      42.221 -14.352   5.366  1.00  0.00     0.008 A 
HETATM   23  C   UNL     1      43.535 -14.158   4.941  1.00  0.00     0.001 A 
HETATM   24  C   UNL     1      43.792 -13.823   3.617  1.00  0.00     0.001 A 
HETATM   25  C   UNL     1      42.735 -13.703   2.715  1.00  0.00     0.019 A 
ENDBRANCH  18  19
ENDBRANCH  17  18
ENDBRANCH   1  17
TORSDOF 5
ENDMDL
MODEL 8
REMARK VINA RESULT:      -7.8      3.334      8.119
REMARK  5 active torsions:
REMARK  status: ('A' for Active; 'I' for Inactive)
REMARK    1  A    between atoms: C_3  and  S_4 
REMARK    2  A    between atoms: S_4  and  C_5 
REMARK    3  A    between atoms: C_5  and  C_6 
REMARK       I    between atoms: C_6  and  N_7 
REMARK    4  A    between atoms: N_7  and  C_8 
REMARK    5  A    between atoms: C_10  and  C_11 
ROOT
HETATM    1  C   UNL     1      39.394 -14.994   2.104  1.00  0.00     0.231 C 
HETATM    2  N   UNL     1      39.659 -16.347   1.940  1.00  0.00    -0.327 N 
HETATM    3  O   UNL     1      40.025 -14.207   2.804  1.00  0.00    -0.272 OA
HETATM    4  H   UNL     1      38.941 -16.887   1.474  1.00  0.00     0.169 HD
ENDROOT
BRANCH   2   5
HETATM    5  C   UNL     1      40.781 -17.062   2.408  1.00  0.00     0.035 A 
HETATM    6  C   UNL     1      41.113 -17.189   3.760  1.00  0.00     0.042 A 
HETATM    7  C   UNL     1      42.267 -17.881   4.168  1.00  0.00    -0.021 A 
HETATM    8  C   UNL     1      43.094 -18.443   3.188  1.00  0.00     0.012 A 
HETATM    9  C   UNL     1      42.773 -18.322   1.835  1.00  0.00     0.003 A 
HETATM   10  C   UNL     1      41.623 -17.634   1.448  1.00  0.00     0.029 A 
BRANCH   7  11
HETATM   11  C   UNL     1      42.615 -17.998   5.577  1.00  0.00     0.010 A 
HETATM   12  C   UNL     1      43.463 -18.910   6.253  1.00  0.00     0.152 A 
HETATM   13  N   UNL     1      43.522 -18.691   7.569  1.00  0.00    -0.187 NA
HETATM   14  N   UNL     1      42.713 -17.635   7.745  1.00  0.00    -0.289 N 
HETATM   15  H   UNL     1      42.591 -17.272   8.685  1.00  0.00     0.188 HD
HETATM   16  C   UNL     1      42.144 -17.187   6.589  1.00  0.00     0.123 A 
ENDBRANCH   7  11
ENDBRANCH   2   5
BRANCH   1  17
HETATM   17  C   UNL     1      38.234 -14.515   1.251  1.00  0.00     0.182 C 
BRANCH  17  18
HETATM   18  S   UNL     1      38.746 -13.132   0.187  1.00  0.00    -0.120 SA
BRANCH  18  19
HETATM   19  C   UNL     1      39.141 -14.055  -1.296  1.00  0.00     0.006 A 
HETATM   20  C   UNL     1      40.405 -14.618  -1.563  1.00  0.00    -0.045 A 
HETATM   21  C   UNL     1      41.586 -14.477  -0.641  1.00  0.00     0.049 C 
HETATM   22  C   UNL     1      40.574 -15.381  -2.733  1.00  0.00     0.008 A 
HETATM   23  C   UNL     1      39.530 -15.545  -3.644  1.00  0.00     0.001 A 
HETATM   24  C   UNL     1      38.298 -14.950  -3.399  1.00  0.00     0.001 A 
HETATM   25  C   UNL     1      38.106 -14.209  -2.233  1.00  0.00     0.019 A 
ENDBRANCH  18  19
ENDBRANCH  17  18
ENDBRANCH   1  17
TORSDOF 5
ENDMDL
MODEL 9
REMARK VINA RESULT:      -7.8      1.650      2.340
REMARK  5 active torsions:
REMARK  status: ('A' for Active; 'I' for Inactive)
REMARK    1  A    between atoms: C_3  and  S_4 
REMARK    2  A    between atoms: S_4  and  C_5 
REMARK    3  A    between atoms: C_5  and  C_6 
REMARK       I    between atoms: C_6  and  N_7 
REMARK    4  A    between atoms: N_7  and  C_8 
REMARK    5  A    between atoms: C_10  and  C_11 
ROOT
HETATM    1  C   UNL     1      40.969 -17.121   2.200  1.00  0.00     0.231 C 
HETATM    2  N   UNL     1      40.458 -15.834   2.304  1.00  0.00    -0.327 N 
HETATM    3  O   UNL     1      40.825 -17.888   1.252  1.00  0.00    -0.272 OA
HETATM    4  H   UNL     1      40.516 -15.406   3.220  1.00  0.00     0.169 HD
ENDROOT
BRANCH   2   5
HETATM    5  C   UNL     1      39.809 -15.087   1.300  1.00  0.00     0.035 A 
HETATM    6  C   UNL     1      40.435 -14.650   0.128  1.00  0.00     0.042 A 
HETATM    7  C   UNL     1      39.750 -13.873  -0.821  1.00  0.00    -0.021 A 
HETATM    8  C   UNL     1      38.415 -13.532  -0.572  1.00  0.00     0.012 A 
HETATM    9  C   UNL     1      37.779 -13.961   0.595  1.00  0.00     0.003 A 
HETATM   10  C   UNL     1      38.474 -14.734   1.526  1.00  0.00     0.029 A 
BRANCH   7  11
HETATM   11  C   UNL     1      40.411 -13.409  -2.033  1.00  0.00     0.010 A 
HETATM   12  C   UNL     1      39.969 -12.536  -3.058  1.00  0.00     0.152 A 
HETATM   13  N   UNL     1      40.879 -12.359  -4.019  1.00  0.00    -0.187 NA
HETATM   14  N   UNL     1      41.910 -13.116  -3.616  1.00  0.00    -0.289 N 
HETATM   15  H   UNL     1      42.743 -13.145  -4.196  1.00  0.00     0.188 HD
HETATM   16  C   UNL     1      41.680 -13.767  -2.440  1.00  0.00     0.123 A 
ENDBRANCH   7  11
ENDBRANCH   2   5
BRANCH   1  17
HETATM   17  C   UNL     1      41.828 -17.510   3.389  1.00  0.00     0.182 C 
BRANCH  17  18
HETATM   18  S   UNL     1      43.593 -17.439   2.960  1.00  0.00    -0.120 SA
BRANCH  18  19
HETATM   19  C   UNL     1      43.964 -19.190   3.021  1.00  0.00     0.006 A 
HETATM   20  C   UNL     1      44.553 -19.835   4.126  1.00  0.00    -0.045 A 
HETATM   21  C   UNL     1      44.973 -19.115   5.379  1.00  0.00     0.049 C 
HETATM   22  C   UNL     1      44.733 -21.230   4.081  1.00  0.00     0.008 A 
HETATM   23  C   UNL     1      44.381 -21.966   2.950  1.00  0.00     0.001 A 
HETATM   24  C   UNL     1      43.842 -21.319   1.844  1.00  0.00     0.001 A 
HETATM   25  C   UNL     1      43.636 -19.940   1.880  1.00  0.00     0.019 A 
ENDBRANCH  18  19
ENDBRANCH  17  18
ENDBRANCH   1  17
TORSDOF 5
ENDMDL
MODEL 10
REMARK VINA RESULT:      -7.8      1.916      2.725
REMARK  5 active torsions:
REMARK  status: ('A' for Active; 'I' for Inactive)
REMARK    1  A    between atoms: C_3  and  S_4 
REMARK    2  A    between atoms: S_4  and  C_5 
REMARK    3  A    between atoms: C_5  and  C_6 
REMARK       I    between atoms: C_6  and  N_7 
REMARK    4  A    between atoms: N_7  and  C_8 
REMARK    5  A    between atoms: C_10  and  C_11 
ROOT
HETATM    1  C   UNL     1      41.071 -16.727   2.228  1.00  0.00     0.231 C 
HETATM    2  N   UNL     1      41.900 -15.876   1.511  1.00  0.00    -0.327 N 
HETATM    3  O   UNL     1      39.848 -16.795   2.145  1.00  0.00    -0.272 OA
HETATM    4  H   UNL     1      42.861 -15.820   1.827  1.00  0.00     0.169 HD
ENDROOT
BRANCH   2   5
HETATM    5  C   UNL     1      41.540 -15.032   0.440  1.00  0.00     0.035 A 
HETATM    6  C   UNL     1      40.773 -15.447  -0.653  1.00  0.00     0.042 A 
HETATM    7  C   UNL     1      40.478 -14.574  -1.714  1.00  0.00    -0.021 A 
HETATM    8  C   UNL     1      40.976 -13.266  -1.664  1.00  0.00     0.012 A 
HETATM    9  C   UNL     1      41.744 -12.840  -0.580  1.00  0.00     0.003 A 
HETATM   10  C   UNL     1      42.025 -13.720   0.466  1.00  0.00     0.029 A 
BRANCH   7  11
HETATM   11  C   UNL     1      39.690 -15.015  -2.856  1.00  0.00     0.010 A 
HETATM   12  C   UNL     1      39.795 -16.172  -3.668  1.00  0.00     0.152 A 
HETATM   13  N   UNL     1      38.873 -16.215  -4.634  1.00  0.00    -0.187 NA
HETATM   14  N   UNL     1      38.171 -15.088  -4.446  1.00  0.00    -0.289 N 
HETATM   15  H   UNL     1      37.396 -14.893  -5.071  1.00  0.00     0.188 HD
HETATM   16  C   UNL     1      38.620 -14.335  -3.401  1.00  0.00     0.123 A 
ENDBRANCH   7  11
ENDBRANCH   2   5
BRANCH   1  17
HETATM   17  C   UNL     1      41.840 -17.673   3.133  1.00  0.00     0.182 C 
BRANCH  17  18
HETATM   18  S   UNL     1      43.619 -17.613   2.762  1.00  0.00    -0.120 SA
BRANCH  18  19
HETATM   19  C   UNL     1      43.995 -19.357   2.929  1.00  0.00     0.006 A 
HETATM   20  C   UNL     1      44.564 -19.935   4.082  1.00  0.00    -0.045 A 
HETATM   21  C   UNL     1      44.955 -19.143   5.300  1.00  0.00     0.049 C 
HETATM   22  C   UNL     1      44.749 -21.329   4.120  1.00  0.00     0.008 A 
HETATM   23  C   UNL     1      44.424 -22.129   3.025  1.00  0.00     0.001 A 
HETATM   24  C   UNL     1      43.905 -21.549   1.873  1.00  0.00     0.001 A 
HETATM   25  C   UNL     1      43.693 -20.171   1.827  1.00  0.00     0.019 A 
ENDBRANCH  18  19
ENDBRANCH  17  18
ENDBRANCH   1  17
TORSDOF 5
ENDMDL
