MODEL 1
REMARK VINA RESULT:      -9.1      0.000      0.000
REMARK  4 active torsions:
REMARK  status: ('A' for Active; 'I' for Inactive)
REMARK    1  A    between atoms: O_2  and  C_3 
REMARK    2  A    between atoms: C_5  and  C_6 
REMARK    3  A    between atoms: C_10  and  C_11 
REMARK       I    between atoms: C_11  and  N_12 
REMARK    4  A    between atoms: N_12  and  N_13 
ROOT
HETATM    1  C   UNL     1      43.976 -14.369   5.491  1.00  0.00     0.289 C 
HETATM    2  N   UNL     1      43.566 -15.676   5.690  1.00  0.00    -0.241 N 
HETATM    3  O   UNL     1      44.177 -13.870   4.386  1.00  0.00    -0.264 OA
HETATM    4  H   UNL     1      43.433 -16.041   6.633  1.00  0.00     0.192 HD
ENDROOT
BRANCH   1   5
HETATM    5  C   UNL     1      44.162 -13.603   6.697  1.00  0.00     0.121 A 
HETATM    6  N   UNL     1      45.338 -13.655   7.390  1.00  0.00    -0.272 N 
HETATM    7  N   UNL     1      45.361 -12.897   8.495  1.00  0.00    -0.174 NA
HETATM    8  H   UNL     1      46.159 -14.201   7.148  1.00  0.00     0.189 HD
HETATM    9  C   UNL     1      44.158 -12.302   8.527  1.00  0.00     0.089 A 
HETATM   10  C   UNL     1      43.371 -12.727   7.416  1.00  0.00     0.071 A 
BRANCH   9  11
HETATM   11  C   UNL     1      43.794 -11.366   9.599  1.00  0.00    -0.003 A 
HETATM   12  C   UNL     1      42.666 -10.537   9.459  1.00  0.00     0.050 A 
HETATM   13  C   UNL     1      42.302  -9.642  10.468  1.00  0.00     0.069 A 
HETATM   14  C   UNL     1      43.073  -9.571  11.629  1.00  0.00     0.037 A 
HETATM   15  C   UNL     1      44.191 -10.387  11.787  1.00  0.00     0.004 A 
HETATM   16  C   UNL     1      44.551 -11.282  10.776  1.00  0.00     0.014 A 
BRANCH  13  17
HETATM   17  O   UNL     1      41.230  -8.791  10.441  1.00  0.00    -0.356 OA
HETATM   18  C   UNL     1      39.994  -9.303  10.923  1.00  0.00     0.210 C 
ENDBRANCH  13  17
ENDBRANCH   9  11
ENDBRANCH   1   5
BRANCH   2  19
HETATM   19  N   UNL     1      43.347 -16.506   4.624  1.00  0.00    -0.165 NA
HETATM   20  C   UNL     1      43.882 -17.683   4.687  1.00  0.00     0.157 A 
HETATM   21  C   UNL     1      44.742 -18.279   5.806  1.00  0.00     0.277 A 
HETATM   22  C   UNL     1      43.776 -18.721   3.669  1.00  0.00     0.027 A 
HETATM   23  O   UNL     1      45.040 -17.700   6.829  1.00  0.00    -0.266 OA
HETATM   24  N   UNL     1      45.068 -19.550   5.384  1.00  0.00    -0.321 N 
HETATM   25  C   UNL     1      44.504 -19.813   4.138  1.00  0.00     0.048 A 
HETATM   26  H   UNL     1      45.636 -20.188   5.923  1.00  0.00     0.169 HD
HETATM   27  C   UNL     1      44.605 -20.973   3.400  1.00  0.00     0.030 A 
HETATM   28  C   UNL     1      43.945 -21.008   2.165  1.00  0.00     0.002 A 
HETATM   29  C   UNL     1      43.208 -19.898   1.698  1.00  0.00     0.001 A 
HETATM   30  C   UNL     1      43.117 -18.730   2.457  1.00  0.00     0.016 A 
ENDBRANCH   2  19
TORSDOF 4
ENDMDL
MODEL 2
REMARK VINA RESULT:      -9.0      1.754      2.355
REMARK  4 active torsions:
REMARK  status: ('A' for Active; 'I' for Inactive)
REMARK    1  A    between atoms: O_2  and  C_3 
REMARK    2  A    between atoms: C_5  and  C_6 
REMARK    3  A    between atoms: C_10  and  C_11 
REMARK       I    between atoms: C_11  and  N_12 
REMARK    4  A    between atoms: N_12  and  N_13 
ROOT
HETATM    1  C   UNL     1      45.148 -13.607   7.336  1.00  0.00     0.289 C 
HETATM    2  N   UNL     1      44.206 -14.622   7.317  1.00  0.00    -0.241 N 
HETATM    3  O   UNL     1      46.119 -13.554   6.585  1.00  0.00    -0.264 OA
HETATM    4  H   UNL     1      43.430 -14.623   7.979  1.00  0.00     0.192 HD
ENDROOT
BRANCH   1   5
HETATM    5  C   UNL     1      44.916 -12.585   8.325  1.00  0.00     0.121 A 
HETATM    6  N   UNL     1      45.893 -11.688   8.654  1.00  0.00    -0.272 N 
HETATM    7  N   UNL     1      45.536 -10.803   9.594  1.00  0.00    -0.174 NA
HETATM    8  H   UNL     1      46.829 -11.643   8.261  1.00  0.00     0.189 HD
HETATM    9  C   UNL     1      44.263 -11.113   9.890  1.00  0.00     0.089 A 
HETATM   10  C   UNL     1      43.840 -12.235   9.117  1.00  0.00     0.071 A 
BRANCH   9  11
HETATM   11  C   UNL     1      43.500 -10.350  10.886  1.00  0.00    -0.003 A 
HETATM   12  C   UNL     1      42.282  -9.743  10.529  1.00  0.00     0.050 A 
HETATM   13  C   UNL     1      41.540  -9.015  11.462  1.00  0.00     0.069 A 
HETATM   14  C   UNL     1      42.020  -8.890  12.767  1.00  0.00     0.037 A 
HETATM   15  C   UNL     1      43.222  -9.488  13.140  1.00  0.00     0.004 A 
HETATM   16  C   UNL     1      43.959 -10.216  12.204  1.00  0.00     0.014 A 
BRANCH  13  17
HETATM   17  O   UNL     1      40.348  -8.384  11.228  1.00  0.00    -0.356 OA
HETATM   18  C   UNL     1      39.203  -9.215  11.085  1.00  0.00     0.210 C 
ENDBRANCH  13  17
ENDBRANCH   9  11
ENDBRANCH   1   5
BRANCH   2  19
HETATM   19  N   UNL     1      44.309 -15.649   6.419  1.00  0.00    -0.165 NA
HETATM   20  C   UNL     1      44.093 -16.841   6.875  1.00  0.00     0.157 A 
HETATM   21  C   UNL     1      43.737 -17.263   8.303  1.00  0.00     0.277 A 
HETATM   22  C   UNL     1      44.148 -18.072   6.096  1.00  0.00     0.027 A 
HETATM   23  O   UNL     1      43.597 -16.498   9.234  1.00  0.00    -0.266 OA
HETATM   24  N   UNL     1      43.624 -18.636   8.265  1.00  0.00    -0.321 N 
HETATM   25  C   UNL     1      43.861 -19.113   6.978  1.00  0.00     0.048 A 
HETATM   26  H   UNL     1      43.395 -19.199   9.071  1.00  0.00     0.169 HD
HETATM   27  C   UNL     1      43.833 -20.423   6.550  1.00  0.00     0.030 A 
HETATM   28  C   UNL     1      44.104 -20.663   5.197  1.00  0.00     0.002 A 
HETATM   29  C   UNL     1      44.393 -19.603   4.311  1.00  0.00     0.001 A 
HETATM   30  C   UNL     1      44.417 -18.281   4.760  1.00  0.00     0.016 A 
ENDBRANCH   2  19
TORSDOF 4
ENDMDL
MODEL 3
REMARK VINA RESULT:      -8.9      6.783     10.745
REMARK  4 active torsions:
REMARK  status: ('A' for Active; 'I' for Inactive)
REMARK    1  A    between atoms: O_2  and  C_3 
REMARK    2  A    between atoms: C_5  and  C_6 
REMARK    3  A    between atoms: C_10  and  C_11 
REMARK       I    between atoms: C_11  and  N_12 
REMARK    4  A    between atoms: N_12  and  N_13 
ROOT
HETATM    1  C   UNL     1      41.106 -14.856  -1.062  1.00  0.00     0.289 C 
HETATM    2  N   UNL     1      42.241 -14.173  -1.464  1.00  0.00    -0.241 N 
HETATM    3  O   UNL     1      40.009 -14.750  -1.605  1.00  0.00    -0.264 OA
HETATM    4  H   UNL     1      43.121 -14.286  -0.961  1.00  0.00     0.192 HD
ENDROOT
BRANCH   1   5
HETATM    5  C   UNL     1      41.293 -15.723   0.074  1.00  0.00     0.121 A 
HETATM    6  N   UNL     1      40.246 -16.058   0.885  1.00  0.00    -0.272 N 
HETATM    7  N   UNL     1      40.572 -16.864   1.904  1.00  0.00    -0.174 NA
HETATM    8  H   UNL     1      39.282 -15.755   0.784  1.00  0.00     0.189 HD
HETATM    9  C   UNL     1      41.888 -17.090   1.753  1.00  0.00     0.089 A 
HETATM   10  C   UNL     1      42.379 -16.382   0.617  1.00  0.00     0.071 A 
BRANCH   9  11
HETATM   11  C   UNL     1      42.628 -17.953   2.683  1.00  0.00    -0.003 A 
HETATM   12  C   UNL     1      43.357 -19.054   2.195  1.00  0.00     0.050 A 
HETATM   13  C   UNL     1      44.070 -19.885   3.062  1.00  0.00     0.069 A 
HETATM   14  C   UNL     1      44.055 -19.617   4.432  1.00  0.00     0.037 A 
HETATM   15  C   UNL     1      43.342 -18.529   4.932  1.00  0.00     0.004 A 
HETATM   16  C   UNL     1      42.632 -17.699   4.061  1.00  0.00     0.014 A 
BRANCH  13  17
HETATM   17  O   UNL     1      44.809 -20.979   2.701  1.00  0.00    -0.356 OA
HETATM   18  C   UNL     1      44.230 -21.854   1.741  1.00  0.00     0.210 C 
ENDBRANCH  13  17
ENDBRANCH   9  11
ENDBRANCH   1   5
BRANCH   2  19
HETATM   19  N   UNL     1      42.198 -13.322  -2.535  1.00  0.00    -0.165 NA
HETATM   20  C   UNL     1      42.365 -12.064  -2.283  1.00  0.00     0.157 A 
HETATM   21  C   UNL     1      42.604 -11.389  -0.929  1.00  0.00     0.277 A 
HETATM   22  C   UNL     1      42.357 -10.991  -3.269  1.00  0.00     0.027 A 
HETATM   23  O   UNL     1      42.680 -11.975   0.130  1.00  0.00    -0.266 OA
HETATM   24  N   UNL     1      42.706 -10.042  -1.201  1.00  0.00    -0.321 N 
HETATM   25  C   UNL     1      42.565  -9.804  -2.567  1.00  0.00     0.048 A 
HETATM   26  H   UNL     1      42.866  -9.340  -0.493  1.00  0.00     0.169 HD
HETATM   27  C   UNL     1      42.611  -8.590  -3.216  1.00  0.00     0.030 A 
HETATM   28  C   UNL     1      42.444  -8.598  -4.607  1.00  0.00     0.002 A 
HETATM   29  C   UNL     1      42.236  -9.803  -5.310  1.00  0.00     0.001 A 
HETATM   30  C   UNL     1      42.190 -11.026  -4.638  1.00  0.00     0.016 A 
ENDBRANCH   2  19
TORSDOF 4
ENDMDL
MODEL 4
REMARK VINA RESULT:      -8.9      1.844      2.843
REMARK  4 active torsions:
REMARK  status: ('A' for Active; 'I' for Inactive)
REMARK    1  A    between atoms: O_2  and  C_3 
REMARK    2  A    between atoms: C_5  and  C_6 
REMARK    3  A    between atoms: C_10  and  C_11 
REMARK       I    between atoms: C_11  and  N_12 
REMARK    4  A    between atoms: N_12  and  N_13 
ROOT
HETATM    1  C   UNL     1      45.098 -13.586   7.515  1.00  0.00     0.289 C 
HETATM    2  N   UNL     1      44.182 -14.622   7.595  1.00  0.00    -0.241 N 
HETATM    3  O   UNL     1      46.029 -13.549   6.714  1.00  0.00    -0.264 OA
HETATM    4  H   UNL     1      43.441 -14.607   8.295  1.00  0.00     0.192 HD
ENDROOT
BRANCH   1   5
HETATM    5  C   UNL     1      44.890 -12.520   8.463  1.00  0.00     0.121 A 
HETATM    6  N   UNL     1      45.867 -11.600   8.714  1.00  0.00    -0.272 N 
HETATM    7  N   UNL     1      45.533 -10.674   9.623  1.00  0.00    -0.174 NA
HETATM    8  H   UNL     1      46.788 -11.564   8.287  1.00  0.00     0.189 HD
HETATM    9  C   UNL     1      44.275 -10.982   9.978  1.00  0.00     0.089 A 
HETATM   10  C   UNL     1      43.838 -12.143   9.275  1.00  0.00     0.071 A 
BRANCH   9  11
HETATM   11  C   UNL     1      43.539 -10.179  10.964  1.00  0.00    -0.003 A 
HETATM   12  C   UNL     1      42.399  -9.454  10.573  1.00  0.00     0.050 A 
HETATM   13  C   UNL     1      41.684  -8.686  11.496  1.00  0.00     0.069 A 
HETATM   14  C   UNL     1      42.112  -8.641  12.824  1.00  0.00     0.037 A 
HETATM   15  C   UNL     1      43.236  -9.357  13.230  1.00  0.00     0.004 A 
HETATM   16  C   UNL     1      43.948 -10.124  12.304  1.00  0.00     0.014 A 
BRANCH  13  17
HETATM   17  O   UNL     1      40.566  -7.943  11.230  1.00  0.00    -0.356 OA
HETATM   18  C   UNL     1      39.361  -8.347  11.870  1.00  0.00     0.210 C 
ENDBRANCH  13  17
ENDBRANCH   9  11
ENDBRANCH   1   5
BRANCH   2  19
HETATM   19  N   UNL     1      44.267 -15.691   6.745  1.00  0.00    -0.165 NA
HETATM   20  C   UNL     1      43.405 -15.733   5.781  1.00  0.00     0.157 A 
HETATM   21  C   UNL     1      42.285 -14.739   5.460  1.00  0.00     0.277 A 
HETATM   22  C   UNL     1      43.315 -16.776   4.766  1.00  0.00     0.027 A 
HETATM   23  O   UNL     1      42.057 -13.730   6.094  1.00  0.00    -0.266 OA
HETATM   24  N   UNL     1      41.649 -15.244   4.347  1.00  0.00    -0.321 N 
HETATM   25  C   UNL     1      42.249 -16.433   3.936  1.00  0.00     0.048 A 
HETATM   26  H   UNL     1      40.861 -14.795   3.903  1.00  0.00     0.169 HD
HETATM   27  C   UNL     1      41.895 -17.224   2.864  1.00  0.00     0.030 A 
HETATM   28  C   UNL     1      42.652 -18.382   2.643  1.00  0.00     0.002 A 
HETATM   29  C   UNL     1      43.731 -18.721   3.487  1.00  0.00     0.001 A 
HETATM   30  C   UNL     1      44.076 -17.910   4.570  1.00  0.00     0.016 A 
ENDBRANCH   2  19
TORSDOF 4
ENDMDL
MODEL 5
REMARK VINA RESULT:      -8.7      2.534      9.819
REMARK  4 active torsions:
REMARK  status: ('A' for Active; 'I' for Inactive)
REMARK    1  A    between atoms: O_2  and  C_3 
REMARK    2  A    between atoms: C_5  and  C_6 
REMARK    3  A    between atoms: C_10  and  C_11 
REMARK       I    between atoms: C_11  and  N_12 
REMARK    4  A    between atoms: N_12  and  N_13 
ROOT
HETATM    1  C   UNL     1      41.838 -12.403   5.955  1.00  0.00     0.289 C 
HETATM    2  N   UNL     1      42.712 -12.103   6.987  1.00  0.00    -0.241 N 
HETATM    3  O   UNL     1      40.711 -11.926   5.847  1.00  0.00    -0.264 OA
HETATM    4  H   UNL     1      43.630 -12.545   7.035  1.00  0.00     0.192 HD
ENDROOT
BRANCH   1   5
HETATM    5  C   UNL     1      42.345 -13.342   4.987  1.00  0.00     0.121 A 
HETATM    6  N   UNL     1      42.922 -12.913   3.825  1.00  0.00    -0.272 N 
HETATM    7  N   UNL     1      43.338 -13.899   3.019  1.00  0.00    -0.174 NA
HETATM    8  H   UNL     1      43.052 -11.949   3.534  1.00  0.00     0.189 HD
HETATM    9  C   UNL     1      43.043 -15.030   3.681  1.00  0.00     0.089 A 
HETATM   10  C   UNL     1      42.409 -14.720   4.920  1.00  0.00     0.071 A 
BRANCH   9  11
HETATM   11  C   UNL     1      43.361 -16.350   3.122  1.00  0.00    -0.003 A 
HETATM   12  C   UNL     1      43.589 -17.443   3.978  1.00  0.00     0.050 A 
HETATM   13  C   UNL     1      43.891 -18.707   3.467  1.00  0.00     0.069 A 
HETATM   14  C   UNL     1      43.966 -18.884   2.084  1.00  0.00     0.037 A 
HETATM   15  C   UNL     1      43.739 -17.815   1.221  1.00  0.00     0.004 A 
HETATM   16  C   UNL     1      43.436 -16.552   1.736  1.00  0.00     0.014 A 
BRANCH  13  17
HETATM   17  O   UNL     1      44.132 -19.837   4.202  1.00  0.00    -0.356 OA
HETATM   18  C   UNL     1      44.670 -20.952   3.503  1.00  0.00     0.210 C 
ENDBRANCH  13  17
ENDBRANCH   9  11
ENDBRANCH   1   5
BRANCH   2  19
HETATM   19  N   UNL     1      42.353 -11.219   7.968  1.00  0.00    -0.165 NA
HETATM   20  C   UNL     1      43.054 -11.245   9.055  1.00  0.00     0.157 A 
HETATM   21  C   UNL     1      44.244 -12.145   9.400  1.00  0.00     0.277 A 
HETATM   22  C   UNL     1      42.846 -10.394  10.220  1.00  0.00     0.027 A 
HETATM   23  O   UNL     1      44.711 -12.984   8.658  1.00  0.00    -0.266 OA
HETATM   24  N   UNL     1      44.624 -11.784  10.674  1.00  0.00    -0.321 N 
HETATM   25  C   UNL     1      43.812 -10.760  11.157  1.00  0.00     0.048 A 
HETATM   26  H   UNL     1      45.391 -12.213  11.170  1.00  0.00     0.169 HD
HETATM   27  C   UNL     1      43.887 -10.138  12.385  1.00  0.00     0.030 A 
HETATM   28  C   UNL     1      42.957  -9.124  12.649  1.00  0.00     0.002 A 
HETATM   29  C   UNL     1      41.984  -8.758  11.695  1.00  0.00     0.001 A 
HETATM   30  C   UNL     1      41.920  -9.399  10.456  1.00  0.00     0.016 A 
ENDBRANCH   2  19
TORSDOF 4
ENDMDL
MODEL 6
REMARK VINA RESULT:      -8.5      6.421     10.107
REMARK  4 active torsions:
REMARK  status: ('A' for Active; 'I' for Inactive)
REMARK    1  A    between atoms: O_2  and  C_3 
REMARK    2  A    between atoms: C_5  and  C_6 
REMARK    3  A    between atoms: C_10  and  C_11 
REMARK       I    between atoms: C_11  and  N_12 
REMARK    4  A    between atoms: N_12  and  N_13 
ROOT
HETATM    1  C   UNL     1      41.367 -15.445  -1.043  1.00  0.00     0.289 C 
HETATM    2  N   UNL     1      42.121 -14.286  -1.115  1.00  0.00    -0.241 N 
HETATM    3  O   UNL     1      40.623 -15.840  -1.938  1.00  0.00    -0.264 OA
HETATM    4  H   UNL     1      42.707 -13.998  -0.332  1.00  0.00     0.192 HD
ENDROOT
BRANCH   1   5
HETATM    5  C   UNL     1      41.508 -16.183   0.187  1.00  0.00     0.121 A 
HETATM    6  N   UNL     1      40.436 -16.399   1.005  1.00  0.00    -0.272 N 
HETATM    7  N   UNL     1      40.720 -17.093   2.116  1.00  0.00    -0.174 NA
HETATM    8  H   UNL     1      39.482 -16.087   0.848  1.00  0.00     0.189 HD
HETATM    9  C   UNL     1      42.032 -17.364   2.023  1.00  0.00     0.089 A 
HETATM   10  C   UNL     1      42.565 -16.801   0.826  1.00  0.00     0.071 A 
BRANCH   9  11
HETATM   11  C   UNL     1      42.731 -18.134   3.061  1.00  0.00    -0.003 A 
HETATM   12  C   UNL     1      42.465 -17.888   4.420  1.00  0.00     0.050 A 
HETATM   13  C   UNL     1      43.118 -18.611   5.422  1.00  0.00     0.069 A 
HETATM   14  C   UNL     1      44.047 -19.589   5.064  1.00  0.00     0.037 A 
HETATM   15  C   UNL     1      44.319 -19.849   3.722  1.00  0.00     0.004 A 
HETATM   16  C   UNL     1      43.663 -19.125   2.724  1.00  0.00     0.014 A 
BRANCH  13  17
HETATM   17  O   UNL     1      42.940 -18.458   6.771  1.00  0.00    -0.356 OA
HETATM   18  C   UNL     1      44.053 -18.763   7.601  1.00  0.00     0.210 C 
ENDBRANCH  13  17
ENDBRANCH   9  11
ENDBRANCH   1   5
BRANCH   2  19
HETATM   19  N   UNL     1      42.082 -13.499  -2.234  1.00  0.00    -0.165 NA
HETATM   20  C   UNL     1      42.283 -12.233  -2.059  1.00  0.00     0.157 A 
HETATM   21  C   UNL     1      42.560 -11.485  -0.751  1.00  0.00     0.277 A 
HETATM   22  C   UNL     1      42.286 -11.220  -3.106  1.00  0.00     0.027 A 
HETATM   23  O   UNL     1      42.638 -12.010   0.340  1.00  0.00    -0.266 OA
HETATM   24  N   UNL     1      42.690 -10.160  -1.104  1.00  0.00    -0.321 N 
HETATM   25  C   UNL     1      42.533 -10.000  -2.479  1.00  0.00     0.048 A 
HETATM   26  H   UNL     1      42.878  -9.422  -0.440  1.00  0.00     0.169 HD
HETATM   27  C   UNL     1      42.599  -8.827  -3.200  1.00  0.00     0.030 A 
HETATM   28  C   UNL     1      42.410  -8.912  -4.585  1.00  0.00     0.002 A 
HETATM   29  C   UNL     1      42.162 -10.152  -5.213  1.00  0.00     0.001 A 
HETATM   30  C   UNL     1      42.097 -11.331  -4.468  1.00  0.00     0.016 A 
ENDBRANCH   2  19
TORSDOF 4
ENDMDL
MODEL 7
REMARK VINA RESULT:      -8.3      2.357      2.696
REMARK  4 active torsions:
REMARK  status: ('A' for Active; 'I' for Inactive)
REMARK    1  A    between atoms: O_2  and  C_3 
REMARK    2  A    between atoms: C_5  and  C_6 
REMARK    3  A    between atoms: C_10  and  C_11 
REMARK       I    between atoms: C_11  and  N_12 
REMARK    4  A    between atoms: N_12  and  N_13 
ROOT
HETATM    1  C   UNL     1      42.531 -14.489   3.636  1.00  0.00     0.289 C 
HETATM    2  N   UNL     1      42.026 -15.715   4.036  1.00  0.00    -0.241 N 
HETATM    3  O   UNL     1      43.244 -14.326   2.649  1.00  0.00    -0.264 OA
HETATM    4  H   UNL     1      41.455 -15.792   4.877  1.00  0.00     0.192 HD
ENDROOT
BRANCH   1   5
HETATM    5  C   UNL     1      42.160 -13.379   4.477  1.00  0.00     0.121 A 
HETATM    6  N   UNL     1      41.973 -12.131   3.954  1.00  0.00    -0.272 N 
HETATM    7  N   UNL     1      41.640 -11.199   4.857  1.00  0.00    -0.174 NA
HETATM    8  H   UNL     1      42.065 -11.864   2.979  1.00  0.00     0.189 HD
HETATM    9  C   UNL     1      41.585 -11.858   6.026  1.00  0.00     0.089 A 
HETATM   10  C   UNL     1      41.915 -13.232   5.829  1.00  0.00     0.071 A 
BRANCH   9  11
HETATM   11  C   UNL     1      41.233 -11.174   7.277  1.00  0.00    -0.003 A 
HETATM   12  C   UNL     1      39.883 -10.999   7.630  1.00  0.00     0.050 A 
HETATM   13  C   UNL     1      39.527 -10.353   8.816  1.00  0.00     0.069 A 
HETATM   14  C   UNL     1      40.531  -9.874   9.660  1.00  0.00     0.037 A 
HETATM   15  C   UNL     1      41.874 -10.041   9.328  1.00  0.00     0.004 A 
HETATM   16  C   UNL     1      42.225 -10.689   8.142  1.00  0.00     0.014 A 
BRANCH  13  17
HETATM   17  O   UNL     1      38.251 -10.128   9.259  1.00  0.00    -0.356 OA
HETATM   18  C   UNL     1      38.110  -9.293  10.402  1.00  0.00     0.210 C 
ENDBRANCH  13  17
ENDBRANCH   9  11
ENDBRANCH   1   5
BRANCH   2  19
HETATM   19  N   UNL     1      42.300 -16.847   3.318  1.00  0.00    -0.165 NA
HETATM   20  C   UNL     1      43.048 -17.732   3.894  1.00  0.00     0.157 A 
HETATM   21  C   UNL     1      43.681 -17.681   5.288  1.00  0.00     0.277 A 
HETATM   22  C   UNL     1      43.461 -19.004   3.314  1.00  0.00     0.027 A 
HETATM   23  O   UNL     1      43.549 -16.765   6.072  1.00  0.00    -0.266 OA
HETATM   24  N   UNL     1      44.387 -18.857   5.416  1.00  0.00    -0.321 N 
HETATM   25  C   UNL     1      44.260 -19.634   4.267  1.00  0.00     0.048 A 
HETATM   26  H   UNL     1      44.915 -19.104   6.242  1.00  0.00     0.169 HD
HETATM   27  C   UNL     1      44.817 -20.872   4.025  1.00  0.00     0.030 A 
HETATM   28  C   UNL     1      44.546 -21.468   2.787  1.00  0.00     0.002 A 
HETATM   29  C   UNL     1      43.735 -20.823   1.829  1.00  0.00     0.001 A 
HETATM   30  C   UNL     1      43.178 -19.569   2.088  1.00  0.00     0.016 A 
ENDBRANCH   2  19
TORSDOF 4
ENDMDL
MODEL 8
REMARK VINA RESULT:      -8.3      1.980      3.069
REMARK  4 active torsions:
REMARK  status: ('A' for Active; 'I' for Inactive)
REMARK    1  A    between atoms: O_2  and  C_3 
REMARK    2  A    between atoms: C_5  and  C_6 
REMARK    3  A    between atoms: C_10  and  C_11 
REMARK       I    between atoms: C_11  and  N_12 
REMARK    4  A    between atoms: N_12  and  N_13 
ROOT
HETATM    1  C   UNL     1      44.558 -13.664   7.698  1.00  0.00     0.289 C 
HETATM    2  N   UNL     1      43.825 -14.837   7.753  1.00  0.00    -0.241 N 
HETATM    3  O   UNL     1      45.668 -13.567   7.178  1.00  0.00    -0.264 OA
HETATM    4  H   UNL     1      42.917 -14.861   8.215  1.00  0.00     0.192 HD
ENDROOT
BRANCH   1   5
HETATM    5  C   UNL     1      43.923 -12.524   8.310  1.00  0.00     0.121 A 
HETATM    6  N   UNL     1      43.024 -11.762   7.619  1.00  0.00    -0.272 N 
HETATM    7  N   UNL     1      42.523 -10.733   8.315  1.00  0.00    -0.174 NA
HETATM    8  H   UNL     1      42.721 -11.906   6.660  1.00  0.00     0.189 HD
HETATM    9  C   UNL     1      43.098 -10.825   9.525  1.00  0.00     0.089 A 
HETATM   10  C   UNL     1      43.992 -11.936   9.558  1.00  0.00     0.071 A 
BRANCH   9  11
HETATM   11  C   UNL     1      42.790  -9.867  10.595  1.00  0.00    -0.003 A 
HETATM   12  C   UNL     1      43.287 -10.077  11.894  1.00  0.00     0.050 A 
HETATM   13  C   UNL     1      43.008  -9.177  12.925  1.00  0.00     0.069 A 
HETATM   14  C   UNL     1      42.223  -8.054  12.657  1.00  0.00     0.037 A 
HETATM   15  C   UNL     1      41.726  -7.828  11.375  1.00  0.00     0.004 A 
HETATM   16  C   UNL     1      42.009  -8.730  10.347  1.00  0.00     0.014 A 
BRANCH  13  17
HETATM   17  O   UNL     1      43.435  -9.280  14.222  1.00  0.00    -0.356 OA
HETATM   18  C   UNL     1      42.449  -9.600  15.196  1.00  0.00     0.210 C 
ENDBRANCH  13  17
ENDBRANCH   9  11
ENDBRANCH   1   5
BRANCH   2  19
HETATM   19  N   UNL     1      44.315 -15.989   7.201  1.00  0.00    -0.165 NA
HETATM   20  C   UNL     1      43.684 -16.452   6.170  1.00  0.00     0.157 A 
HETATM   21  C   UNL     1      42.443 -15.879   5.478  1.00  0.00     0.277 A 
HETATM   22  C   UNL     1      44.033 -17.658   5.430  1.00  0.00     0.027 A 
HETATM   23  O   UNL     1      41.870 -14.865   5.818  1.00  0.00    -0.266 OA
HETATM   24  N   UNL     1      42.163 -16.746   4.444  1.00  0.00    -0.321 N 
HETATM   25  C   UNL     1      43.090 -17.785   4.410  1.00  0.00     0.048 A 
HETATM   26  H   UNL     1      41.390 -16.623   3.807  1.00  0.00     0.169 HD
HETATM   27  C   UNL     1      43.139 -18.837   3.521  1.00  0.00     0.030 A 
HETATM   28  C   UNL     1      44.173 -19.768   3.683  1.00  0.00     0.002 A 
HETATM   29  C   UNL     1      45.124 -19.631   4.716  1.00  0.00     0.001 A 
HETATM   30  C   UNL     1      45.060 -18.560   5.611  1.00  0.00     0.016 A 
ENDBRANCH   2  19
TORSDOF 4
ENDMDL
MODEL 9
REMARK VINA RESULT:      -8.3      6.543      8.737
REMARK  4 active torsions:
REMARK  status: ('A' for Active; 'I' for Inactive)
REMARK    1  A    between atoms: O_2  and  C_3 
REMARK    2  A    between atoms: C_5  and  C_6 
REMARK    3  A    between atoms: C_10  and  C_11 
REMARK       I    between atoms: C_11  and  N_12 
REMARK    4  A    between atoms: N_12  and  N_13 
ROOT
HETATM    1  C   UNL     1      41.345 -16.119   1.646  1.00  0.00     0.289 C 
HETATM    2  N   UNL     1      42.564 -16.222   2.293  1.00  0.00    -0.241 N 
HETATM    3  O   UNL     1      40.309 -16.650   2.038  1.00  0.00    -0.264 OA
HETATM    4  H   UNL     1      43.396 -15.774   1.909  1.00  0.00     0.192 HD
ENDROOT
BRANCH   1   5
HETATM    5  C   UNL     1      41.364 -15.328   0.441  1.00  0.00     0.121 A 
HETATM    6  N   UNL     1      40.774 -15.776  -0.706  1.00  0.00    -0.272 N 
HETATM    7  N   UNL     1      40.880 -14.937  -1.746  1.00  0.00    -0.174 NA
HETATM    8  H   UNL     1      40.285 -16.658  -0.830  1.00  0.00     0.189 HD
HETATM    9  C   UNL     1      41.553 -13.880  -1.264  1.00  0.00     0.089 A 
HETATM   10  C   UNL     1      41.882 -14.091   0.107  1.00  0.00     0.071 A 
BRANCH   9  11
HETATM   11  C   UNL     1      41.863 -12.719  -2.110  1.00  0.00    -0.003 A 
HETATM   12  C   UNL     1      42.529 -11.606  -1.565  1.00  0.00     0.050 A 
HETATM   13  C   UNL     1      42.835 -10.494  -2.352  1.00  0.00     0.069 A 
HETATM   14  C   UNL     1      42.471 -10.491  -3.700  1.00  0.00     0.037 A 
HETATM   15  C   UNL     1      41.815 -11.586  -4.258  1.00  0.00     0.004 A 
HETATM   16  C   UNL     1      41.512 -12.697  -3.467  1.00  0.00     0.014 A 
BRANCH  13  17
HETATM   17  O   UNL     1      43.476  -9.361  -1.931  1.00  0.00    -0.356 OA
HETATM   18  C   UNL     1      43.497  -9.122  -0.529  1.00  0.00     0.210 C 
ENDBRANCH  13  17
ENDBRANCH   9  11
ENDBRANCH   1   5
BRANCH   2  19
HETATM   19  N   UNL     1      42.677 -16.940   3.452  1.00  0.00    -0.165 NA
HETATM   20  C   UNL     1      43.342 -18.048   3.384  1.00  0.00     0.157 A 
HETATM   21  C   UNL     1      44.025 -18.675   2.165  1.00  0.00     0.277 A 
HETATM   22  C   UNL     1      43.585 -18.964   4.492  1.00  0.00     0.027 A 
HETATM   23  O   UNL     1      44.038 -18.186   1.055  1.00  0.00    -0.266 OA
HETATM   24  N   UNL     1      44.582 -19.852   2.618  1.00  0.00    -0.321 N 
HETATM   25  C   UNL     1      44.329 -20.024   3.977  1.00  0.00     0.048 A 
HETATM   26  H   UNL     1      45.101 -20.486   2.028  1.00  0.00     0.169 HD
HETATM   27  C   UNL     1      44.727 -21.072   4.778  1.00  0.00     0.030 A 
HETATM   28  C   UNL     1      44.355 -21.027   6.128  1.00  0.00     0.002 A 
HETATM   29  C   UNL     1      43.603 -19.950   6.642  1.00  0.00     0.001 A 
HETATM   30  C   UNL     1      43.206 -18.895   5.817  1.00  0.00     0.016 A 
ENDBRANCH   2  19
TORSDOF 4
ENDMDL
MODEL 10
REMARK VINA RESULT:      -8.2      2.165      2.897
REMARK  4 active torsions:
REMARK  status: ('A' for Active; 'I' for Inactive)
REMARK    1  A    between atoms: O_2  and  C_3 
REMARK    2  A    between atoms: C_5  and  C_6 
REMARK    3  A    between atoms: C_10  and  C_11 
REMARK       I    between atoms: C_11  and  N_12 
REMARK    4  A    between atoms: N_12  and  N_13 
ROOT
HETATM    1  C   UNL     1      42.496 -14.028   3.676  1.00  0.00     0.289 C 
HETATM    2  N   UNL     1      41.971 -15.250   4.061  1.00  0.00    -0.241 N 
HETATM    3  O   UNL     1      43.228 -13.868   2.702  1.00  0.00    -0.264 OA
HETATM    4  H   UNL     1      41.384 -15.325   4.891  1.00  0.00     0.192 HD
ENDROOT
BRANCH   1   5
HETATM    5  C   UNL     1      42.124 -12.918   4.516  1.00  0.00     0.121 A 
HETATM    6  N   UNL     1      41.819 -11.699   3.980  1.00  0.00    -0.272 N 
HETATM    7  N   UNL     1      41.500 -10.762   4.883  1.00  0.00    -0.174 NA
HETATM    8  H   UNL     1      41.818 -11.455   2.994  1.00  0.00     0.189 HD
HETATM    9  C   UNL     1      41.578 -11.390   6.068  1.00  0.00     0.089 A 
HETATM   10  C   UNL     1      41.976 -12.746   5.879  1.00  0.00     0.071 A 
BRANCH   9  11
HETATM   11  C   UNL     1      41.283 -10.691   7.326  1.00  0.00    -0.003 A 
HETATM   12  C   UNL     1      42.258 -10.618   8.338  1.00  0.00     0.050 A 
HETATM   13  C   UNL     1      41.997  -9.956   9.541  1.00  0.00     0.069 A 
HETATM   14  C   UNL     1      40.750  -9.361   9.736  1.00  0.00     0.037 A 
HETATM   15  C   UNL     1      39.774  -9.420   8.744  1.00  0.00     0.004 A 
HETATM   16  C   UNL     1      40.039 -10.082   7.542  1.00  0.00     0.014 A 
BRANCH  13  17
HETATM   17  O   UNL     1      42.865  -9.823  10.591  1.00  0.00    -0.356 OA
HETATM   18  C   UNL     1      44.058 -10.597  10.536  1.00  0.00     0.210 C 
ENDBRANCH  13  17
ENDBRANCH   9  11
ENDBRANCH   1   5
BRANCH   2  19
HETATM   19  N   UNL     1      42.243 -16.381   3.341  1.00  0.00    -0.165 NA
HETATM   20  C   UNL     1      43.007 -17.258   3.909  1.00  0.00     0.157 A 
HETATM   21  C   UNL     1      43.659 -17.199   5.293  1.00  0.00     0.277 A 
HETATM   22  C   UNL     1      43.422 -18.528   3.326  1.00  0.00     0.027 A 
HETATM   23  O   UNL     1      43.530 -16.282   6.077  1.00  0.00    -0.266 OA
HETATM   24  N   UNL     1      44.376 -18.369   5.414  1.00  0.00    -0.321 N 
HETATM   25  C   UNL     1      44.239 -19.150   4.269  1.00  0.00     0.048 A 
HETATM   26  H   UNL     1      44.917 -18.610   6.233  1.00  0.00     0.169 HD
HETATM   27  C   UNL     1      44.803 -20.383   4.022  1.00  0.00     0.030 A 
HETATM   28  C   UNL     1      44.519 -20.984   2.789  1.00  0.00     0.002 A 
HETATM   29  C   UNL     1      43.690 -20.349   1.841  1.00  0.00     0.001 A 
HETATM   30  C   UNL     1      43.127 -19.099   2.105  1.00  0.00     0.016 A 
ENDBRANCH   2  19
TORSDOF 4
ENDMDL
