MODEL 1
REMARK VINA RESULT:      -8.6      0.000      0.000
REMARK  8 active torsions:
REMARK  status: ('A' for Active; 'I' for Inactive)
REMARK    1  A    between atoms: O_2  and  C_3 
REMARK    2  A    between atoms: C_4  and  N_5 
REMARK       I    between atoms: N_5  and  C_6 
REMARK       I    between atoms: C_6  and  N_7 
REMARK    3  A    between atoms: N_7  and  C_8 
REMARK    4  A    between atoms: C_11  and  C_12 
REMARK    5  A    between atoms: C_12  and  C_13 
REMARK       I    between atoms: C_13  and  N_14 
REMARK    6  A    between atoms: N_14  and  C_15 
REMARK    7  A    between atoms: C_18  and  O_19 
REMARK    8  A    between atoms: O_19  and  C_20 
ROOT
HETATM    1  C   UNL     1      40.467 -11.651   3.470  1.00  0.00     0.174 A 
HETATM    2  S   UNL     1      39.017 -11.871   4.343  1.00  0.00    -0.062 SA
HETATM    3  C   UNL     1      39.938 -12.269   5.733  1.00  0.00     0.081 A 
HETATM    4  C   UNL     1      41.291 -12.218   5.444  1.00  0.00     0.052 A 
HETATM    5  N   UNL     1      41.576 -11.822   4.143  1.00  0.00    -0.228 NA
ENDROOT
BRANCH   4   6
HETATM    6  C   UNL     1      42.448 -12.491   6.347  1.00  0.00     0.163 C 
BRANCH   6   7
HETATM    7  C   UNL     1      43.218 -13.745   5.964  1.00  0.00     0.227 C 
HETATM    8  N   UNL     1      42.794 -14.885   6.633  1.00  0.00    -0.327 N 
HETATM    9  H   UNL     1      42.033 -14.775   7.292  1.00  0.00     0.169 HD
HETATM   10  O   UNL     1      44.123 -13.690   5.135  1.00  0.00    -0.273 OA
BRANCH   8  11
HETATM   11  C   UNL     1      43.294 -16.198   6.481  1.00  0.00     0.034 A 
HETATM   12  C   UNL     1      44.622 -16.559   6.720  1.00  0.00     0.032 A 
HETATM   13  C   UNL     1      45.046 -17.878   6.532  1.00  0.00     0.039 A 
HETATM   14  C   UNL     1      44.142 -18.851   6.117  1.00  0.00     0.076 A 
HETATM   15  C   UNL     1      42.818 -18.505   5.855  1.00  0.00     0.039 A 
HETATM   16  C   UNL     1      42.393 -17.185   6.052  1.00  0.00     0.032 A 
BRANCH  14  17
HETATM   17  O   UNL     1      44.632 -20.109   5.878  1.00  0.00    -0.311 OA
BRANCH  17  18
HETATM   18  C   UNL     1      44.573 -20.615   4.598  1.00  0.00     0.076 A 
HETATM   19  C   UNL     1      44.702 -22.003   4.499  1.00  0.00     0.037 A 
HETATM   20  C   UNL     1      44.619 -22.632   3.255  1.00  0.00     0.003 A 
HETATM   21  C   UNL     1      44.402 -21.873   2.107  1.00  0.00     0.000 A 
HETATM   22  C   UNL     1      44.257 -20.489   2.203  1.00  0.00     0.003 A 
HETATM   23  C   UNL     1      44.333 -19.860   3.448  1.00  0.00     0.037 A 
ENDBRANCH  17  18
ENDBRANCH  14  17
ENDBRANCH   8  11
ENDBRANCH   6   7
ENDBRANCH   4   6
BRANCH   1  24
HETATM   24  N   UNL     1      40.275 -11.274   2.171  1.00  0.00    -0.287 N 
HETATM   25  C   UNL     1      41.015 -11.647   1.105  1.00  0.00     0.326 C 
HETATM   26  N   UNL     1      41.717 -12.804   1.067  1.00  0.00    -0.306 N 
HETATM   27  O   UNL     1      41.108 -10.867   0.152  1.00  0.00    -0.247 OA
HETATM   28  H   UNL     1      42.511 -12.753   0.445  1.00  0.00     0.171 HD
HETATM   29  H   UNL     1      39.696 -10.463   2.029  1.00  0.00     0.172 HD
BRANCH  26  30
HETATM   30  C   UNL     1      41.388 -14.093   1.540  1.00  0.00     0.069 A 
HETATM   31  C   UNL     1      40.196 -14.781   1.253  1.00  0.00     0.095 A 
HETATM   32  C   UNL     1      39.963 -16.044   1.811  1.00  0.00     0.039 A 
HETATM   33  C   UNL     1      40.937 -16.658   2.599  1.00  0.00     0.003 A 
HETATM   34  C   UNL     1      42.148 -16.012   2.830  1.00  0.00     0.002 A 
HETATM   35  C   UNL     1      42.374 -14.741   2.297  1.00  0.00     0.032 A 
BRANCH  31  36
HETATM   36  O   UNL     1      39.260 -14.222   0.421  1.00  0.00    -0.354 OA
HETATM   37  C   UNL     1      37.986 -14.083   1.049  1.00  0.00     0.210 C 
ENDBRANCH  31  36
ENDBRANCH  26  30
ENDBRANCH   1  24
TORSDOF 8
ENDMDL
MODEL 2
REMARK VINA RESULT:      -8.6      3.247      4.775
REMARK  8 active torsions:
REMARK  status: ('A' for Active; 'I' for Inactive)
REMARK    1  A    between atoms: O_2  and  C_3 
REMARK    2  A    between atoms: C_4  and  N_5 
REMARK       I    between atoms: N_5  and  C_6 
REMARK       I    between atoms: C_6  and  N_7 
REMARK    3  A    between atoms: N_7  and  C_8 
REMARK    4  A    between atoms: C_11  and  C_12 
REMARK    5  A    between atoms: C_12  and  C_13 
REMARK       I    between atoms: C_13  and  N_14 
REMARK    6  A    between atoms: N_14  and  C_15 
REMARK    7  A    between atoms: C_18  and  O_19 
REMARK    8  A    between atoms: O_19  and  C_20 
ROOT
HETATM    1  C   UNL     1      37.474 -12.242  -1.353  1.00  0.00     0.174 A 
HETATM    2  S   UNL     1      37.491 -10.894  -0.306  1.00  0.00    -0.062 SA
HETATM    3  C   UNL     1      37.663 -11.957   1.028  1.00  0.00     0.081 A 
HETATM    4  C   UNL     1      37.689 -13.271   0.593  1.00  0.00     0.052 A 
HETATM    5  N   UNL     1      37.617 -13.412  -0.786  1.00  0.00    -0.228 NA
ENDROOT
BRANCH   4   6
HETATM    6  C   UNL     1      37.818 -14.519   1.405  1.00  0.00     0.163 C 
BRANCH   6   7
HETATM    7  C   UNL     1      39.261 -14.871   1.728  1.00  0.00     0.227 C 
HETATM    8  N   UNL     1      39.458 -16.217   2.000  1.00  0.00    -0.327 N 
HETATM    9  H   UNL     1      38.644 -16.819   1.958  1.00  0.00     0.169 HD
HETATM   10  O   UNL     1      40.128 -14.000   1.734  1.00  0.00    -0.273 OA
BRANCH   8  11
HETATM   11  C   UNL     1      40.680 -16.855   2.311  1.00  0.00     0.034 A 
HETATM   12  C   UNL     1      41.166 -17.017   3.611  1.00  0.00     0.032 A 
HETATM   13  C   UNL     1      42.394 -17.645   3.840  1.00  0.00     0.039 A 
HETATM   14  C   UNL     1      43.141 -18.129   2.771  1.00  0.00     0.076 A 
HETATM   15  C   UNL     1      42.683 -17.959   1.466  1.00  0.00     0.039 A 
HETATM   16  C   UNL     1      41.448 -17.337   1.240  1.00  0.00     0.032 A 
BRANCH  14  17
HETATM   17  O   UNL     1      44.371 -18.668   3.051  1.00  0.00    -0.311 OA
BRANCH  17  18
HETATM   18  C   UNL     1      44.447 -19.987   3.441  1.00  0.00     0.076 A 
HETATM   19  C   UNL     1      44.320 -20.922   2.409  1.00  0.00     0.037 A 
HETATM   20  C   UNL     1      44.419 -22.288   2.679  1.00  0.00     0.003 A 
HETATM   21  C   UNL     1      44.650 -22.723   3.982  1.00  0.00     0.000 A 
HETATM   22  C   UNL     1      44.793 -21.794   5.012  1.00  0.00     0.003 A 
HETATM   23  C   UNL     1      44.701 -20.426   4.742  1.00  0.00     0.037 A 
ENDBRANCH  17  18
ENDBRANCH  14  17
ENDBRANCH   8  11
ENDBRANCH   6   7
ENDBRANCH   4   6
BRANCH   1  24
HETATM   24  N   UNL     1      37.358 -11.911  -2.673  1.00  0.00    -0.287 N 
HETATM   25  C   UNL     1      38.364 -11.593  -3.516  1.00  0.00     0.326 C 
HETATM   26  N   UNL     1      39.634 -12.027  -3.341  1.00  0.00    -0.306 N 
HETATM   27  O   UNL     1      38.127 -10.817  -4.448  1.00  0.00    -0.247 OA
HETATM   28  H   UNL     1      40.314 -11.407  -3.756  1.00  0.00     0.171 HD
HETATM   29  H   UNL     1      36.438 -11.640  -2.980  1.00  0.00     0.172 HD
BRANCH  26  30
HETATM   30  C   UNL     1      40.124 -13.280  -2.913  1.00  0.00     0.069 A 
HETATM   31  C   UNL     1      40.925 -13.490  -1.777  1.00  0.00     0.095 A 
HETATM   32  C   UNL     1      41.385 -14.777  -1.471  1.00  0.00     0.039 A 
HETATM   33  C   UNL     1      40.998 -15.868  -2.249  1.00  0.00     0.003 A 
HETATM   34  C   UNL     1      40.149 -15.677  -3.335  1.00  0.00     0.002 A 
HETATM   35  C   UNL     1      39.709 -14.391  -3.659  1.00  0.00     0.032 A 
BRANCH  31  36
HETATM   36  O   UNL     1      41.254 -12.439  -0.960  1.00  0.00    -0.354 OA
HETATM   37  C   UNL     1      42.569 -11.945  -1.209  1.00  0.00     0.210 C 
ENDBRANCH  31  36
ENDBRANCH  26  30
ENDBRANCH   1  24
TORSDOF 8
ENDMDL
MODEL 3
REMARK VINA RESULT:      -8.6      1.630      2.179
REMARK  8 active torsions:
REMARK  status: ('A' for Active; 'I' for Inactive)
REMARK    1  A    between atoms: O_2  and  C_3 
REMARK    2  A    between atoms: C_4  and  N_5 
REMARK       I    between atoms: N_5  and  C_6 
REMARK       I    between atoms: C_6  and  N_7 
REMARK    3  A    between atoms: N_7  and  C_8 
REMARK    4  A    between atoms: C_11  and  C_12 
REMARK    5  A    between atoms: C_12  and  C_13 
REMARK       I    between atoms: C_13  and  N_14 
REMARK    6  A    between atoms: N_14  and  C_15 
REMARK    7  A    between atoms: C_18  and  O_19 
REMARK    8  A    between atoms: O_19  and  C_20 
ROOT
HETATM    1  C   UNL     1      38.849 -13.166   2.568  1.00  0.00     0.174 A 
HETATM    2  S   UNL     1      38.710 -11.468   2.457  1.00  0.00    -0.062 SA
HETATM    3  C   UNL     1      39.214 -11.339   4.090  1.00  0.00     0.081 A 
HETATM    4  C   UNL     1      39.448 -12.596   4.620  1.00  0.00     0.052 A 
HETATM    5  N   UNL     1      39.269 -13.634   3.715  1.00  0.00    -0.228 NA
ENDROOT
BRANCH   4   6
HETATM    6  C   UNL     1      39.895 -12.958   5.999  1.00  0.00     0.163 C 
BRANCH   6   7
HETATM    7  C   UNL     1      41.171 -13.784   6.014  1.00  0.00     0.227 C 
HETATM    8  N   UNL     1      40.947 -15.153   6.040  1.00  0.00    -0.327 N 
HETATM    9  H   UNL     1      39.982 -15.461   6.046  1.00  0.00     0.169 HD
HETATM   10  O   UNL     1      42.269 -13.233   6.005  1.00  0.00    -0.273 OA
BRANCH   8  11
HETATM   11  C   UNL     1      41.922 -16.177   6.038  1.00  0.00     0.034 A 
HETATM   12  C   UNL     1      43.175 -16.061   6.643  1.00  0.00     0.032 A 
HETATM   13  C   UNL     1      44.095 -17.113   6.585  1.00  0.00     0.039 A 
HETATM   14  C   UNL     1      43.762 -18.296   5.933  1.00  0.00     0.076 A 
HETATM   15  C   UNL     1      42.524 -18.423   5.306  1.00  0.00     0.039 A 
HETATM   16  C   UNL     1      41.602 -17.371   5.373  1.00  0.00     0.032 A 
BRANCH  14  17
HETATM   17  O   UNL     1      44.731 -19.263   5.845  1.00  0.00    -0.311 OA
BRANCH  17  18
HETATM   18  C   UNL     1      44.670 -20.174   4.812  1.00  0.00     0.076 A 
HETATM   19  C   UNL     1      44.719 -21.517   5.198  1.00  0.00     0.037 A 
HETATM   20  C   UNL     1      44.627 -22.529   4.242  1.00  0.00     0.003 A 
HETATM   21  C   UNL     1      44.480 -22.201   2.895  1.00  0.00     0.000 A 
HETATM   22  C   UNL     1      44.415 -20.863   2.507  1.00  0.00     0.003 A 
HETATM   23  C   UNL     1      44.500 -19.848   3.465  1.00  0.00     0.037 A 
ENDBRANCH  17  18
ENDBRANCH  14  17
ENDBRANCH   8  11
ENDBRANCH   6   7
ENDBRANCH   4   6
BRANCH   1  24
HETATM   24  N   UNL     1      38.542 -13.820   1.409  1.00  0.00    -0.287 N 
HETATM   25  C   UNL     1      39.296 -13.877   0.291  1.00  0.00     0.326 C 
HETATM   26  N   UNL     1      40.643 -13.738   0.307  1.00  0.00    -0.306 N 
HETATM   27  O   UNL     1      38.726 -13.993  -0.799  1.00  0.00    -0.247 OA
HETATM   28  H   UNL     1      41.004 -13.387  -0.569  1.00  0.00     0.171 HD
HETATM   29  H   UNL     1      37.574 -14.068   1.287  1.00  0.00     0.172 HD
BRANCH  26  30
HETATM   30  C   UNL     1      41.605 -14.222   1.219  1.00  0.00     0.069 A 
HETATM   31  C   UNL     1      41.977 -15.570   1.364  1.00  0.00     0.095 A 
HETATM   32  C   UNL     1      42.920 -15.938   2.332  1.00  0.00     0.039 A 
HETATM   33  C   UNL     1      43.545 -14.965   3.113  1.00  0.00     0.003 A 
HETATM   34  C   UNL     1      43.232 -13.622   2.927  1.00  0.00     0.002 A 
HETATM   35  C   UNL     1      42.274 -13.254   1.980  1.00  0.00     0.032 A 
BRANCH  31  36
HETATM   36  O   UNL     1      41.425 -16.530   0.554  1.00  0.00    -0.354 OA
HETATM   37  C   UNL     1      41.222 -17.767   1.235  1.00  0.00     0.210 C 
ENDBRANCH  31  36
ENDBRANCH  26  30
ENDBRANCH   1  24
TORSDOF 8
ENDMDL
MODEL 4
REMARK VINA RESULT:      -8.5      3.280      4.952
REMARK  8 active torsions:
REMARK  status: ('A' for Active; 'I' for Inactive)
REMARK    1  A    between atoms: O_2  and  C_3 
REMARK    2  A    between atoms: C_4  and  N_5 
REMARK       I    between atoms: N_5  and  C_6 
REMARK       I    between atoms: C_6  and  N_7 
REMARK    3  A    between atoms: N_7  and  C_8 
REMARK    4  A    between atoms: C_11  and  C_12 
REMARK    5  A    between atoms: C_12  and  C_13 
REMARK       I    between atoms: C_13  and  N_14 
REMARK    6  A    between atoms: N_14  and  C_15 
REMARK    7  A    between atoms: C_18  and  O_19 
REMARK    8  A    between atoms: O_19  and  C_20 
ROOT
HETATM    1  C   UNL     1      38.338 -13.675  -0.776  1.00  0.00     0.174 A 
HETATM    2  S   UNL     1      37.223 -12.470  -0.308  1.00  0.00    -0.062 SA
HETATM    3  C   UNL     1      38.270 -12.027   0.975  1.00  0.00     0.081 A 
HETATM    4  C   UNL     1      39.399 -12.828   0.972  1.00  0.00     0.052 A 
HETATM    5  N   UNL     1      39.437 -13.747  -0.070  1.00  0.00    -0.228 NA
ENDROOT
BRANCH   4   6
HETATM    6  C   UNL     1      40.565 -12.799   1.903  1.00  0.00     0.163 C 
BRANCH   6   7
HETATM    7  C   UNL     1      41.020 -14.185   2.331  1.00  0.00     0.227 C 
HETATM    8  N   UNL     1      41.765 -14.849   1.367  1.00  0.00    -0.327 N 
HETATM    9  H   UNL     1      41.930 -14.359   0.495  1.00  0.00     0.169 HD
HETATM   10  O   UNL     1      40.722 -14.623   3.440  1.00  0.00    -0.273 OA
BRANCH   8  11
HETATM   11  C   UNL     1      42.344 -16.134   1.471  1.00  0.00     0.034 A 
HETATM   12  C   UNL     1      43.716 -16.364   1.593  1.00  0.00     0.032 A 
HETATM   13  C   UNL     1      44.216 -17.667   1.675  1.00  0.00     0.039 A 
HETATM   14  C   UNL     1      43.345 -18.752   1.650  1.00  0.00     0.076 A 
HETATM   15  C   UNL     1      41.975 -18.543   1.509  1.00  0.00     0.039 A 
HETATM   16  C   UNL     1      41.476 -17.237   1.435  1.00  0.00     0.032 A 
BRANCH  14  17
HETATM   17  O   UNL     1      43.899 -20.007   1.658  1.00  0.00    -0.311 OA
BRANCH  17  18
HETATM   18  C   UNL     1      44.181 -20.602   2.869  1.00  0.00     0.076 A 
HETATM   19  C   UNL     1      44.366 -21.987   2.823  1.00  0.00     0.037 A 
HETATM   20  C   UNL     1      44.694 -22.693   3.982  1.00  0.00     0.003 A 
HETATM   21  C   UNL     1      44.845 -22.014   5.189  1.00  0.00     0.000 A 
HETATM   22  C   UNL     1      44.677 -20.630   5.236  1.00  0.00     0.003 A 
HETATM   23  C   UNL     1      44.355 -19.921   4.075  1.00  0.00     0.037 A 
ENDBRANCH  17  18
ENDBRANCH  14  17
ENDBRANCH   8  11
ENDBRANCH   6   7
ENDBRANCH   4   6
BRANCH   1  24
HETATM   24  N   UNL     1      37.949 -14.386  -1.875  1.00  0.00    -0.287 N 
HETATM   25  C   UNL     1      37.909 -13.943  -3.150  1.00  0.00     0.326 C 
HETATM   26  N   UNL     1      38.696 -12.939  -3.603  1.00  0.00    -0.306 N 
HETATM   27  O   UNL     1      37.071 -14.429  -3.916  1.00  0.00    -0.247 OA
HETATM   28  H   UNL     1      38.285 -12.452  -4.386  1.00  0.00     0.171 HD
HETATM   29  H   UNL     1      37.415 -15.221  -1.694  1.00  0.00     0.172 HD
BRANCH  26  30
HETATM   30  C   UNL     1      40.048 -12.639  -3.332  1.00  0.00     0.069 A 
HETATM   31  C   UNL     1      41.117 -13.545  -3.448  1.00  0.00     0.095 A 
HETATM   32  C   UNL     1      42.417 -13.143  -3.115  1.00  0.00     0.039 A 
HETATM   33  C   UNL     1      42.672 -11.826  -2.731  1.00  0.00     0.003 A 
HETATM   34  C   UNL     1      41.629 -10.906  -2.681  1.00  0.00     0.002 A 
HETATM   35  C   UNL     1      40.327 -11.309  -2.987  1.00  0.00     0.032 A 
BRANCH  31  36
HETATM   36  O   UNL     1      40.894 -14.822  -3.894  1.00  0.00    -0.354 OA
HETATM   37  C   UNL     1      41.060 -15.796  -2.865  1.00  0.00     0.210 C 
ENDBRANCH  31  36
ENDBRANCH  26  30
ENDBRANCH   1  24
TORSDOF 8
ENDMDL
MODEL 5
REMARK VINA RESULT:      -8.3      2.760      3.977
REMARK  8 active torsions:
REMARK  status: ('A' for Active; 'I' for Inactive)
REMARK    1  A    between atoms: O_2  and  C_3 
REMARK    2  A    between atoms: C_4  and  N_5 
REMARK       I    between atoms: N_5  and  C_6 
REMARK       I    between atoms: C_6  and  N_7 
REMARK    3  A    between atoms: N_7  and  C_8 
REMARK    4  A    between atoms: C_11  and  C_12 
REMARK    5  A    between atoms: C_12  and  C_13 
REMARK       I    between atoms: C_13  and  N_14 
REMARK    6  A    between atoms: N_14  and  C_15 
REMARK    7  A    between atoms: C_18  and  O_19 
REMARK    8  A    between atoms: O_19  and  C_20 
ROOT
HETATM    1  C   UNL     1      40.641 -11.374   0.473  1.00  0.00     0.174 A 
HETATM    2  S   UNL     1      39.238 -11.772  -0.414  1.00  0.00    -0.062 SA
HETATM    3  C   UNL     1      38.625 -12.593   0.961  1.00  0.00     0.081 A 
HETATM    4  C   UNL     1      39.531 -12.519   2.006  1.00  0.00     0.052 A 
HETATM    5  N   UNL     1      40.670 -11.779   1.716  1.00  0.00    -0.228 NA
ENDROOT
BRANCH   4   6
HETATM    6  C   UNL     1      39.416 -13.092   3.381  1.00  0.00     0.163 C 
BRANCH   6   7
HETATM    7  C   UNL     1      40.228 -14.363   3.565  1.00  0.00     0.227 C 
HETATM    8  N   UNL     1      40.915 -14.756   2.426  1.00  0.00    -0.327 N 
HETATM    9  H   UNL     1      40.813 -14.173   1.604  1.00  0.00     0.169 HD
HETATM   10  O   UNL     1      40.233 -14.946   4.647  1.00  0.00    -0.273 OA
BRANCH   8  11
HETATM   11  C   UNL     1      41.766 -15.875   2.286  1.00  0.00     0.034 A 
HETATM   12  C   UNL     1      43.158 -15.813   2.386  1.00  0.00     0.032 A 
HETATM   13  C   UNL     1      43.936 -16.964   2.220  1.00  0.00     0.039 A 
HETATM   14  C   UNL     1      43.327 -18.188   1.966  1.00  0.00     0.076 A 
HETATM   15  C   UNL     1      41.941 -18.266   1.843  1.00  0.00     0.039 A 
HETATM   16  C   UNL     1      41.164 -17.114   2.018  1.00  0.00     0.032 A 
BRANCH  14  17
HETATM   17  O   UNL     1      44.145 -19.266   1.738  1.00  0.00    -0.311 OA
BRANCH  17  18
HETATM   18  C   UNL     1      44.318 -20.194   2.741  1.00  0.00     0.076 A 
HETATM   19  C   UNL     1      44.331 -21.528   2.324  1.00  0.00     0.037 A 
HETATM   20  C   UNL     1      44.538 -22.554   3.247  1.00  0.00     0.003 A 
HETATM   21  C   UNL     1      44.738 -22.248   4.592  1.00  0.00     0.000 A 
HETATM   22  C   UNL     1      44.742 -20.918   5.010  1.00  0.00     0.003 A 
HETATM   23  C   UNL     1      44.542 -19.889   4.086  1.00  0.00     0.037 A 
ENDBRANCH  17  18
ENDBRANCH  14  17
ENDBRANCH   8  11
ENDBRANCH   6   7
ENDBRANCH   4   6
BRANCH   1  24
HETATM   24  N   UNL     1      41.544 -10.631  -0.233  1.00  0.00    -0.287 N 
HETATM   25  C   UNL     1      42.711 -11.064  -0.757  1.00  0.00     0.326 C 
HETATM   26  N   UNL     1      42.925 -12.356  -1.101  1.00  0.00    -0.306 N 
HETATM   27  O   UNL     1      43.643 -10.261  -0.864  1.00  0.00    -0.247 OA
HETATM   28  H   UNL     1      43.904 -12.605  -1.068  1.00  0.00     0.171 HD
HETATM   29  H   UNL     1      41.459  -9.632  -0.143  1.00  0.00     0.172 HD
BRANCH  26  30
HETATM   30  C   UNL     1      42.071 -13.296  -1.716  1.00  0.00     0.069 A 
HETATM   31  C   UNL     1      41.571 -13.201  -3.026  1.00  0.00     0.095 A 
HETATM   32  C   UNL     1      40.698 -14.180  -3.517  1.00  0.00     0.039 A 
HETATM   33  C   UNL     1      40.371 -15.289  -2.737  1.00  0.00     0.003 A 
HETATM   34  C   UNL     1      40.917 -15.425  -1.464  1.00  0.00     0.002 A 
HETATM   35  C   UNL     1      41.767 -14.438  -0.961  1.00  0.00     0.032 A 
BRANCH  31  36
HETATM   36  O   UNL     1      41.942 -12.155  -3.832  1.00  0.00    -0.354 OA
HETATM   37  C   UNL     1      40.828 -11.366  -4.248  1.00  0.00     0.210 C 
ENDBRANCH  31  36
ENDBRANCH  26  30
ENDBRANCH   1  24
TORSDOF 8
ENDMDL
MODEL 6
REMARK VINA RESULT:      -8.3      5.224      8.359
REMARK  8 active torsions:
REMARK  status: ('A' for Active; 'I' for Inactive)
REMARK    1  A    between atoms: O_2  and  C_3 
REMARK    2  A    between atoms: C_4  and  N_5 
REMARK       I    between atoms: N_5  and  C_6 
REMARK       I    between atoms: C_6  and  N_7 
REMARK    3  A    between atoms: N_7  and  C_8 
REMARK    4  A    between atoms: C_11  and  C_12 
REMARK    5  A    between atoms: C_12  and  C_13 
REMARK       I    between atoms: C_13  and  N_14 
REMARK    6  A    between atoms: N_14  and  C_15 
REMARK    7  A    between atoms: C_18  and  O_19 
REMARK    8  A    between atoms: O_19  and  C_20 
ROOT
HETATM    1  C   UNL     1      39.985 -10.540  10.811  1.00  0.00     0.174 A 
HETATM    2  S   UNL     1      39.718  -8.874  11.072  1.00  0.00    -0.062 SA
HETATM    3  C   UNL     1      40.595  -8.529   9.640  1.00  0.00     0.081 A 
HETATM    4  C   UNL     1      41.043  -9.702   9.057  1.00  0.00     0.052 A 
HETATM    5  N   UNL     1      40.647 -10.853   9.727  1.00  0.00    -0.228 NA
ENDROOT
BRANCH   4   6
HETATM    6  C   UNL     1      41.845  -9.876   7.809  1.00  0.00     0.163 C 
BRANCH   6   7
HETATM    7  C   UNL     1      41.221 -10.860   6.833  1.00  0.00     0.227 C 
HETATM    8  N   UNL     1      41.964 -12.019   6.658  1.00  0.00    -0.327 N 
HETATM    9  H   UNL     1      42.826 -12.095   7.184  1.00  0.00     0.169 HD
HETATM   10  O   UNL     1      40.156 -10.596   6.279  1.00  0.00    -0.273 OA
BRANCH   8  11
HETATM   11  C   UNL     1      41.641 -13.124   5.839  1.00  0.00     0.034 A 
HETATM   12  C   UNL     1      40.536 -13.952   6.047  1.00  0.00     0.032 A 
HETATM   13  C   UNL     1      40.290 -15.038   5.201  1.00  0.00     0.039 A 
HETATM   14  C   UNL     1      41.140 -15.296   4.131  1.00  0.00     0.076 A 
HETATM   15  C   UNL     1      42.259 -14.493   3.919  1.00  0.00     0.039 A 
HETATM   16  C   UNL     1      42.498 -13.401   4.763  1.00  0.00     0.032 A 
BRANCH  14  17
HETATM   17  O   UNL     1      40.891 -16.418   3.382  1.00  0.00    -0.311 OA
BRANCH  17  18
HETATM   18  C   UNL     1      41.874 -17.377   3.271  1.00  0.00     0.076 A 
HETATM   19  C   UNL     1      42.285 -17.663   1.966  1.00  0.00     0.037 A 
HETATM   20  C   UNL     1      43.302 -18.590   1.733  1.00  0.00     0.003 A 
HETATM   21  C   UNL     1      43.916 -19.231   2.808  1.00  0.00     0.000 A 
HETATM   22  C   UNL     1      43.521 -18.937   4.113  1.00  0.00     0.003 A 
HETATM   23  C   UNL     1      42.508 -18.004   4.347  1.00  0.00     0.037 A 
ENDBRANCH  17  18
ENDBRANCH  14  17
ENDBRANCH   8  11
ENDBRANCH   6   7
ENDBRANCH   4   6
BRANCH   1  24
HETATM   24  N   UNL     1      39.421 -11.342  11.761  1.00  0.00    -0.287 N 
HETATM   25  C   UNL     1      40.061 -12.233  12.549  1.00  0.00     0.326 C 
HETATM   26  N   UNL     1      41.370 -12.116  12.875  1.00  0.00    -0.306 N 
HETATM   27  O   UNL     1      39.443 -13.231  12.931  1.00  0.00    -0.247 OA
HETATM   28  H   UNL     1      41.795 -13.008  13.084  1.00  0.00     0.171 HD
HETATM   29  H   UNL     1      38.423 -11.463  11.700  1.00  0.00     0.172 HD
BRANCH  26  30
HETATM   30  C   UNL     1      42.136 -10.976  13.201  1.00  0.00     0.069 A 
HETATM   31  C   UNL     1      43.253 -10.518  12.481  1.00  0.00     0.095 A 
HETATM   32  C   UNL     1      43.960  -9.393  12.923  1.00  0.00     0.039 A 
HETATM   33  C   UNL     1      43.523  -8.679  14.039  1.00  0.00     0.003 A 
HETATM   34  C   UNL     1      42.377  -9.087  14.717  1.00  0.00     0.002 A 
HETATM   35  C   UNL     1      41.685 -10.223  14.294  1.00  0.00     0.032 A 
BRANCH  31  36
HETATM   36  O   UNL     1      43.652 -11.166  11.340  1.00  0.00    -0.354 OA
HETATM   37  C   UNL     1      44.442 -10.337  10.490  1.00  0.00     0.210 C 
ENDBRANCH  31  36
ENDBRANCH  26  30
ENDBRANCH   1  24
TORSDOF 8
ENDMDL
MODEL 7
REMARK VINA RESULT:      -8.3      2.553      3.808
REMARK  8 active torsions:
REMARK  status: ('A' for Active; 'I' for Inactive)
REMARK    1  A    between atoms: O_2  and  C_3 
REMARK    2  A    between atoms: C_4  and  N_5 
REMARK       I    between atoms: N_5  and  C_6 
REMARK       I    between atoms: C_6  and  N_7 
REMARK    3  A    between atoms: N_7  and  C_8 
REMARK    4  A    between atoms: C_11  and  C_12 
REMARK    5  A    between atoms: C_12  and  C_13 
REMARK       I    between atoms: C_13  and  N_14 
REMARK    6  A    between atoms: N_14  and  C_15 
REMARK    7  A    between atoms: C_18  and  O_19 
REMARK    8  A    between atoms: O_19  and  C_20 
ROOT
HETATM    1  C   UNL     1      40.557 -11.061   0.090  1.00  0.00     0.174 A 
HETATM    2  S   UNL     1      39.103 -10.939  -0.795  1.00  0.00    -0.062 SA
HETATM    3  C   UNL     1      38.288 -11.764   0.467  1.00  0.00     0.081 A 
HETATM    4  C   UNL     1      39.175 -12.088   1.480  1.00  0.00     0.052 A 
HETATM    5  N   UNL     1      40.471 -11.640   1.260  1.00  0.00    -0.228 NA
ENDROOT
BRANCH   4   6
HETATM    6  C   UNL     1      38.905 -12.808   2.760  1.00  0.00     0.163 C 
BRANCH   6   7
HETATM    7  C   UNL     1      39.554 -14.181   2.819  1.00  0.00     0.227 C 
HETATM    8  N   UNL     1      40.683 -14.230   3.624  1.00  0.00    -0.327 N 
HETATM    9  H   UNL     1      40.958 -13.369   4.083  1.00  0.00     0.169 HD
HETATM   10  O   UNL     1      39.077 -15.122   2.188  1.00  0.00    -0.273 OA
BRANCH   8  11
HETATM   11  C   UNL     1      41.488 -15.358   3.897  1.00  0.00     0.034 A 
HETATM   12  C   UNL     1      41.062 -16.458   4.645  1.00  0.00     0.032 A 
HETATM   13  C   UNL     1      41.923 -17.533   4.887  1.00  0.00     0.039 A 
HETATM   14  C   UNL     1      43.214 -17.523   4.370  1.00  0.00     0.076 A 
HETATM   15  C   UNL     1      43.665 -16.426   3.638  1.00  0.00     0.039 A 
HETATM   16  C   UNL     1      42.797 -15.355   3.391  1.00  0.00     0.032 A 
BRANCH  14  17
HETATM   17  O   UNL     1      44.037 -18.570   4.702  1.00  0.00    -0.311 OA
BRANCH  17  18
HETATM   18  C   UNL     1      44.107 -19.656   3.858  1.00  0.00     0.076 A 
HETATM   19  C   UNL     1      44.674 -20.807   4.413  1.00  0.00     0.037 A 
HETATM   20  C   UNL     1      44.762 -21.981   3.663  1.00  0.00     0.003 A 
HETATM   21  C   UNL     1      44.279 -22.008   2.356  1.00  0.00     0.000 A 
HETATM   22  C   UNL     1      43.699 -20.867   1.804  1.00  0.00     0.003 A 
HETATM   23  C   UNL     1      43.603 -19.693   2.556  1.00  0.00     0.037 A 
ENDBRANCH  17  18
ENDBRANCH  14  17
ENDBRANCH   8  11
ENDBRANCH   6   7
ENDBRANCH   4   6
BRANCH   1  24
HETATM   24  N   UNL     1      41.629 -10.487  -0.531  1.00  0.00    -0.287 N 
HETATM   25  C   UNL     1      42.780 -11.098  -0.884  1.00  0.00     0.326 C 
HETATM   26  N   UNL     1      42.859 -12.426  -1.136  1.00  0.00    -0.306 N 
HETATM   27  O   UNL     1      43.818 -10.428  -0.911  1.00  0.00    -0.247 OA
HETATM   28  H   UNL     1      43.783 -12.795  -0.968  1.00  0.00     0.171 HD
HETATM   29  H   UNL     1      41.670  -9.481  -0.500  1.00  0.00     0.172 HD
BRANCH  26  30
HETATM   30  C   UNL     1      41.964 -13.287  -1.807  1.00  0.00     0.069 A 
HETATM   31  C   UNL     1      41.409 -14.460  -1.266  1.00  0.00     0.095 A 
HETATM   32  C   UNL     1      40.559 -15.257  -2.043  1.00  0.00     0.039 A 
HETATM   33  C   UNL     1      40.202 -14.861  -3.332  1.00  0.00     0.003 A 
HETATM   34  C   UNL     1      40.692 -13.665  -3.848  1.00  0.00     0.002 A 
HETATM   35  C   UNL     1      41.561 -12.880  -3.087  1.00  0.00     0.032 A 
BRANCH  31  36
HETATM   36  O   UNL     1      41.693 -14.826   0.025  1.00  0.00    -0.354 OA
HETATM   37  C   UNL     1      41.695 -16.241   0.203  1.00  0.00     0.210 C 
ENDBRANCH  31  36
ENDBRANCH  26  30
ENDBRANCH   1  24
TORSDOF 8
ENDMDL
MODEL 8
REMARK VINA RESULT:      -8.2      4.470      8.787
REMARK  8 active torsions:
REMARK  status: ('A' for Active; 'I' for Inactive)
REMARK    1  A    between atoms: O_2  and  C_3 
REMARK    2  A    between atoms: C_4  and  N_5 
REMARK       I    between atoms: N_5  and  C_6 
REMARK       I    between atoms: C_6  and  N_7 
REMARK    3  A    between atoms: N_7  and  C_8 
REMARK    4  A    between atoms: C_11  and  C_12 
REMARK    5  A    between atoms: C_12  and  C_13 
REMARK       I    between atoms: C_13  and  N_14 
REMARK    6  A    between atoms: N_14  and  C_15 
REMARK    7  A    between atoms: C_18  and  O_19 
REMARK    8  A    between atoms: O_19  and  C_20 
ROOT
HETATM    1  C   UNL     1      42.479 -15.182   5.513  1.00  0.00     0.174 A 
HETATM    2  S   UNL     1      43.532 -14.298   4.502  1.00  0.00    -0.062 SA
HETATM    3  C   UNL     1      42.232 -13.259   4.089  1.00  0.00     0.081 A 
HETATM    4  C   UNL     1      41.076 -13.655   4.741  1.00  0.00     0.052 A 
HETATM    5  N   UNL     1      41.249 -14.742   5.587  1.00  0.00    -0.228 NA
ENDROOT
BRANCH   4   6
HETATM    6  C   UNL     1      39.714 -13.046   4.674  1.00  0.00     0.163 C 
BRANCH   6   7
HETATM    7  C   UNL     1      39.520 -11.910   5.665  1.00  0.00     0.227 C 
HETATM    8  N   UNL     1      40.381 -11.967   6.752  1.00  0.00    -0.327 N 
HETATM    9  H   UNL     1      41.037 -12.738   6.780  1.00  0.00     0.169 HD
HETATM   10  O   UNL     1      38.663 -11.052   5.468  1.00  0.00    -0.273 OA
BRANCH   8  11
HETATM   11  C   UNL     1      40.461 -11.050   7.825  1.00  0.00     0.034 A 
HETATM   12  C   UNL     1      41.427 -10.046   7.922  1.00  0.00     0.032 A 
HETATM   13  C   UNL     1      41.452  -9.186   9.024  1.00  0.00     0.039 A 
HETATM   14  C   UNL     1      40.501  -9.314  10.033  1.00  0.00     0.076 A 
HETATM   15  C   UNL     1      39.542 -10.323   9.963  1.00  0.00     0.039 A 
HETATM   16  C   UNL     1      39.515 -11.178   8.854  1.00  0.00     0.032 A 
BRANCH  14  17
HETATM   17  O   UNL     1      40.622  -8.492  11.124  1.00  0.00    -0.311 OA
BRANCH  17  18
HETATM   18  C   UNL     1      41.369  -8.918  12.200  1.00  0.00     0.076 A 
HETATM   19  C   UNL     1      40.632  -9.297  13.325  1.00  0.00     0.037 A 
HETATM   20  C   UNL     1      41.279  -9.782  14.463  1.00  0.00     0.003 A 
HETATM   21  C   UNL     1      42.668  -9.895  14.475  1.00  0.00     0.000 A 
HETATM   22  C   UNL     1      43.407  -9.533  13.349  1.00  0.00     0.003 A 
HETATM   23  C   UNL     1      42.759  -9.054  12.207  1.00  0.00     0.037 A 
ENDBRANCH  17  18
ENDBRANCH  14  17
ENDBRANCH   8  11
ENDBRANCH   6   7
ENDBRANCH   4   6
BRANCH   1  24
HETATM   24  N   UNL     1      43.082 -16.222   6.160  1.00  0.00    -0.287 N 
HETATM   25  C   UNL     1      42.811 -17.535   6.003  1.00  0.00     0.326 C 
HETATM   26  N   UNL     1      42.286 -18.046   4.865  1.00  0.00    -0.306 N 
HETATM   27  O   UNL     1      42.987 -18.291   6.964  1.00  0.00    -0.247 OA
HETATM   28  H   UNL     1      41.765 -18.895   5.028  1.00  0.00     0.171 HD
HETATM   29  H   UNL     1      43.591 -15.986   6.996  1.00  0.00     0.172 HD
BRANCH  26  30
HETATM   30  C   UNL     1      42.550 -17.736   3.513  1.00  0.00     0.069 A 
HETATM   31  C   UNL     1      41.647 -17.116   2.633  1.00  0.00     0.095 A 
HETATM   32  C   UNL     1      42.008 -16.892   1.299  1.00  0.00     0.039 A 
HETATM   33  C   UNL     1      43.288 -17.219   0.850  1.00  0.00     0.003 A 
HETATM   34  C   UNL     1      44.211 -17.770   1.733  1.00  0.00     0.002 A 
HETATM   35  C   UNL     1      43.846 -18.019   3.058  1.00  0.00     0.032 A 
BRANCH  31  36
HETATM   36  O   UNL     1      40.411 -16.721   3.078  1.00  0.00    -0.354 OA
HETATM   37  C   UNL     1      39.726 -15.902   2.131  1.00  0.00     0.210 C 
ENDBRANCH  31  36
ENDBRANCH  26  30
ENDBRANCH   1  24
TORSDOF 8
ENDMDL
MODEL 9
REMARK VINA RESULT:      -8.1      2.336      3.385
REMARK  8 active torsions:
REMARK  status: ('A' for Active; 'I' for Inactive)
REMARK    1  A    between atoms: O_2  and  C_3 
REMARK    2  A    between atoms: C_4  and  N_5 
REMARK       I    between atoms: N_5  and  C_6 
REMARK       I    between atoms: C_6  and  N_7 
REMARK    3  A    between atoms: N_7  and  C_8 
REMARK    4  A    between atoms: C_11  and  C_12 
REMARK    5  A    between atoms: C_12  and  C_13 
REMARK       I    between atoms: C_13  and  N_14 
REMARK    6  A    between atoms: N_14  and  C_15 
REMARK    7  A    between atoms: C_18  and  O_19 
REMARK    8  A    between atoms: O_19  and  C_20 
ROOT
HETATM    1  C   UNL     1      41.719 -11.513   0.413  1.00  0.00     0.174 A 
HETATM    2  S   UNL     1      40.784 -10.137   0.793  1.00  0.00    -0.062 SA
HETATM    3  C   UNL     1      40.926 -10.523   2.457  1.00  0.00     0.081 A 
HETATM    4  C   UNL     1      41.670 -11.679   2.619  1.00  0.00     0.052 A 
HETATM    5  N   UNL     1      42.151 -12.213   1.430  1.00  0.00    -0.228 NA
ENDROOT
BRANCH   4   6
HETATM    6  C   UNL     1      42.040 -12.380   3.884  1.00  0.00     0.163 C 
BRANCH   6   7
HETATM    7  C   UNL     1      42.897 -13.614   3.653  1.00  0.00     0.227 C 
HETATM    8  N   UNL     1      42.191 -14.697   3.149  1.00  0.00    -0.327 N 
HETATM    9  H   UNL     1      41.200 -14.564   2.988  1.00  0.00     0.169 HD
HETATM   10  O   UNL     1      44.099 -13.593   3.911  1.00  0.00    -0.273 OA
BRANCH   8  11
HETATM   11  C   UNL     1      42.706 -15.969   2.812  1.00  0.00     0.034 A 
HETATM   12  C   UNL     1      43.612 -16.193   1.773  1.00  0.00     0.032 A 
HETATM   13  C   UNL     1      44.065 -17.485   1.489  1.00  0.00     0.039 A 
HETATM   14  C   UNL     1      43.626 -18.563   2.251  1.00  0.00     0.076 A 
HETATM   15  C   UNL     1      42.707 -18.362   3.279  1.00  0.00     0.039 A 
HETATM   16  C   UNL     1      42.261 -17.065   3.567  1.00  0.00     0.032 A 
BRANCH  14  17
HETATM   17  O   UNL     1      44.047 -19.814   1.878  1.00  0.00    -0.311 OA
BRANCH  17  18
HETATM   18  C   UNL     1      44.367 -20.728   2.858  1.00  0.00     0.076 A 
HETATM   19  C   UNL     1      44.654 -20.182   4.112  1.00  0.00     0.037 A 
HETATM   20  C   UNL     1      44.954 -21.015   5.192  1.00  0.00     0.003 A 
HETATM   21  C   UNL     1      44.963 -22.398   5.021  1.00  0.00     0.000 A 
HETATM   22  C   UNL     1      44.662 -22.948   3.775  1.00  0.00     0.003 A 
HETATM   23  C   UNL     1      44.354 -22.115   2.695  1.00  0.00     0.037 A 
ENDBRANCH  17  18
ENDBRANCH  14  17
ENDBRANCH   8  11
ENDBRANCH   6   7
ENDBRANCH   4   6
BRANCH   1  24
HETATM   24  N   UNL     1      41.936 -11.677  -0.925  1.00  0.00    -0.287 N 
HETATM   25  C   UNL     1      41.900 -12.839  -1.612  1.00  0.00     0.326 C 
HETATM   26  N   UNL     1      41.172 -13.907  -1.208  1.00  0.00    -0.306 N 
HETATM   27  O   UNL     1      42.614 -12.954  -2.613  1.00  0.00    -0.247 OA
HETATM   28  H   UNL     1      41.552 -14.781  -1.544  1.00  0.00     0.171 HD
HETATM   29  H   UNL     1      42.404 -10.917  -1.393  1.00  0.00     0.172 HD
BRANCH  26  30
HETATM   30  C   UNL     1      39.884 -13.976  -0.634  1.00  0.00     0.069 A 
HETATM   31  C   UNL     1      38.693 -13.576  -1.266  1.00  0.00     0.095 A 
HETATM   32  C   UNL     1      37.474 -13.657  -0.581  1.00  0.00     0.039 A 
HETATM   33  C   UNL     1      37.422 -14.195   0.705  1.00  0.00     0.003 A 
HETATM   34  C   UNL     1      38.587 -14.656   1.310  1.00  0.00     0.002 A 
HETATM   35  C   UNL     1      39.808 -14.554   0.640  1.00  0.00     0.032 A 
BRANCH  31  36
HETATM   36  O   UNL     1      38.719 -13.113  -2.557  1.00  0.00    -0.354 OA
HETATM   37  C   UNL     1      37.663 -13.652  -3.350  1.00  0.00     0.210 C 
ENDBRANCH  31  36
ENDBRANCH  26  30
ENDBRANCH   1  24
TORSDOF 8
ENDMDL
MODEL 10
REMARK VINA RESULT:      -8.0      2.102      3.267
REMARK  8 active torsions:
REMARK  status: ('A' for Active; 'I' for Inactive)
REMARK    1  A    between atoms: O_2  and  C_3 
REMARK    2  A    between atoms: C_4  and  N_5 
REMARK       I    between atoms: N_5  and  C_6 
REMARK       I    between atoms: C_6  and  N_7 
REMARK    3  A    between atoms: N_7  and  C_8 
REMARK    4  A    between atoms: C_11  and  C_12 
REMARK    5  A    between atoms: C_12  and  C_13 
REMARK       I    between atoms: C_13  and  N_14 
REMARK    6  A    between atoms: N_14  and  C_15 
REMARK    7  A    between atoms: C_18  and  O_19 
REMARK    8  A    between atoms: O_19  and  C_20 
ROOT
HETATM    1  C   UNL     1      40.892 -11.086   2.154  1.00  0.00     0.174 A 
HETATM    2  S   UNL     1      39.370 -10.317   2.090  1.00  0.00    -0.062 SA
HETATM    3  C   UNL     1      38.862 -11.252   3.434  1.00  0.00     0.081 A 
HETATM    4  C   UNL     1      39.880 -12.097   3.842  1.00  0.00     0.052 A 
HETATM    5  N   UNL     1      41.055 -11.958   3.115  1.00  0.00    -0.228 NA
ENDROOT
BRANCH   4   6
HETATM    6  C   UNL     1      39.878 -13.084   4.963  1.00  0.00     0.163 C 
BRANCH   6   7
HETATM    7  C   UNL     1      41.007 -14.097   4.865  1.00  0.00     0.227 C 
HETATM    8  N   UNL     1      40.954 -14.881   3.721  1.00  0.00    -0.327 N 
HETATM    9  H   UNL     1      40.190 -14.707   3.079  1.00  0.00     0.169 HD
HETATM   10  O   UNL     1      41.856 -14.170   5.750  1.00  0.00    -0.273 OA
BRANCH   8  11
HETATM   11  C   UNL     1      41.865 -15.890   3.336  1.00  0.00     0.034 A 
HETATM   12  C   UNL     1      43.135 -15.635   2.813  1.00  0.00     0.032 A 
HETATM   13  C   UNL     1      43.976 -16.688   2.439  1.00  0.00     0.039 A 
HETATM   14  C   UNL     1      43.559 -18.006   2.597  1.00  0.00     0.076 A 
HETATM   15  C   UNL     1      42.287 -18.279   3.098  1.00  0.00     0.039 A 
HETATM   16  C   UNL     1      41.450 -17.223   3.479  1.00  0.00     0.032 A 
BRANCH  14  17
HETATM   17  O   UNL     1      44.395 -18.993   2.143  1.00  0.00    -0.311 OA
BRANCH  17  18
HETATM   18  C   UNL     1      44.534 -20.144   2.888  1.00  0.00     0.076 A 
HETATM   19  C   UNL     1      44.777 -19.945   4.251  1.00  0.00     0.037 A 
HETATM   20  C   UNL     1      44.897 -21.037   5.112  1.00  0.00     0.003 A 
HETATM   21  C   UNL     1      44.769 -22.332   4.613  1.00  0.00     0.000 A 
HETATM   22  C   UNL     1      44.511 -22.535   3.257  1.00  0.00     0.003 A 
HETATM   23  C   UNL     1      44.383 -21.442   2.396  1.00  0.00     0.037 A 
ENDBRANCH  17  18
ENDBRANCH  14  17
ENDBRANCH   8  11
ENDBRANCH   6   7
ENDBRANCH   4   6
BRANCH   1  24
HETATM   24  N   UNL     1      41.770 -10.647   1.205  1.00  0.00    -0.287 N 
HETATM   25  C   UNL     1      42.200 -11.335   0.125  1.00  0.00     0.326 C 
HETATM   26  N   UNL     1      41.478 -12.325  -0.450  1.00  0.00    -0.306 N 
HETATM   27  O   UNL     1      43.330 -11.094  -0.314  1.00  0.00    -0.247 OA
HETATM   28  H   UNL     1      42.060 -12.995  -0.932  1.00  0.00     0.171 HD
HETATM   29  H   UNL     1      42.332  -9.851   1.458  1.00  0.00     0.172 HD
BRANCH  26  30
HETATM   30  C   UNL     1      40.091 -12.429  -0.689  1.00  0.00     0.069 A 
HETATM   31  C   UNL     1      39.221 -13.320  -0.036  1.00  0.00     0.095 A 
HETATM   32  C   UNL     1      37.866 -13.359  -0.385  1.00  0.00     0.039 A 
HETATM   33  C   UNL     1      37.354 -12.471  -1.332  1.00  0.00     0.003 A 
HETATM   34  C   UNL     1      38.196 -11.540  -1.932  1.00  0.00     0.002 A 
HETATM   35  C   UNL     1      39.554 -11.515  -1.607  1.00  0.00     0.032 A 
BRANCH  31  36
HETATM   36  O   UNL     1      39.694 -14.148   0.949  1.00  0.00    -0.354 OA
HETATM   37  C   UNL     1      38.664 -14.940   1.537  1.00  0.00     0.210 C 
ENDBRANCH  31  36
ENDBRANCH  26  30
ENDBRANCH   1  24
TORSDOF 8
ENDMDL
