MODEL 1
REMARK VINA RESULT:      -8.4      0.000      0.000
REMARK  9 active torsions:
REMARK  status: ('A' for Active; 'I' for Inactive)
REMARK    1  A    between atoms: C_2  and  C_3 
REMARK    2  A    between atoms: C_7  and  C_8 
REMARK    3  A    between atoms: C_8  and  C_9 
REMARK       I    between atoms: C_9  and  N_10 
REMARK    4  A    between atoms: N_10  and  C_11 
REMARK    5  A    between atoms: C_11  and  C_12 
REMARK    6  A    between atoms: C_12  and  N_13 
REMARK    7  A    between atoms: C_21  and  C_22 
REMARK    8  A    between atoms: C_32  and  C_33 
REMARK    9  A    between atoms: C_33  and  O_34 
ROOT
HETATM    1  C   UNL     1      41.754 -13.453   1.707  1.00  0.00     0.051 C 
HETATM    2  N   UNL     1      42.922 -13.529   2.465  1.00  0.00    -0.228 NA
HETATM    3  C   UNL     1      42.796 -14.042   3.644  1.00  0.00     0.170 C 
HETATM    4  N   UNL     1      41.461 -14.657   4.138  1.00  0.00    -0.318 N 
HETATM    5  C   UNL     1      41.232 -14.225   5.331  1.00  0.00     0.011 C 
HETATM    6  C   UNL     1      40.727 -15.296   3.018  1.00  0.00     0.166 C 
HETATM    7  S   UNL     1      43.890 -13.799   4.958  1.00  0.00    -0.086 SA
HETATM    8  C   UNL     1      42.480 -13.881   6.129  1.00  0.00     0.135 C 
HETATM    9  C   UNL     1      40.688 -14.255   1.947  1.00  0.00     0.069 C 
ENDROOT
BRANCH   5  10
HETATM   10  C   UNL     1      39.851 -13.756   5.718  1.00  0.00     0.156 C 
BRANCH  10  11
HETATM   11  C   UNL     1      39.979 -12.368   6.340  1.00  0.00     0.223 C 
HETATM   12  N   UNL     1      39.905 -12.258   7.698  1.00  0.00    -0.359 N 
HETATM   13  H   UNL     1      39.676 -13.082   8.250  1.00  0.00     0.162 HD
HETATM   14  O   UNL     1      40.137 -11.377   5.628  1.00  0.00    -0.273 OA
BRANCH  12  15
HETATM   15  C   UNL     1      39.721 -10.961   8.373  1.00  0.00     0.150 C 
BRANCH  15  16
HETATM   16  C   UNL     1      39.919 -10.962   9.911  1.00  0.00     0.254 C 
BRANCH  16  17
HETATM   17  N   UNL     1      41.372 -11.151  10.316  1.00  0.00    -0.070 N 
HETATM   18  H   UNL     1      41.620 -12.123  10.054  1.00  0.00     0.279 HD
HETATM   19  C   UNL     1      42.336 -10.269   9.554  1.00  0.00     0.235 C 
HETATM   20  C   UNL     1      43.763 -10.695   9.879  1.00  0.00     0.028 C 
HETATM   21  C   UNL     1      44.039 -10.654  11.378  1.00  0.00     0.003 C 
HETATM   22  C   UNL     1      43.000 -11.452  12.156  1.00  0.00     0.028 C 
HETATM   23  C   UNL     1      41.580 -11.027  11.808  1.00  0.00     0.235 C 
ENDBRANCH  16  17
ENDBRANCH  15  16
ENDBRANCH  12  15
ENDBRANCH  10  11
ENDBRANCH   5  10
BRANCH   6  24
HETATM   24  C   UNL     1      41.445 -16.636   2.717  1.00  0.00    -0.024 C 
HETATM   25  C   UNL     1      41.880 -17.105   1.454  1.00  0.00    -0.053 C 
HETATM   26  C   UNL     1      41.501 -16.532   0.112  1.00  0.00     0.049 C 
HETATM   27  C   UNL     1      42.766 -18.205   1.395  1.00  0.00     0.014 C 
HETATM   28  C   UNL     1      43.188 -18.887   2.536  1.00  0.00    -0.061 C 
HETATM   29  C   UNL     1      44.153 -20.032   2.427  1.00  0.00     0.048 C 
HETATM   30  C   UNL     1      42.644 -18.526   3.762  1.00  0.00     0.007 C 
HETATM   31  C   UNL     1      41.780 -17.432   3.848  1.00  0.00     0.011 C 
ENDBRANCH   6  24
BRANCH   9  32
HETATM   32  C   UNL     1      39.344 -13.943   1.422  1.00  0.00     0.293 C 
HETATM   33  O   UNL     1      38.982 -14.319   0.320  1.00  0.00    -0.259 OA
BRANCH  32  34
HETATM   34  O   UNL     1      38.724 -13.080   2.246  1.00  0.00    -0.323 OA
HETATM   35  C   UNL     1      38.051 -11.972   1.629  1.00  0.00     0.213 C 
ENDBRANCH  32  34
ENDBRANCH   9  32
BRANCH   1  36
HETATM   36  C   UNL     1      41.773 -12.376   0.639  1.00  0.00     0.056 C 
HETATM   37  C   UNL     1      42.102 -12.940  -0.734  1.00  0.00     0.011 C 
ENDBRANCH   1  36
TORSDOF 9
ENDMDL
MODEL 2
REMARK VINA RESULT:      -7.9      1.623      2.520
REMARK  9 active torsions:
REMARK  status: ('A' for Active; 'I' for Inactive)
REMARK    1  A    between atoms: C_2  and  C_3 
REMARK    2  A    between atoms: C_7  and  C_8 
REMARK    3  A    between atoms: C_8  and  C_9 
REMARK       I    between atoms: C_9  and  N_10 
REMARK    4  A    between atoms: N_10  and  C_11 
REMARK    5  A    between atoms: C_11  and  C_12 
REMARK    6  A    between atoms: C_12  and  N_13 
REMARK    7  A    between atoms: C_21  and  C_22 
REMARK    8  A    between atoms: C_32  and  C_33 
REMARK    9  A    between atoms: C_33  and  O_34 
ROOT
HETATM    1  C   UNL     1      42.120 -13.716   1.764  1.00  0.00     0.051 C 
HETATM    2  N   UNL     1      43.165 -13.624   2.683  1.00  0.00    -0.228 NA
HETATM    3  C   UNL     1      42.941 -14.146   3.844  1.00  0.00     0.170 C 
HETATM    4  N   UNL     1      41.646 -14.939   4.157  1.00  0.00    -0.318 N 
HETATM    5  C   UNL     1      41.189 -14.540   5.294  1.00  0.00     0.011 C 
HETATM    6  C   UNL     1      41.178 -15.679   2.958  1.00  0.00     0.166 C 
HETATM    7  S   UNL     1      43.789 -13.747   5.294  1.00  0.00    -0.086 SA
HETATM    8  C   UNL     1      42.249 -14.021   6.253  1.00  0.00     0.135 C 
HETATM    9  C   UNL     1      41.151 -14.658   1.868  1.00  0.00     0.069 C 
ENDROOT
BRANCH   5  10
HETATM   10  C   UNL     1      39.716 -14.267   5.468  1.00  0.00     0.156 C 
BRANCH  10  11
HETATM   11  C   UNL     1      39.512 -12.754   5.480  1.00  0.00     0.223 C 
HETATM   12  N   UNL     1      39.941 -12.035   4.403  1.00  0.00    -0.359 N 
HETATM   13  H   UNL     1      40.462 -12.507   3.667  1.00  0.00     0.162 HD
HETATM   14  O   UNL     1      38.982 -12.203   6.444  1.00  0.00    -0.273 OA
BRANCH  12  15
HETATM   15  C   UNL     1      40.063 -10.566   4.435  1.00  0.00     0.150 C 
BRANCH  15  16
HETATM   16  C   UNL     1      41.298 -10.004   5.187  1.00  0.00     0.254 C 
BRANCH  16  17
HETATM   17  N   UNL     1      41.031  -9.773   6.665  1.00  0.00    -0.070 N 
HETATM   18  H   UNL     1      40.052 -10.070   6.831  1.00  0.00     0.279 HD
HETATM   19  C   UNL     1      41.876 -10.635   7.577  1.00  0.00     0.235 C 
HETATM   20  C   UNL     1      41.376 -10.482   9.009  1.00  0.00     0.028 C 
HETATM   21  C   UNL     1      41.382  -9.025   9.459  1.00  0.00     0.003 C 
HETATM   22  C   UNL     1      40.625  -8.138   8.478  1.00  0.00     0.028 C 
HETATM   23  C   UNL     1      41.125  -8.314   7.050  1.00  0.00     0.235 C 
ENDBRANCH  16  17
ENDBRANCH  15  16
ENDBRANCH  12  15
ENDBRANCH  10  11
ENDBRANCH   5  10
BRANCH   6  24
HETATM   24  C   UNL     1      42.109 -16.907   2.796  1.00  0.00    -0.024 C 
HETATM   25  C   UNL     1      42.324 -17.944   3.736  1.00  0.00    -0.053 C 
HETATM   26  C   UNL     1      41.906 -17.934   5.184  1.00  0.00     0.049 C 
HETATM   27  C   UNL     1      42.976 -19.127   3.319  1.00  0.00     0.014 C 
HETATM   28  C   UNL     1      43.471 -19.293   2.025  1.00  0.00    -0.061 C 
HETATM   29  C   UNL     1      44.131 -20.578   1.620  1.00  0.00     0.048 C 
HETATM   30  C   UNL     1      43.396 -18.220   1.147  1.00  0.00     0.007 C 
HETATM   31  C   UNL     1      42.742 -17.047   1.529  1.00  0.00     0.011 C 
ENDBRANCH   6  24
BRANCH   9  32
HETATM   32  C   UNL     1      39.868 -14.539   1.150  1.00  0.00     0.293 C 
HETATM   33  O   UNL     1      39.771 -14.793  -0.040  1.00  0.00    -0.259 OA
BRANCH  32  34
HETATM   34  O   UNL     1      38.950 -13.966   1.949  1.00  0.00    -0.323 OA
HETATM   35  C   UNL     1      38.149 -12.928   1.367  1.00  0.00     0.213 C 
ENDBRANCH  32  34
ENDBRANCH   9  32
BRANCH   1  36
HETATM   36  C   UNL     1      42.145 -12.650   0.685  1.00  0.00     0.056 C 
HETATM   37  C   UNL     1      41.562 -11.332   1.172  1.00  0.00     0.011 C 
ENDBRANCH   1  36
TORSDOF 9
ENDMDL
MODEL 3
REMARK VINA RESULT:      -7.9      3.470      6.939
REMARK  9 active torsions:
REMARK  status: ('A' for Active; 'I' for Inactive)
REMARK    1  A    between atoms: C_2  and  C_3 
REMARK    2  A    between atoms: C_7  and  C_8 
REMARK    3  A    between atoms: C_8  and  C_9 
REMARK       I    between atoms: C_9  and  N_10 
REMARK    4  A    between atoms: N_10  and  C_11 
REMARK    5  A    between atoms: C_11  and  C_12 
REMARK    6  A    between atoms: C_12  and  N_13 
REMARK    7  A    between atoms: C_21  and  C_22 
REMARK    8  A    between atoms: C_32  and  C_33 
REMARK    9  A    between atoms: C_33  and  O_34 
ROOT
HETATM    1  C   UNL     1      41.505 -17.037   5.523  1.00  0.00     0.051 C 
HETATM    2  N   UNL     1      40.988 -17.541   4.330  1.00  0.00    -0.228 NA
HETATM    3  C   UNL     1      41.726 -17.374   3.283  1.00  0.00     0.170 C 
HETATM    4  N   UNL     1      43.152 -16.772   3.365  1.00  0.00    -0.318 N 
HETATM    5  C   UNL     1      43.276 -15.890   2.433  1.00  0.00     0.011 C 
HETATM    6  C   UNL     1      43.819 -17.165   4.632  1.00  0.00     0.166 C 
HETATM    7  S   UNL     1      41.160 -17.407   1.651  1.00  0.00    -0.086 SA
HETATM    8  C   UNL     1      42.413 -16.142   1.206  1.00  0.00     0.135 C 
HETATM    9  C   UNL     1      42.832 -16.826   5.700  1.00  0.00     0.069 C 
ENDROOT
BRANCH   5  10
HETATM   10  C   UNL     1      43.921 -14.558   2.727  1.00  0.00     0.156 C 
BRANCH  10  11
HETATM   11  C   UNL     1      42.821 -13.501   2.782  1.00  0.00     0.223 C 
HETATM   12  N   UNL     1      42.015 -13.461   3.883  1.00  0.00    -0.359 N 
HETATM   13  H   UNL     1      42.107 -14.188   4.590  1.00  0.00     0.162 HD
HETATM   14  O   UNL     1      42.665 -12.713   1.850  1.00  0.00    -0.273 OA
BRANCH  12  15
HETATM   15  C   UNL     1      40.758 -12.693   3.911  1.00  0.00     0.150 C 
BRANCH  15  16
HETATM   16  C   UNL     1      39.556 -13.330   3.167  1.00  0.00     0.254 C 
BRANCH  16  17
HETATM   17  N   UNL     1      39.592 -13.081   1.668  1.00  0.00    -0.070 N 
HETATM   18  H   UNL     1      40.590 -12.947   1.423  1.00  0.00     0.279 HD
HETATM   19  C   UNL     1      39.129 -14.263   0.845  1.00  0.00     0.235 C 
HETATM   20  C   UNL     1      39.413 -13.984  -0.627  1.00  0.00     0.028 C 
HETATM   21  C   UNL     1      38.758 -12.690  -1.096  1.00  0.00     0.003 C 
HETATM   22  C   UNL     1      39.137 -11.519  -0.196  1.00  0.00     0.028 C 
HETATM   23  C   UNL     1      38.863 -11.818   1.272  1.00  0.00     0.235 C 
ENDBRANCH  16  17
ENDBRANCH  15  16
ENDBRANCH  12  15
ENDBRANCH  10  11
ENDBRANCH   5  10
BRANCH   6  24
HETATM   24  C   UNL     1      44.254 -18.643   4.471  1.00  0.00    -0.024 C 
HETATM   25  C   UNL     1      44.334 -19.624   5.490  1.00  0.00    -0.053 C 
HETATM   26  C   UNL     1      44.274 -19.372   6.975  1.00  0.00     0.049 C 
HETATM   27  C   UNL     1      44.468 -20.984   5.128  1.00  0.00     0.014 C 
HETATM   28  C   UNL     1      44.583 -21.397   3.800  1.00  0.00    -0.061 C 
HETATM   29  C   UNL     1      44.696 -22.855   3.462  1.00  0.00     0.048 C 
HETATM   30  C   UNL     1      44.658 -20.426   2.810  1.00  0.00     0.007 C 
HETATM   31  C   UNL     1      44.510 -19.077   3.140  1.00  0.00     0.011 C 
ENDBRANCH   6  24
BRANCH   9  32
HETATM   32  C   UNL     1      43.347 -15.964   6.782  1.00  0.00     0.293 C 
HETATM   33  O   UNL     1      43.441 -16.362   7.931  1.00  0.00    -0.259 OA
BRANCH  32  34
HETATM   34  O   UNL     1      43.500 -14.708   6.327  1.00  0.00    -0.323 OA
HETATM   35  C   UNL     1      44.429 -13.875   7.038  1.00  0.00     0.213 C 
ENDBRANCH  32  34
ENDBRANCH   9  32
BRANCH   1  36
HETATM   36  C   UNL     1      40.454 -16.709   6.568  1.00  0.00     0.056 C 
HETATM   37  C   UNL     1      39.855 -15.326   6.359  1.00  0.00     0.011 C 
ENDBRANCH   1  36
TORSDOF 9
ENDMDL
MODEL 4
REMARK VINA RESULT:      -7.9      4.741      7.618
REMARK  9 active torsions:
REMARK  status: ('A' for Active; 'I' for Inactive)
REMARK    1  A    between atoms: C_2  and  C_3 
REMARK    2  A    between atoms: C_7  and  C_8 
REMARK    3  A    between atoms: C_8  and  C_9 
REMARK       I    between atoms: C_9  and  N_10 
REMARK    4  A    between atoms: N_10  and  C_11 
REMARK    5  A    between atoms: C_11  and  C_12 
REMARK    6  A    between atoms: C_12  and  N_13 
REMARK    7  A    between atoms: C_21  and  C_22 
REMARK    8  A    between atoms: C_32  and  C_33 
REMARK    9  A    between atoms: C_33  and  O_34 
ROOT
HETATM    1  C   UNL     1      41.955 -13.593  -0.691  1.00  0.00     0.051 C 
HETATM    2  N   UNL     1      42.224 -13.002   0.543  1.00  0.00    -0.228 NA
HETATM    3  C   UNL     1      41.407 -13.299   1.499  1.00  0.00     0.170 C 
HETATM    4  N   UNL     1      40.278 -14.346   1.325  1.00  0.00    -0.318 N 
HETATM    5  C   UNL     1      39.191 -13.859   1.817  1.00  0.00     0.011 C 
HETATM    6  C   UNL     1      40.703 -15.435   0.409  1.00  0.00     0.166 C 
HETATM    7  S   UNL     1      41.169 -12.363   2.931  1.00  0.00    -0.086 SA
HETATM    8  C   UNL     1      39.402 -12.857   2.943  1.00  0.00     0.135 C 
HETATM    9  C   UNL     1      41.225 -14.729  -0.801  1.00  0.00     0.069 C 
ENDROOT
BRANCH   5  10
HETATM   10  C   UNL     1      37.888 -13.995   1.070  1.00  0.00     0.156 C 
BRANCH  10  11
HETATM   11  C   UNL     1      37.645 -12.700   0.300  1.00  0.00     0.223 C 
HETATM   12  N   UNL     1      38.511 -12.371  -0.702  1.00  0.00    -0.359 N 
HETATM   13  H   UNL     1      39.340 -12.943  -0.849  1.00  0.00     0.162 HD
HETATM   14  O   UNL     1      36.696 -11.971   0.587  1.00  0.00    -0.273 OA
BRANCH  12  15
HETATM   15  C   UNL     1      38.546 -11.024  -1.301  1.00  0.00     0.150 C 
BRANCH  15  16
HETATM   16  C   UNL     1      38.701 -10.970  -2.843  1.00  0.00     0.254 C 
BRANCH  16  17
HETATM   17  N   UNL     1      40.091 -10.538  -3.280  1.00  0.00    -0.070 N 
HETATM   18  H   UNL     1      40.754 -11.005  -2.635  1.00  0.00     0.279 HD
HETATM   19  C   UNL     1      40.468 -11.016  -4.665  1.00  0.00     0.235 C 
HETATM   20  C   UNL     1      41.944 -10.718  -4.908  1.00  0.00     0.028 C 
HETATM   21  C   UNL     1      42.260  -9.238  -4.726  1.00  0.00     0.003 C 
HETATM   22  C   UNL     1      41.777  -8.729  -3.373  1.00  0.00     0.028 C 
HETATM   23  C   UNL     1      40.307  -9.049  -3.138  1.00  0.00     0.235 C 
ENDBRANCH  16  17
ENDBRANCH  15  16
ENDBRANCH  12  15
ENDBRANCH  10  11
ENDBRANCH   5  10
BRANCH   6  24
HETATM   24  C   UNL     1      41.671 -16.342   1.208  1.00  0.00    -0.024 C 
HETATM   25  C   UNL     1      41.474 -16.860   2.512  1.00  0.00    -0.053 C 
HETATM   26  C   UNL     1      40.415 -16.424   3.492  1.00  0.00     0.049 C 
HETATM   27  C   UNL     1      42.316 -17.896   2.976  1.00  0.00     0.014 C 
HETATM   28  C   UNL     1      43.377 -18.393   2.220  1.00  0.00    -0.061 C 
HETATM   29  C   UNL     1      44.228 -19.514   2.743  1.00  0.00     0.048 C 
HETATM   30  C   UNL     1      43.667 -17.784   1.006  1.00  0.00     0.007 C 
HETATM   31  C   UNL     1      42.839 -16.770   0.517  1.00  0.00     0.011 C 
ENDBRANCH   6  24
BRANCH   9  32
HETATM   32  C   UNL     1      40.624 -15.150  -2.081  1.00  0.00     0.293 C 
HETATM   33  O   UNL     1      41.233 -15.840  -2.881  1.00  0.00    -0.259 OA
BRANCH  32  34
HETATM   34  O   UNL     1      39.448 -14.521  -2.260  1.00  0.00    -0.323 OA
HETATM   35  C   UNL     1      38.790 -14.734  -3.517  1.00  0.00     0.213 C 
ENDBRANCH  32  34
ENDBRANCH   9  32
BRANCH   1  36
HETATM   36  C   UNL     1      42.507 -12.830  -1.881  1.00  0.00     0.056 C 
HETATM   37  C   UNL     1      43.097 -11.488  -1.473  1.00  0.00     0.011 C 
ENDBRANCH   1  36
TORSDOF 9
ENDMDL
MODEL 5
REMARK VINA RESULT:      -7.5      2.301      4.713
REMARK  9 active torsions:
REMARK  status: ('A' for Active; 'I' for Inactive)
REMARK    1  A    between atoms: C_2  and  C_3 
REMARK    2  A    between atoms: C_7  and  C_8 
REMARK    3  A    between atoms: C_8  and  C_9 
REMARK       I    between atoms: C_9  and  N_10 
REMARK    4  A    between atoms: N_10  and  C_11 
REMARK    5  A    between atoms: C_11  and  C_12 
REMARK    6  A    between atoms: C_12  and  N_13 
REMARK    7  A    between atoms: C_21  and  C_22 
REMARK    8  A    between atoms: C_32  and  C_33 
REMARK    9  A    between atoms: C_33  and  O_34 
ROOT
HETATM    1  C   UNL     1      41.576 -15.800   4.938  1.00  0.00     0.051 C 
HETATM    2  N   UNL     1      40.642 -16.367   4.072  1.00  0.00    -0.228 NA
HETATM    3  C   UNL     1      40.868 -16.199   2.811  1.00  0.00     0.170 C 
HETATM    4  N   UNL     1      42.163 -15.526   2.287  1.00  0.00    -0.318 N 
HETATM    5  C   UNL     1      41.838 -14.670   1.380  1.00  0.00     0.011 C 
HETATM    6  C   UNL     1      43.316 -15.844   3.166  1.00  0.00     0.166 C 
HETATM    7  S   UNL     1      39.680 -16.312   1.563  1.00  0.00    -0.086 SA
HETATM    8  C   UNL     1      40.560 -15.004   0.625  1.00  0.00     0.135 C 
HETATM    9  C   UNL     1      42.843 -15.519   4.545  1.00  0.00     0.069 C 
ENDROOT
BRANCH   5  10
HETATM   10  C   UNL     1      42.469 -13.300   1.366  1.00  0.00     0.156 C 
BRANCH  10  11
HETATM   11  C   UNL     1      41.600 -12.370   2.209  1.00  0.00     0.223 C 
HETATM   12  N   UNL     1      42.060 -11.990   3.436  1.00  0.00    -0.359 N 
HETATM   13  H   UNL     1      42.919 -12.405   3.794  1.00  0.00     0.162 HD
HETATM   14  O   UNL     1      40.509 -11.983   1.790  1.00  0.00    -0.273 OA
BRANCH  12  15
HETATM   15  C   UNL     1      41.191 -11.349   4.439  1.00  0.00     0.150 C 
BRANCH  15  16
HETATM   16  C   UNL     1      40.565 -12.293   5.498  1.00  0.00     0.254 C 
BRANCH  16  17
HETATM   17  N   UNL     1      40.755 -11.790   6.920  1.00  0.00    -0.070 N 
HETATM   18  H   UNL     1      41.209 -12.563   7.440  1.00  0.00     0.279 HD
HETATM   19  C   UNL     1      41.705 -10.617   7.028  1.00  0.00     0.235 C 
HETATM   20  C   UNL     1      41.990 -10.342   8.500  1.00  0.00     0.028 C 
HETATM   21  C   UNL     1      40.708 -10.093   9.287  1.00  0.00     0.003 C 
HETATM   22  C   UNL     1      39.705 -11.222   9.087  1.00  0.00     0.028 C 
HETATM   23  C   UNL     1      39.444 -11.497   7.612  1.00  0.00     0.235 C 
ENDBRANCH  16  17
ENDBRANCH  15  16
ENDBRANCH  12  15
ENDBRANCH  10  11
ENDBRANCH   5  10
BRANCH   6  24
HETATM   24  C   UNL     1      43.730 -17.304   2.854  1.00  0.00    -0.024 C 
HETATM   25  C   UNL     1      44.076 -18.311   3.788  1.00  0.00    -0.053 C 
HETATM   26  C   UNL     1      44.373 -18.103   5.251  1.00  0.00     0.049 C 
HETATM   27  C   UNL     1      44.147 -19.656   3.358  1.00  0.00     0.014 C 
HETATM   28  C   UNL     1      43.944 -20.027   2.028  1.00  0.00    -0.061 C 
HETATM   29  C   UNL     1      44.001 -21.471   1.623  1.00  0.00     0.048 C 
HETATM   30  C   UNL     1      43.755 -19.027   1.084  1.00  0.00     0.007 C 
HETATM   31  C   UNL     1      43.664 -17.693   1.486  1.00  0.00     0.011 C 
ENDBRANCH   6  24
BRANCH   9  32
HETATM   32  C   UNL     1      43.709 -14.598   5.306  1.00  0.00     0.293 C 
HETATM   33  O   UNL     1      44.172 -13.588   4.802  1.00  0.00    -0.259 OA
BRANCH  32  34
HETATM   34  O   UNL     1      44.014 -15.141   6.498  1.00  0.00    -0.323 OA
HETATM   35  C   UNL     1      44.605 -14.266   7.471  1.00  0.00     0.213 C 
ENDBRANCH  32  34
ENDBRANCH   9  32
BRANCH   1  36
HETATM   36  C   UNL     1      41.036 -15.489   6.321  1.00  0.00     0.056 C 
HETATM   37  C   UNL     1      40.392 -16.705   6.968  1.00  0.00     0.011 C 
ENDBRANCH   1  36
TORSDOF 9
ENDMDL
MODEL 6
REMARK VINA RESULT:      -7.4      4.873      8.199
REMARK  9 active torsions:
REMARK  status: ('A' for Active; 'I' for Inactive)
REMARK    1  A    between atoms: C_2  and  C_3 
REMARK    2  A    between atoms: C_7  and  C_8 
REMARK    3  A    between atoms: C_8  and  C_9 
REMARK       I    between atoms: C_9  and  N_10 
REMARK    4  A    between atoms: N_10  and  C_11 
REMARK    5  A    between atoms: C_11  and  C_12 
REMARK    6  A    between atoms: C_12  and  N_13 
REMARK    7  A    between atoms: C_21  and  C_22 
REMARK    8  A    between atoms: C_32  and  C_33 
REMARK    9  A    between atoms: C_33  and  O_34 
ROOT
HETATM    1  C   UNL     1      41.869 -13.636  -0.821  1.00  0.00     0.051 C 
HETATM    2  N   UNL     1      42.101 -13.034   0.415  1.00  0.00    -0.228 NA
HETATM    3  C   UNL     1      41.280 -13.354   1.360  1.00  0.00     0.170 C 
HETATM    4  N   UNL     1      40.186 -14.436   1.173  1.00  0.00    -0.318 N 
HETATM    5  C   UNL     1      39.078 -13.981   1.648  1.00  0.00     0.011 C 
HETATM    6  C   UNL     1      40.659 -15.513   0.267  1.00  0.00     0.166 C 
HETATM    7  S   UNL     1      40.991 -12.421   2.785  1.00  0.00    -0.086 SA
HETATM    8  C   UNL     1      39.240 -12.970   2.772  1.00  0.00     0.135 C 
HETATM    9  C   UNL     1      41.176 -14.795  -0.937  1.00  0.00     0.069 C 
ENDROOT
BRANCH   5  10
HETATM   10  C   UNL     1      37.791 -14.160   0.881  1.00  0.00     0.156 C 
BRANCH  10  11
HETATM   11  C   UNL     1      37.479 -12.849   0.166  1.00  0.00     0.223 C 
HETATM   12  N   UNL     1      38.158 -12.560  -0.982  1.00  0.00    -0.359 N 
HETATM   13  H   UNL     1      38.913 -13.175  -1.279  1.00  0.00     0.162 HD
HETATM   14  O   UNL     1      36.640 -12.072   0.623  1.00  0.00    -0.273 OA
BRANCH  12  15
HETATM   15  C   UNL     1      38.153 -11.213  -1.581  1.00  0.00     0.150 C 
BRANCH  15  16
HETATM   16  C   UNL     1      38.007 -11.157  -3.124  1.00  0.00     0.254 C 
BRANCH  16  17
HETATM   17  N   UNL     1      36.556 -11.131  -3.577  1.00  0.00    -0.070 N 
HETATM   18  H   UNL     1      36.504 -10.429  -4.337  1.00  0.00     0.279 HD
HETATM   19  C   UNL     1      36.088 -12.431  -4.193  1.00  0.00     0.235 C 
HETATM   20  C   UNL     1      34.707 -12.222  -4.804  1.00  0.00     0.028 C 
HETATM   21  C   UNL     1      33.706 -11.703  -3.778  1.00  0.00     0.003 C 
HETATM   22  C   UNL     1      34.229 -10.456  -3.075  1.00  0.00     0.028 C 
HETATM   23  C   UNL     1      35.616 -10.674  -2.485  1.00  0.00     0.235 C 
ENDBRANCH  16  17
ENDBRANCH  15  16
ENDBRANCH  12  15
ENDBRANCH  10  11
ENDBRANCH   5  10
BRANCH   6  24
HETATM   24  C   UNL     1      41.643 -16.387   1.083  1.00  0.00    -0.024 C 
HETATM   25  C   UNL     1      41.440 -16.911   2.384  1.00  0.00    -0.053 C 
HETATM   26  C   UNL     1      40.351 -16.510   3.346  1.00  0.00     0.049 C 
HETATM   27  C   UNL     1      42.308 -17.918   2.864  1.00  0.00     0.014 C 
HETATM   28  C   UNL     1      43.398 -18.381   2.125  1.00  0.00    -0.061 C 
HETATM   29  C   UNL     1      44.276 -19.473   2.664  1.00  0.00     0.048 C 
HETATM   30  C   UNL     1      43.688 -17.763   0.916  1.00  0.00     0.007 C 
HETATM   31  C   UNL     1      42.836 -16.777   0.412  1.00  0.00     0.011 C 
ENDBRANCH   6  24
BRANCH   9  32
HETATM   32  C   UNL     1      40.607 -15.238  -2.225  1.00  0.00     0.293 C 
HETATM   33  O   UNL     1      41.272 -15.851  -3.044  1.00  0.00    -0.259 OA
BRANCH  32  34
HETATM   34  O   UNL     1      39.379 -14.714  -2.384  1.00  0.00    -0.323 OA
HETATM   35  C   UNL     1      38.673 -15.079  -3.579  1.00  0.00     0.213 C 
ENDBRANCH  32  34
ENDBRANCH   9  32
BRANCH   1  36
HETATM   36  C   UNL     1      42.414 -12.860  -2.005  1.00  0.00     0.056 C 
HETATM   37  C   UNL     1      42.926 -11.486  -1.598  1.00  0.00     0.011 C 
ENDBRANCH   1  36
TORSDOF 9
ENDMDL
MODEL 7
REMARK VINA RESULT:      -7.3      1.565      2.223
REMARK  9 active torsions:
REMARK  status: ('A' for Active; 'I' for Inactive)
REMARK    1  A    between atoms: C_2  and  C_3 
REMARK    2  A    between atoms: C_7  and  C_8 
REMARK    3  A    between atoms: C_8  and  C_9 
REMARK       I    between atoms: C_9  and  N_10 
REMARK    4  A    between atoms: N_10  and  C_11 
REMARK    5  A    between atoms: C_11  and  C_12 
REMARK    6  A    between atoms: C_12  and  N_13 
REMARK    7  A    between atoms: C_21  and  C_22 
REMARK    8  A    between atoms: C_32  and  C_33 
REMARK    9  A    between atoms: C_33  and  O_34 
ROOT
HETATM    1  C   UNL     1      41.922 -13.679   1.628  1.00  0.00     0.051 C 
HETATM    2  N   UNL     1      42.949 -13.637   2.569  1.00  0.00    -0.228 NA
HETATM    3  C   UNL     1      42.652 -14.076   3.748  1.00  0.00     0.170 C 
HETATM    4  N   UNL     1      41.283 -14.731   4.064  1.00  0.00    -0.318 N 
HETATM    5  C   UNL     1      40.839 -14.234   5.167  1.00  0.00     0.011 C 
HETATM    6  C   UNL     1      40.775 -15.485   2.890  1.00  0.00     0.166 C 
HETATM    7  S   UNL     1      43.501 -13.684   5.200  1.00  0.00    -0.086 SA
HETATM    8  C   UNL     1      41.921 -13.767   6.129  1.00  0.00     0.135 C 
HETATM    9  C   UNL     1      40.868 -14.522   1.752  1.00  0.00     0.069 C 
ENDROOT
BRANCH   5  10
HETATM   10  C   UNL     1      39.394 -13.820   5.288  1.00  0.00     0.156 C 
BRANCH  10  11
HETATM   11  C   UNL     1      39.323 -12.618   6.227  1.00  0.00     0.223 C 
HETATM   12  N   UNL     1      39.442 -12.837   7.568  1.00  0.00    -0.359 N 
HETATM   13  H   UNL     1      39.482 -13.795   7.913  1.00  0.00     0.162 HD
HETATM   14  O   UNL     1      39.153 -11.484   5.779  1.00  0.00    -0.273 OA
BRANCH  12  15
HETATM   15  C   UNL     1      39.096 -11.810   8.567  1.00  0.00     0.150 C 
BRANCH  15  16
HETATM   16  C   UNL     1      40.237 -10.838   8.964  1.00  0.00     0.254 C 
BRANCH  16  17
HETATM   17  N   UNL     1      40.401  -9.690   7.981  1.00  0.00    -0.070 N 
HETATM   18  H   UNL     1      39.639  -9.795   7.287  1.00  0.00     0.279 HD
HETATM   19  C   UNL     1      40.199  -8.325   8.602  1.00  0.00     0.235 C 
HETATM   20  C   UNL     1      40.167  -7.276   7.496  1.00  0.00     0.028 C 
HETATM   21  C   UNL     1      41.429  -7.316   6.642  1.00  0.00     0.003 C 
HETATM   22  C   UNL     1      41.695  -8.719   6.109  1.00  0.00     0.028 C 
HETATM   23  C   UNL     1      41.706  -9.757   7.223  1.00  0.00     0.235 C 
ENDBRANCH  16  17
ENDBRANCH  15  16
ENDBRANCH  12  15
ENDBRANCH  10  11
ENDBRANCH   5  10
BRANCH   6  24
HETATM   24  C   UNL     1      41.592 -16.799   2.813  1.00  0.00    -0.024 C 
HETATM   25  C   UNL     1      42.167 -17.378   1.655  1.00  0.00    -0.053 C 
HETATM   26  C   UNL     1      41.882 -16.987   0.228  1.00  0.00     0.049 C 
HETATM   27  C   UNL     1      43.116 -18.416   1.803  1.00  0.00     0.014 C 
HETATM   28  C   UNL     1      43.470 -18.935   3.048  1.00  0.00    -0.061 C 
HETATM   29  C   UNL     1      44.504 -20.017   3.158  1.00  0.00     0.048 C 
HETATM   30  C   UNL     1      42.796 -18.474   4.172  1.00  0.00     0.007 C 
HETATM   31  C   UNL     1      41.867 -17.438   4.054  1.00  0.00     0.011 C 
ENDBRANCH   6  24
BRANCH   9  32
HETATM   32  C   UNL     1      39.617 -14.323   0.994  1.00  0.00     0.293 C 
HETATM   33  O   UNL     1      39.565 -14.486  -0.214  1.00  0.00    -0.259 OA
BRANCH  32  34
HETATM   34  O   UNL     1      38.678 -13.792   1.797  1.00  0.00    -0.323 OA
HETATM   35  C   UNL     1      38.034 -12.597   1.330  1.00  0.00     0.213 C 
ENDBRANCH  32  34
ENDBRANCH   9  32
BRANCH   1  36
HETATM   36  C   UNL     1      42.069 -12.677   0.499  1.00  0.00     0.056 C 
HETATM   37  C   UNL     1      41.644 -11.278   0.921  1.00  0.00     0.011 C 
ENDBRANCH   1  36
TORSDOF 9
ENDMDL
MODEL 8
REMARK VINA RESULT:      -7.2      2.725      4.806
REMARK  9 active torsions:
REMARK  status: ('A' for Active; 'I' for Inactive)
REMARK    1  A    between atoms: C_2  and  C_3 
REMARK    2  A    between atoms: C_7  and  C_8 
REMARK    3  A    between atoms: C_8  and  C_9 
REMARK       I    between atoms: C_9  and  N_10 
REMARK    4  A    between atoms: N_10  and  C_11 
REMARK    5  A    between atoms: C_11  and  C_12 
REMARK    6  A    between atoms: C_12  and  N_13 
REMARK    7  A    between atoms: C_21  and  C_22 
REMARK    8  A    between atoms: C_32  and  C_33 
REMARK    9  A    between atoms: C_33  and  O_34 
ROOT
HETATM    1  C   UNL     1      41.869 -13.418   1.774  1.00  0.00     0.051 C 
HETATM    2  N   UNL     1      43.019 -13.525   2.554  1.00  0.00    -0.228 NA
HETATM    3  C   UNL     1      42.860 -14.057   3.721  1.00  0.00     0.170 C 
HETATM    4  N   UNL     1      41.506 -14.658   4.177  1.00  0.00    -0.318 N 
HETATM    5  C   UNL     1      41.259 -14.244   5.372  1.00  0.00     0.011 C 
HETATM    6  C   UNL     1      40.785 -15.266   3.030  1.00  0.00     0.166 C 
HETATM    7  S   UNL     1      43.931 -13.854   5.061  1.00  0.00    -0.086 SA
HETATM    8  C   UNL     1      42.496 -13.934   6.201  1.00  0.00     0.135 C 
HETATM    9  C   UNL     1      40.785 -14.206   1.978  1.00  0.00     0.069 C 
ENDROOT
BRANCH   5  10
HETATM   10  C   UNL     1      39.878 -13.759   5.739  1.00  0.00     0.156 C 
BRANCH  10  11
HETATM   11  C   UNL     1      39.855 -12.239   5.593  1.00  0.00     0.223 C 
HETATM   12  N   UNL     1      39.836 -11.710   4.336  1.00  0.00    -0.359 N 
HETATM   13  H   UNL     1      39.929 -12.332   3.535  1.00  0.00     0.162 HD
HETATM   14  O   UNL     1      39.863 -11.516   6.589  1.00  0.00    -0.273 OA
BRANCH  12  15
HETATM   15  C   UNL     1      40.109 -10.285   4.077  1.00  0.00     0.150 C 
BRANCH  15  16
HETATM   16  C   UNL     1      39.018  -9.517   3.287  1.00  0.00     0.254 C 
BRANCH  16  17
HETATM   17  N   UNL     1      39.482  -9.095   1.903  1.00  0.00    -0.070 N 
HETATM   18  H   UNL     1      39.043  -8.173   1.721  1.00  0.00     0.279 HD
HETATM   19  C   UNL     1      40.973  -8.859   1.807  1.00  0.00     0.235 C 
HETATM   20  C   UNL     1      41.292  -8.234   0.453  1.00  0.00     0.028 C 
HETATM   21  C   UNL     1      40.790  -9.096  -0.700  1.00  0.00     0.003 C 
HETATM   22  C   UNL     1      39.311  -9.428  -0.543  1.00  0.00     0.028 C 
HETATM   23  C   UNL     1      39.006 -10.035   0.819  1.00  0.00     0.235 C 
ENDBRANCH  16  17
ENDBRANCH  15  16
ENDBRANCH  12  15
ENDBRANCH  10  11
ENDBRANCH   5  10
BRANCH   6  24
HETATM   24  C   UNL     1      41.487 -16.612   2.721  1.00  0.00    -0.024 C 
HETATM   25  C   UNL     1      41.925 -17.074   1.456  1.00  0.00    -0.053 C 
HETATM   26  C   UNL     1      41.562 -16.482   0.117  1.00  0.00     0.049 C 
HETATM   27  C   UNL     1      42.797 -18.185   1.391  1.00  0.00     0.014 C 
HETATM   28  C   UNL     1      43.203 -18.884   2.529  1.00  0.00    -0.061 C 
HETATM   29  C   UNL     1      44.153 -20.040   2.415  1.00  0.00     0.048 C 
HETATM   30  C   UNL     1      42.656 -18.527   3.754  1.00  0.00     0.007 C 
HETATM   31  C   UNL     1      41.805 -17.423   3.846  1.00  0.00     0.011 C 
ENDBRANCH   6  24
BRANCH   9  32
HETATM   32  C   UNL     1      39.457 -13.863   1.431  1.00  0.00     0.293 C 
HETATM   33  O   UNL     1      38.623 -13.271   2.095  1.00  0.00    -0.259 OA
BRANCH  32  34
HETATM   34  O   UNL     1      39.296 -14.446   0.231  1.00  0.00    -0.323 OA
HETATM   35  C   UNL     1      38.553 -13.706  -0.749  1.00  0.00     0.213 C 
ENDBRANCH  32  34
ENDBRANCH   9  32
BRANCH   1  36
HETATM   36  C   UNL     1      41.927 -12.322   0.726  1.00  0.00     0.056 C 
HETATM   37  C   UNL     1      42.239 -12.873  -0.657  1.00  0.00     0.011 C 
ENDBRANCH   1  36
TORSDOF 9
ENDMDL
MODEL 9
REMARK VINA RESULT:      -7.0      3.477      6.330
REMARK  9 active torsions:
REMARK  status: ('A' for Active; 'I' for Inactive)
REMARK    1  A    between atoms: C_2  and  C_3 
REMARK    2  A    between atoms: C_7  and  C_8 
REMARK    3  A    between atoms: C_8  and  C_9 
REMARK       I    between atoms: C_9  and  N_10 
REMARK    4  A    between atoms: N_10  and  C_11 
REMARK    5  A    between atoms: C_11  and  C_12 
REMARK    6  A    between atoms: C_12  and  N_13 
REMARK    7  A    between atoms: C_21  and  C_22 
REMARK    8  A    between atoms: C_32  and  C_33 
REMARK    9  A    between atoms: C_33  and  O_34 
ROOT
HETATM    1  C   UNL     1      41.264 -15.409   4.624  1.00  0.00     0.051 C 
HETATM    2  N   UNL     1      40.421 -15.936   3.647  1.00  0.00    -0.228 NA
HETATM    3  C   UNL     1      40.805 -15.770   2.424  1.00  0.00     0.170 C 
HETATM    4  N   UNL     1      42.177 -15.144   2.067  1.00  0.00    -0.318 N 
HETATM    5  C   UNL     1      41.996 -14.271   1.135  1.00  0.00     0.011 C 
HETATM    6  C   UNL     1      43.203 -15.510   3.075  1.00  0.00     0.166 C 
HETATM    7  S   UNL     1      39.773 -15.833   1.040  1.00  0.00    -0.086 SA
HETATM    8  C   UNL     1      40.808 -14.553   0.228  1.00  0.00     0.135 C 
HETATM    9  C   UNL     1      42.578 -15.174   4.390  1.00  0.00     0.069 C 
ENDROOT
BRANCH   5  10
HETATM   10  C   UNL     1      42.674 -12.926   1.211  1.00  0.00     0.156 C 
BRANCH  10  11
HETATM   11  C   UNL     1      41.681 -11.928   1.801  1.00  0.00     0.223 C 
HETATM   12  N   UNL     1      41.491 -11.925   3.152  1.00  0.00    -0.359 N 
HETATM   13  H   UNL     1      41.942 -12.642   3.717  1.00  0.00     0.162 HD
HETATM   14  O   UNL     1      41.063 -11.154   1.069  1.00  0.00    -0.273 OA
BRANCH  12  15
HETATM   15  C   UNL     1      40.361 -11.224   3.787  1.00  0.00     0.150 C 
BRANCH  15  16
HETATM   16  C   UNL     1      39.034 -12.021   3.883  1.00  0.00     0.254 C 
BRANCH  16  17
HETATM   17  N   UNL     1      37.992 -11.552   2.881  1.00  0.00    -0.070 N 
HETATM   18  H   UNL     1      37.070 -11.720   3.325  1.00  0.00     0.279 HD
HETATM   19  C   UNL     1      38.042 -10.066   2.603  1.00  0.00     0.235 C 
HETATM   20  C   UNL     1      36.829  -9.675   1.767  1.00  0.00     0.028 C 
HETATM   21  C   UNL     1      36.748 -10.480   0.475  1.00  0.00     0.003 C 
HETATM   22  C   UNL     1      36.812 -11.978   0.748  1.00  0.00     0.028 C 
HETATM   23  C   UNL     1      38.019 -12.350   1.598  1.00  0.00     0.235 C 
ENDBRANCH  16  17
ENDBRANCH  15  16
ENDBRANCH  12  15
ENDBRANCH  10  11
ENDBRANCH   5  10
BRANCH   6  24
HETATM   24  C   UNL     1      43.597 -16.982   2.801  1.00  0.00    -0.024 C 
HETATM   25  C   UNL     1      43.868 -17.986   3.764  1.00  0.00    -0.053 C 
HETATM   26  C   UNL     1      44.091 -17.768   5.238  1.00  0.00     0.049 C 
HETATM   27  C   UNL     1      43.930 -19.337   3.352  1.00  0.00     0.014 C 
HETATM   28  C   UNL     1      43.790 -19.719   2.017  1.00  0.00    -0.061 C 
HETATM   29  C   UNL     1      43.835 -21.169   1.630  1.00  0.00     0.048 C 
HETATM   30  C   UNL     1      43.677 -18.726   1.053  1.00  0.00     0.007 C 
HETATM   31  C   UNL     1      43.596 -17.385   1.436  1.00  0.00     0.011 C 
ENDBRANCH   6  24
BRANCH   9  32
HETATM   32  C   UNL     1      43.379 -14.290   5.259  1.00  0.00     0.293 C 
HETATM   33  O   UNL     1      43.686 -13.160   4.917  1.00  0.00    -0.259 OA
BRANCH  32  34
HETATM   34  O   UNL     1      43.824 -14.980   6.324  1.00  0.00    -0.323 OA
HETATM   35  C   UNL     1      44.813 -14.336   7.140  1.00  0.00     0.213 C 
ENDBRANCH  32  34
ENDBRANCH   9  32
BRANCH   1  36
HETATM   36  C   UNL     1      40.572 -15.085   5.935  1.00  0.00     0.056 C 
HETATM   37  C   UNL     1      40.377 -16.323   6.798  1.00  0.00     0.011 C 
ENDBRANCH   1  36
TORSDOF 9
ENDMDL
MODEL 10
REMARK VINA RESULT:      -7.0      4.590      7.348
REMARK  9 active torsions:
REMARK  status: ('A' for Active; 'I' for Inactive)
REMARK    1  A    between atoms: C_2  and  C_3 
REMARK    2  A    between atoms: C_7  and  C_8 
REMARK    3  A    between atoms: C_8  and  C_9 
REMARK       I    between atoms: C_9  and  N_10 
REMARK    4  A    between atoms: N_10  and  C_11 
REMARK    5  A    between atoms: C_11  and  C_12 
REMARK    6  A    between atoms: C_12  and  N_13 
REMARK    7  A    between atoms: C_21  and  C_22 
REMARK    8  A    between atoms: C_32  and  C_33 
REMARK    9  A    between atoms: C_33  and  O_34 
ROOT
HETATM    1  C   UNL     1      42.016 -13.414  -0.535  1.00  0.00     0.051 C 
HETATM    2  N   UNL     1      42.319 -12.884   0.718  1.00  0.00    -0.228 NA
HETATM    3  C   UNL     1      41.508 -13.199   1.674  1.00  0.00     0.170 C 
HETATM    4  N   UNL     1      40.346 -14.205   1.473  1.00  0.00    -0.318 N 
HETATM    5  C   UNL     1      39.281 -13.709   2.002  1.00  0.00     0.011 C 
HETATM    6  C   UNL     1      40.727 -15.265   0.505  1.00  0.00     0.166 C 
HETATM    7  S   UNL     1      41.316 -12.318   3.147  1.00  0.00    -0.086 SA
HETATM    8  C   UNL     1      39.536 -12.763   3.165  1.00  0.00     0.135 C 
HETATM    9  C   UNL     1      41.252 -14.524  -0.681  1.00  0.00     0.069 C 
ENDROOT
BRANCH   5  10
HETATM   10  C   UNL     1      37.964 -13.777   1.269  1.00  0.00     0.156 C 
BRANCH  10  11
HETATM   11  C   UNL     1      37.619 -12.372   0.783  1.00  0.00     0.223 C 
HETATM   12  N   UNL     1      36.496 -11.774   1.277  1.00  0.00    -0.359 N 
HETATM   13  H   UNL     1      35.874 -12.309   1.879  1.00  0.00     0.162 HD
HETATM   14  O   UNL     1      38.335 -11.802  -0.040  1.00  0.00    -0.273 OA
BRANCH  12  15
HETATM   15  C   UNL     1      35.916 -10.564   0.667  1.00  0.00     0.150 C 
BRANCH  15  16
HETATM   16  C   UNL     1      34.750 -10.798  -0.328  1.00  0.00     0.254 C 
BRANCH  16  17
HETATM   17  N   UNL     1      33.432 -10.223   0.165  1.00  0.00    -0.070 N 
HETATM   18  H   UNL     1      33.538  -9.192   0.135  1.00  0.00     0.279 HD
HETATM   19  C   UNL     1      32.257 -10.535  -0.737  1.00  0.00     0.235 C 
HETATM   20  C   UNL     1      31.046  -9.735  -0.271  1.00  0.00     0.028 C 
HETATM   21  C   UNL     1      30.713 -10.012   1.191  1.00  0.00     0.003 C 
HETATM   22  C   UNL     1      31.929  -9.806   2.086  1.00  0.00     0.028 C 
HETATM   23  C   UNL     1      33.135 -10.598   1.598  1.00  0.00     0.235 C 
ENDBRANCH  16  17
ENDBRANCH  15  16
ENDBRANCH  12  15
ENDBRANCH  10  11
ENDBRANCH   5  10
BRANCH   6  24
HETATM   24  C   UNL     1      41.680 -16.232   1.251  1.00  0.00    -0.024 C 
HETATM   25  C   UNL     1      41.503 -16.771   2.548  1.00  0.00    -0.053 C 
HETATM   26  C   UNL     1      40.498 -16.313   3.574  1.00  0.00     0.049 C 
HETATM   27  C   UNL     1      42.314 -17.854   2.961  1.00  0.00     0.014 C 
HETATM   28  C   UNL     1      43.326 -18.380   2.158  1.00  0.00    -0.061 C 
HETATM   29  C   UNL     1      44.143 -19.548   2.627  1.00  0.00     0.048 C 
HETATM   30  C   UNL     1      43.601 -17.755   0.948  1.00  0.00     0.007 C 
HETATM   31  C   UNL     1      42.804 -16.695   0.511  1.00  0.00     0.011 C 
ENDBRANCH   6  24
BRANCH   9  32
HETATM   32  C   UNL     1      40.621 -14.872  -1.969  1.00  0.00     0.293 C 
HETATM   33  O   UNL     1      41.034 -15.789  -2.660  1.00  0.00    -0.259 OA
BRANCH  32  34
HETATM   34  O   UNL     1      39.703 -13.944  -2.292  1.00  0.00    -0.323 OA
HETATM   35  C   UNL     1      38.376 -14.419  -2.564  1.00  0.00     0.213 C 
ENDBRANCH  32  34
ENDBRANCH   9  32
BRANCH   1  36
HETATM   36  C   UNL     1      42.572 -12.616  -1.700  1.00  0.00     0.056 C 
HETATM   37  C   UNL     1      42.851 -11.170  -1.318  1.00  0.00     0.011 C 
ENDBRANCH   1  36
TORSDOF 9
ENDMDL
