MODEL 1
REMARK VINA RESULT:      -8.4      0.000      0.000
REMARK  4 active torsions:
REMARK  status: ('A' for Active; 'I' for Inactive)
REMARK    1  A    between atoms: C_5  and  C_6 
REMARK    2  A    between atoms: C_6  and  N_7 
REMARK    3  A    between atoms: C_6  and  C_18 
REMARK    4  A    between atoms: N_7  and  C_8 
ROOT
HETATM    1  C   UNL     1      43.872 -18.462   3.686  1.00  0.00     0.288 C 
ENDROOT
BRANCH   1   2
HETATM    2  C   UNL     1      44.154 -19.919   3.360  1.00  0.00    -0.003 A 
HETATM    3  C   UNL     1      44.660 -20.813   4.303  1.00  0.00     0.126 A 
HETATM    4  N   UNL     1      44.845 -22.132   4.073  1.00  0.00    -0.272 NA
HETATM    5  C   UNL     1      44.555 -22.588   2.836  1.00  0.00     0.116 A 
HETATM    6  C   UNL     1      44.058 -21.788   1.823  1.00  0.00     0.020 A 
HETATM    7  C   UNL     1      43.849 -20.438   2.093  1.00  0.00     0.012 A 
ENDBRANCH   1   2
BRANCH   1   8
HETATM    8  N   UNL     1      42.876 -17.879   2.744  1.00  0.00     0.101 N 
HETATM    9  H   UNL     1      41.993 -17.842   3.246  1.00  0.00     0.317 HD
BRANCH   8  10
HETATM   10  C   UNL     1      43.214 -16.603   2.095  1.00  0.00     0.225 C 
HETATM   11  C   UNL     1      43.090 -15.343   2.986  1.00  0.00     0.069 C 
HETATM   12  C   UNL     1      41.650 -15.056   3.358  1.00  0.00     0.190 C 
HETATM   13  N   UNL     1      40.856 -14.866   2.096  1.00  0.00    -0.067 N 
HETATM   14  C   UNL     1      41.365 -13.757   4.083  1.00  0.00     0.035 C 
HETATM   15  H   UNL     1      41.309 -14.126   1.542  1.00  0.00     0.280 HD
HETATM   16  C   UNL     1      40.829 -16.098   1.247  1.00  0.00     0.237 C 
HETATM   17  C   UNL     1      39.535 -14.298   2.546  1.00  0.00     0.235 C 
HETATM   18  C   UNL     1      42.271 -16.445   0.873  1.00  0.00     0.063 C 
HETATM   19  C   UNL     1      39.865 -13.571   3.853  1.00  0.00     0.030 C 
ENDBRANCH   8  10
ENDBRANCH   1   8
BRANCH   1  20
HETATM   20  C   UNL     1      43.694 -18.119   5.170  1.00  0.00    -0.021 A 
HETATM   21  C   UNL     1      44.834 -18.006   5.999  1.00  0.00     0.012 A 
HETATM   22  C   UNL     1      44.720 -17.657   7.347  1.00  0.00     0.043 A 
HETATM   23  C   UNL     1      43.469 -17.391   7.880  1.00  0.00     0.116 A 
HETATM   24  F   UNL     1      43.356 -17.055   9.171  1.00  0.00    -0.206 F 
HETATM   25  C   UNL     1      42.333 -17.452   7.086  1.00  0.00     0.043 A 
HETATM   26  C   UNL     1      42.447 -17.800   5.736  1.00  0.00     0.012 A 
ENDBRANCH   1  20
TORSDOF 4
ENDMDL
MODEL 2
REMARK VINA RESULT:      -8.4      2.723      4.505
REMARK  4 active torsions:
REMARK  status: ('A' for Active; 'I' for Inactive)
REMARK    1  A    between atoms: C_5  and  C_6 
REMARK    2  A    between atoms: C_6  and  N_7 
REMARK    3  A    between atoms: C_6  and  C_18 
REMARK    4  A    between atoms: N_7  and  C_8 
ROOT
HETATM    1  C   UNL     1      42.865 -17.914   3.832  1.00  0.00     0.288 C 
ENDROOT
BRANCH   1   2
HETATM    2  C   UNL     1      43.494 -19.230   3.404  1.00  0.00    -0.003 A 
HETATM    3  C   UNL     1      44.373 -19.940   4.220  1.00  0.00     0.126 A 
HETATM    4  N   UNL     1      44.886 -21.151   3.907  1.00  0.00    -0.272 NA
HETATM    5  C   UNL     1      44.549 -21.672   2.708  1.00  0.00     0.116 A 
HETATM    6  C   UNL     1      43.695 -21.048   1.817  1.00  0.00     0.020 A 
HETATM    7  C   UNL     1      43.156 -19.815   2.174  1.00  0.00     0.012 A 
ENDBRANCH   1   2
BRANCH   1   8
HETATM    8  N   UNL     1      43.762 -17.159   4.751  1.00  0.00     0.101 N 
HETATM    9  H   UNL     1      44.026 -16.309   4.260  1.00  0.00     0.317 HD
BRANCH   8  10
HETATM   10  C   UNL     1      43.281 -16.900   6.117  1.00  0.00     0.225 C 
HETATM   11  C   UNL     1      41.812 -16.424   6.232  1.00  0.00     0.069 C 
HETATM   12  C   UNL     1      41.620 -15.044   5.638  1.00  0.00     0.190 C 
HETATM   13  N   UNL     1      42.525 -14.081   6.355  1.00  0.00    -0.067 N 
HETATM   14  C   UNL     1      40.272 -14.383   5.837  1.00  0.00     0.035 C 
HETATM   15  H   UNL     1      42.322 -14.144   7.363  1.00  0.00     0.280 HD
HETATM   16  C   UNL     1      43.972 -14.415   6.175  1.00  0.00     0.237 C 
HETATM   17  C   UNL     1      42.062 -12.714   5.924  1.00  0.00     0.235 C 
HETATM   18  C   UNL     1      44.207 -15.819   6.733  1.00  0.00     0.063 C 
HETATM   19  C   UNL     1      40.583 -12.909   5.579  1.00  0.00     0.030 C 
ENDBRANCH   8  10
ENDBRANCH   1   8
BRANCH   1  20
HETATM   20  C   UNL     1      42.170 -17.103   2.732  1.00  0.00    -0.021 A 
HETATM   21  C   UNL     1      40.759 -17.015   2.718  1.00  0.00     0.012 A 
HETATM   22  C   UNL     1      40.088 -16.255   1.758  1.00  0.00     0.043 A 
HETATM   23  C   UNL     1      40.816 -15.551   0.813  1.00  0.00     0.116 A 
HETATM   24  F   UNL     1      40.176 -14.820  -0.108  1.00  0.00    -0.206 F 
HETATM   25  C   UNL     1      42.203 -15.582   0.821  1.00  0.00     0.043 A 
HETATM   26  C   UNL     1      42.876 -16.342   1.784  1.00  0.00     0.012 A 
ENDBRANCH   1  20
TORSDOF 4
ENDMDL
MODEL 3
REMARK VINA RESULT:      -8.0      2.709      4.958
REMARK  4 active torsions:
REMARK  status: ('A' for Active; 'I' for Inactive)
REMARK    1  A    between atoms: C_5  and  C_6 
REMARK    2  A    between atoms: C_6  and  N_7 
REMARK    3  A    between atoms: C_6  and  C_18 
REMARK    4  A    between atoms: N_7  and  C_8 
ROOT
HETATM    1  C   UNL     1      42.500 -17.585   3.960  1.00  0.00     0.288 C 
ENDROOT
BRANCH   1   2
HETATM    2  C   UNL     1      42.871 -17.114   5.357  1.00  0.00    -0.003 A 
HETATM    3  C   UNL     1      42.403 -17.745   6.509  1.00  0.00     0.126 A 
HETATM    4  N   UNL     1      42.777 -17.406   7.763  1.00  0.00    -0.272 NA
HETATM    5  C   UNL     1      43.625 -16.364   7.893  1.00  0.00     0.116 A 
HETATM    6  C   UNL     1      44.142 -15.661   6.819  1.00  0.00     0.020 A 
HETATM    7  C   UNL     1      43.764 -16.048   5.536  1.00  0.00     0.012 A 
ENDBRANCH   1   2
BRANCH   1   8
HETATM    8  N   UNL     1      42.445 -16.446   3.001  1.00  0.00     0.101 N 
HETATM    9  H   UNL     1      42.895 -16.767   2.149  1.00  0.00     0.317 HD
BRANCH   8  10
HETATM   10  C   UNL     1      41.136 -15.824   2.754  1.00  0.00     0.225 C 
HETATM   11  C   UNL     1      40.630 -15.883   1.292  1.00  0.00     0.069 C 
HETATM   12  C   UNL     1      41.483 -15.039   0.367  1.00  0.00     0.190 C 
HETATM   13  N   UNL     1      41.461 -13.618   0.856  1.00  0.00    -0.067 N 
HETATM   14  C   UNL     1      41.001 -14.867  -1.058  1.00  0.00     0.035 C 
HETATM   15  H   UNL     1      40.477 -13.318   0.921  1.00  0.00     0.280 HD
HETATM   16  C   UNL     1      42.057 -13.473   2.220  1.00  0.00     0.237 C 
HETATM   17  C   UNL     1      42.066 -12.810  -0.262  1.00  0.00     0.235 C 
HETATM   18  C   UNL     1      41.244 -14.337   3.185  1.00  0.00     0.063 C 
HETATM   19  C   UNL     1      41.768 -13.629  -1.521  1.00  0.00     0.030 C 
ENDBRANCH   8  10
ENDBRANCH   1   8
BRANCH   1  20
HETATM   20  C   UNL     1      43.191 -18.863   3.468  1.00  0.00    -0.021 A 
HETATM   21  C   UNL     1      42.840 -19.402   2.209  1.00  0.00     0.012 A 
HETATM   22  C   UNL     1      43.473 -20.541   1.705  1.00  0.00     0.043 A 
HETATM   23  C   UNL     1      44.483 -21.143   2.439  1.00  0.00     0.116 A 
HETATM   24  F   UNL     1      45.092 -22.233   1.958  1.00  0.00    -0.206 F 
HETATM   25  C   UNL     1      44.881 -20.616   3.659  1.00  0.00     0.043 A 
HETATM   26  C   UNL     1      44.249 -19.475   4.163  1.00  0.00     0.012 A 
ENDBRANCH   1  20
TORSDOF 4
ENDMDL
MODEL 4
REMARK VINA RESULT:      -8.0      2.657      4.760
REMARK  4 active torsions:
REMARK  status: ('A' for Active; 'I' for Inactive)
REMARK    1  A    between atoms: C_5  and  C_6 
REMARK    2  A    between atoms: C_6  and  N_7 
REMARK    3  A    between atoms: C_6  and  C_18 
REMARK    4  A    between atoms: N_7  and  C_8 
ROOT
HETATM    1  C   UNL     1      42.429 -18.038   2.990  1.00  0.00     0.288 C 
ENDROOT
BRANCH   1   2
HETATM    2  C   UNL     1      42.581 -17.286   4.302  1.00  0.00    -0.003 A 
HETATM    3  C   UNL     1      43.409 -16.172   4.435  1.00  0.00     0.126 A 
HETATM    4  N   UNL     1      43.505 -15.430   5.561  1.00  0.00    -0.272 NA
HETATM    5  C   UNL     1      42.779 -15.830   6.626  1.00  0.00     0.116 A 
HETATM    6  C   UNL     1      41.934 -16.925   6.607  1.00  0.00     0.020 A 
HETATM    7  C   UNL     1      41.830 -17.657   5.427  1.00  0.00     0.012 A 
ENDBRANCH   1   2
BRANCH   1   8
HETATM    8  N   UNL     1      42.512 -17.115   1.823  1.00  0.00     0.101 N 
HETATM    9  H   UNL     1      43.331 -17.396   1.292  1.00  0.00     0.317 HD
BRANCH   8  10
HETATM   10  C   UNL     1      41.313 -16.965   0.984  1.00  0.00     0.225 C 
HETATM   11  C   UNL     1      41.455 -16.004  -0.222  1.00  0.00     0.069 C 
HETATM   12  C   UNL     1      41.625 -14.566   0.223  1.00  0.00     0.190 C 
HETATM   13  N   UNL     1      40.434 -14.173   1.050  1.00  0.00    -0.067 N 
HETATM   14  C   UNL     1      41.602 -13.499  -0.852  1.00  0.00     0.035 C 
HETATM   15  H   UNL     1      39.586 -14.349   0.492  1.00  0.00     0.280 HD
HETATM   16  C   UNL     1      40.314 -14.984   2.301  1.00  0.00     0.237 C 
HETATM   17  C   UNL     1      40.532 -12.676   1.193  1.00  0.00     0.235 C 
HETATM   18  C   UNL     1      40.171 -16.453   1.901  1.00  0.00     0.063 C 
HETATM   19  C   UNL     1      41.302 -12.230  -0.054  1.00  0.00     0.030 C 
ENDBRANCH   8  10
ENDBRANCH   1   8
BRANCH   1  20
HETATM   20  C   UNL     1      43.196 -19.361   2.873  1.00  0.00    -0.021 A 
HETATM   21  C   UNL     1      44.098 -19.735   3.895  1.00  0.00     0.012 A 
HETATM   22  C   UNL     1      44.787 -20.949   3.849  1.00  0.00     0.043 A 
HETATM   23  C   UNL     1      44.566 -21.819   2.793  1.00  0.00     0.116 A 
HETATM   24  F   UNL     1      45.223 -22.984   2.745  1.00  0.00    -0.206 F 
HETATM   25  C   UNL     1      43.658 -21.503   1.793  1.00  0.00     0.043 A 
HETATM   26  C   UNL     1      42.966 -20.288   1.841  1.00  0.00     0.012 A 
ENDBRANCH   1  20
TORSDOF 4
ENDMDL
MODEL 5
REMARK VINA RESULT:      -7.8      2.547      4.870
REMARK  4 active torsions:
REMARK  status: ('A' for Active; 'I' for Inactive)
REMARK    1  A    between atoms: C_5  and  C_6 
REMARK    2  A    between atoms: C_6  and  N_7 
REMARK    3  A    between atoms: C_6  and  C_18 
REMARK    4  A    between atoms: N_7  and  C_8 
ROOT
HETATM    1  C   UNL     1      42.653 -16.965   3.109  1.00  0.00     0.288 C 
ENDROOT
BRANCH   1   2
HETATM    2  C   UNL     1      42.779 -15.736   3.993  1.00  0.00    -0.003 A 
HETATM    3  C   UNL     1      43.656 -14.692   3.703  1.00  0.00     0.126 A 
HETATM    4  N   UNL     1      43.736 -13.549   4.420  1.00  0.00    -0.272 NA
HETATM    5  C   UNL     1      42.939 -13.445   5.505  1.00  0.00     0.116 A 
HETATM    6  C   UNL     1      42.041 -14.424   5.890  1.00  0.00     0.020 A 
HETATM    7  C   UNL     1      41.956 -15.580   5.119  1.00  0.00     0.012 A 
ENDBRANCH   1   2
BRANCH   1   8
HETATM    8  N   UNL     1      42.681 -16.599   1.665  1.00  0.00     0.101 N 
HETATM    9  H   UNL     1      43.590 -16.887   1.313  1.00  0.00     0.317 HD
BRANCH   8  10
HETATM   10  C   UNL     1      41.572 -17.065   0.819  1.00  0.00     0.225 C 
HETATM   11  C   UNL     1      41.319 -16.243  -0.469  1.00  0.00     0.069 C 
HETATM   12  C   UNL     1      40.822 -14.846  -0.156  1.00  0.00     0.190 C 
HETATM   13  N   UNL     1      39.549 -14.955   0.636  1.00  0.00    -0.067 N 
HETATM   14  C   UNL     1      40.370 -13.993  -1.323  1.00  0.00     0.035 C 
HETATM   15  H   UNL     1      38.887 -15.533   0.098  1.00  0.00     0.280 HD
HETATM   16  C   UNL     1      39.753 -15.630   1.955  1.00  0.00     0.237 C 
HETATM   17  C   UNL     1      38.972 -13.563   0.643  1.00  0.00     0.235 C 
HETATM   18  C   UNL     1      40.287 -17.037   1.689  1.00  0.00     0.063 C 
HETATM   19  C   UNL     1      39.512 -12.927  -0.642  1.00  0.00     0.030 C 
ENDBRANCH   8  10
ENDBRANCH   1   8
BRANCH   1  20
HETATM   20  C   UNL     1      43.480 -18.188   3.522  1.00  0.00    -0.021 A 
HETATM   21  C   UNL     1      43.755 -18.412   4.891  1.00  0.00     0.012 A 
HETATM   22  C   UNL     1      44.471 -19.534   5.315  1.00  0.00     0.043 A 
HETATM   23  C   UNL     1      44.901 -20.462   4.381  1.00  0.00     0.116 A 
HETATM   24  F   UNL     1      45.586 -21.540   4.783  1.00  0.00    -0.206 F 
HETATM   25  C   UNL     1      44.614 -20.296   3.033  1.00  0.00     0.043 A 
HETATM   26  C   UNL     1      43.896 -19.173   2.609  1.00  0.00     0.012 A 
ENDBRANCH   1  20
TORSDOF 4
ENDMDL
MODEL 6
REMARK VINA RESULT:      -7.6      2.558      4.675
REMARK  4 active torsions:
REMARK  status: ('A' for Active; 'I' for Inactive)
REMARK    1  A    between atoms: C_5  and  C_6 
REMARK    2  A    between atoms: C_6  and  N_7 
REMARK    3  A    between atoms: C_6  and  C_18 
REMARK    4  A    between atoms: N_7  and  C_8 
ROOT
HETATM    1  C   UNL     1      42.847 -17.509   3.769  1.00  0.00     0.288 C 
ENDROOT
BRANCH   1   2
HETATM    2  C   UNL     1      43.129 -17.077   5.199  1.00  0.00    -0.003 A 
HETATM    3  C   UNL     1      43.686 -15.837   5.510  1.00  0.00     0.126 A 
HETATM    4  N   UNL     1      43.873 -15.386   6.771  1.00  0.00    -0.272 NA
HETATM    5  C   UNL     1      43.534 -16.217   7.779  1.00  0.00     0.116 A 
HETATM    6  C   UNL     1      42.986 -17.471   7.584  1.00  0.00     0.020 A 
HETATM    7  C   UNL     1      42.775 -17.902   6.276  1.00  0.00     0.012 A 
ENDBRANCH   1   2
BRANCH   1   8
HETATM    8  N   UNL     1      43.043 -16.383   2.814  1.00  0.00     0.101 N 
HETATM    9  H   UNL     1      43.957 -16.519   2.393  1.00  0.00     0.317 HD
BRANCH   8  10
HETATM   10  C   UNL     1      41.988 -16.141   1.817  1.00  0.00     0.225 C 
HETATM   11  C   UNL     1      42.079 -14.794   1.058  1.00  0.00     0.069 C 
HETATM   12  C   UNL     1      41.828 -13.614   1.975  1.00  0.00     0.190 C 
HETATM   13  N   UNL     1      40.463 -13.762   2.586  1.00  0.00    -0.067 N 
HETATM   14  C   UNL     1      41.714 -12.248   1.332  1.00  0.00     0.035 C 
HETATM   15  H   UNL     1      39.780 -13.862   1.822  1.00  0.00     0.280 HD
HETATM   16  C   UNL     1      40.350 -14.985   3.442  1.00  0.00     0.237 C 
HETATM   17  C   UNL     1      40.175 -12.430   3.228  1.00  0.00     0.235 C 
HETATM   18  C   UNL     1      40.628 -16.204   2.562  1.00  0.00     0.063 C 
HETATM   19  C   UNL     1      40.998 -11.433   2.408  1.00  0.00     0.030 C 
ENDBRANCH   8  10
ENDBRANCH   1   8
BRANCH   1  20
HETATM   20  C   UNL     1      43.412 -18.871   3.348  1.00  0.00    -0.021 A 
HETATM   21  C   UNL     1      42.941 -19.483   2.163  1.00  0.00     0.012 A 
HETATM   22  C   UNL     1      43.456 -20.704   1.721  1.00  0.00     0.043 A 
HETATM   23  C   UNL     1      44.467 -21.319   2.442  1.00  0.00     0.116 A 
HETATM   24  F   UNL     1      44.964 -22.488   2.020  1.00  0.00    -0.206 F 
HETATM   25  C   UNL     1      44.981 -20.728   3.586  1.00  0.00     0.043 A 
HETATM   26  C   UNL     1      44.467 -19.504   4.028  1.00  0.00     0.012 A 
ENDBRANCH   1  20
TORSDOF 4
ENDMDL
MODEL 7
REMARK VINA RESULT:      -7.4      2.576      3.921
REMARK  4 active torsions:
REMARK  status: ('A' for Active; 'I' for Inactive)
REMARK    1  A    between atoms: C_5  and  C_6 
REMARK    2  A    between atoms: C_6  and  N_7 
REMARK    3  A    between atoms: C_6  and  C_18 
REMARK    4  A    between atoms: N_7  and  C_8 
ROOT
HETATM    1  C   UNL     1      43.344 -16.786   4.380  1.00  0.00     0.288 C 
ENDROOT
BRANCH   1   2
HETATM    2  C   UNL     1      42.642 -16.937   3.041  1.00  0.00    -0.003 A 
HETATM    3  C   UNL     1      41.254 -16.976   2.923  1.00  0.00     0.126 A 
HETATM    4  N   UNL     1      40.595 -17.026   1.743  1.00  0.00    -0.272 NA
HETATM    5  C   UNL     1      41.343 -17.084   0.621  1.00  0.00     0.116 A 
HETATM    6  C   UNL     1      42.726 -17.062   0.624  1.00  0.00     0.020 A 
HETATM    7  C   UNL     1      43.382 -16.981   1.850  1.00  0.00     0.012 A 
ENDBRANCH   1   2
BRANCH   1   8
HETATM    8  N   UNL     1      42.795 -15.636   5.153  1.00  0.00     0.101 N 
HETATM    9  H   UNL     1      42.519 -16.004   6.059  1.00  0.00     0.317 HD
BRANCH   8  10
HETATM   10  C   UNL     1      43.623 -14.425   5.259  1.00  0.00     0.225 C 
HETATM   11  C   UNL     1      43.053 -13.299   6.157  1.00  0.00     0.069 C 
HETATM   12  C   UNL     1      41.799 -12.689   5.565  1.00  0.00     0.190 C 
HETATM   13  N   UNL     1      42.127 -12.139   4.205  1.00  0.00    -0.067 N 
HETATM   14  C   UNL     1      41.235 -11.462   6.250  1.00  0.00     0.035 C 
HETATM   15  H   UNL     1      42.913 -11.482   4.308  1.00  0.00     0.280 HD
HETATM   16  C   UNL     1      42.563 -13.203   3.248  1.00  0.00     0.237 C 
HETATM   17  C   UNL     1      40.934 -11.301   3.824  1.00  0.00     0.235 C 
HETATM   18  C   UNL     1      43.813 -13.871   3.822  1.00  0.00     0.063 C 
HETATM   19  C   UNL     1      40.344 -10.857   5.166  1.00  0.00     0.030 C 
ENDBRANCH   8  10
ENDBRANCH   1   8
BRANCH   1  20
HETATM   20  C   UNL     1      43.598 -18.079   5.164  1.00  0.00    -0.021 A 
HETATM   21  C   UNL     1      43.266 -18.137   6.537  1.00  0.00     0.012 A 
HETATM   22  C   UNL     1      43.444 -19.307   7.279  1.00  0.00     0.043 A 
HETATM   23  C   UNL     1      43.933 -20.443   6.655  1.00  0.00     0.116 A 
HETATM   24  F   UNL     1      44.103 -21.567   7.362  1.00  0.00    -0.206 F 
HETATM   25  C   UNL     1      44.230 -20.434   5.300  1.00  0.00     0.043 A 
HETATM   26  C   UNL     1      44.050 -19.263   4.557  1.00  0.00     0.012 A 
ENDBRANCH   1  20
TORSDOF 4
ENDMDL
MODEL 8
REMARK VINA RESULT:      -7.3      1.234      2.200
REMARK  4 active torsions:
REMARK  status: ('A' for Active; 'I' for Inactive)
REMARK    1  A    between atoms: C_5  and  C_6 
REMARK    2  A    between atoms: C_6  and  N_7 
REMARK    3  A    between atoms: C_6  and  C_18 
REMARK    4  A    between atoms: N_7  and  C_8 
ROOT
HETATM    1  C   UNL     1      44.314 -18.141   3.689  1.00  0.00     0.288 C 
ENDROOT
BRANCH   1   2
HETATM    2  C   UNL     1      44.314 -19.610   3.300  1.00  0.00    -0.003 A 
HETATM    3  C   UNL     1      44.850 -20.602   4.120  1.00  0.00     0.126 A 
HETATM    4  N   UNL     1      44.793 -21.924   3.846  1.00  0.00    -0.272 NA
HETATM    5  C   UNL     1      44.215 -22.288   2.681  1.00  0.00     0.116 A 
HETATM    6  C   UNL     1      43.661 -21.387   1.790  1.00  0.00     0.020 A 
HETATM    7  C   UNL     1      43.706 -20.032   2.108  1.00  0.00     0.012 A 
ENDBRANCH   1   2
BRANCH   1   8
HETATM    8  N   UNL     1      43.637 -17.307   2.656  1.00  0.00     0.101 N 
HETATM    9  H   UNL     1      44.019 -17.595   1.759  1.00  0.00     0.317 HD
BRANCH   8  10
HETATM   10  C   UNL     1      42.167 -17.271   2.663  1.00  0.00     0.225 C 
HETATM   11  C   UNL     1      41.487 -17.347   1.274  1.00  0.00     0.069 C 
HETATM   12  C   UNL     1      41.761 -16.108   0.445  1.00  0.00     0.190 C 
HETATM   13  N   UNL     1      41.255 -14.907   1.194  1.00  0.00    -0.067 N 
HETATM   14  C   UNL     1      41.016 -15.972  -0.867  1.00  0.00     0.035 C 
HETATM   15  H   UNL     1      40.260 -15.063   1.413  1.00  0.00     0.280 HD
HETATM   16  C   UNL     1      41.965 -14.704   2.494  1.00  0.00     0.237 C 
HETATM   17  C   UNL     1      41.287 -13.781   0.194  1.00  0.00     0.235 C 
HETATM   18  C   UNL     1      41.743 -15.948   3.355  1.00  0.00     0.063 C 
HETATM   19  C   UNL     1      41.134 -14.477  -1.161  1.00  0.00     0.030 C 
ENDBRANCH   8  10
ENDBRANCH   1   8
BRANCH   1  20
HETATM   20  C   UNL     1      43.980 -17.825   5.152  1.00  0.00    -0.021 A 
HETATM   21  C   UNL     1      43.493 -18.852   5.991  1.00  0.00     0.012 A 
HETATM   22  C   UNL     1      43.214 -18.618   7.340  1.00  0.00     0.043 A 
HETATM   23  C   UNL     1      43.442 -17.361   7.876  1.00  0.00     0.116 A 
HETATM   24  F   UNL     1      43.178 -17.133   9.168  1.00  0.00    -0.206 F 
HETATM   25  C   UNL     1      43.959 -16.340   7.091  1.00  0.00     0.043 A 
HETATM   26  C   UNL     1      44.240 -16.575   5.741  1.00  0.00     0.012 A 
ENDBRANCH   1  20
TORSDOF 4
ENDMDL
MODEL 9
REMARK VINA RESULT:      -7.3      2.901      5.359
REMARK  4 active torsions:
REMARK  status: ('A' for Active; 'I' for Inactive)
REMARK    1  A    between atoms: C_5  and  C_6 
REMARK    2  A    between atoms: C_6  and  N_7 
REMARK    3  A    between atoms: C_6  and  C_18 
REMARK    4  A    between atoms: N_7  and  C_8 
ROOT
HETATM    1  C   UNL     1      42.208 -16.615   2.517  1.00  0.00     0.288 C 
ENDROOT
BRANCH   1   2
HETATM    2  C   UNL     1      42.383 -15.572   3.609  1.00  0.00    -0.003 A 
HETATM    3  C   UNL     1      41.569 -15.529   4.740  1.00  0.00     0.126 A 
HETATM    4  N   UNL     1      41.747 -14.670   5.769  1.00  0.00    -0.272 NA
HETATM    5  C   UNL     1      42.754 -13.778   5.659  1.00  0.00     0.116 A 
HETATM    6  C   UNL     1      43.613 -13.725   4.576  1.00  0.00     0.020 A 
HETATM    7  C   UNL     1      43.428 -14.639   3.543  1.00  0.00     0.012 A 
ENDBRANCH   1   2
BRANCH   1   8
HETATM    8  N   UNL     1      42.278 -15.998   1.162  1.00  0.00     0.101 N 
HETATM    9  H   UNL     1      43.031 -16.470   0.670  1.00  0.00     0.317 HD
BRANCH   8  10
HETATM   10  C   UNL     1      41.037 -15.934   0.376  1.00  0.00     0.225 C 
HETATM   11  C   UNL     1      41.202 -15.512  -1.105  1.00  0.00     0.069 C 
HETATM   12  C   UNL     1      41.649 -14.070  -1.232  1.00  0.00     0.190 C 
HETATM   13  N   UNL     1      40.631 -13.190  -0.563  1.00  0.00    -0.067 N 
HETATM   14  C   UNL     1      41.683 -13.474  -2.624  1.00  0.00     0.035 C 
HETATM   15  H   UNL     1      39.711 -13.390  -0.982  1.00  0.00     0.280 HD
HETATM   16  C   UNL     1      40.516 -13.462   0.904  1.00  0.00     0.237 C 
HETATM   17  C   UNL     1      40.984 -11.789  -0.989  1.00  0.00     0.235 C 
HETATM   18  C   UNL     1      40.096 -14.921   1.082  1.00  0.00     0.063 C 
HETATM   19  C   UNL     1      41.679 -11.972  -2.342  1.00  0.00     0.030 C 
ENDBRANCH   8  10
ENDBRANCH   1   8
BRANCH   1  20
HETATM   20  C   UNL     1      42.967 -17.934   2.709  1.00  0.00    -0.021 A 
HETATM   21  C   UNL     1      43.666 -18.164   3.916  1.00  0.00     0.012 A 
HETATM   22  C   UNL     1      44.338 -19.367   4.149  1.00  0.00     0.043 A 
HETATM   23  C   UNL     1      44.299 -20.367   3.190  1.00  0.00     0.116 A 
HETATM   24  F   UNL     1      44.939 -21.521   3.411  1.00  0.00    -0.206 F 
HETATM   25  C   UNL     1      43.588 -20.190   2.012  1.00  0.00     0.043 A 
HETATM   26  C   UNL     1      42.915 -18.987   1.779  1.00  0.00     0.012 A 
ENDBRANCH   1  20
TORSDOF 4
ENDMDL
MODEL 10
REMARK VINA RESULT:      -7.3      2.885      6.130
REMARK  4 active torsions:
REMARK  status: ('A' for Active; 'I' for Inactive)
REMARK    1  A    between atoms: C_5  and  C_6 
REMARK    2  A    between atoms: C_6  and  N_7 
REMARK    3  A    between atoms: C_6  and  C_18 
REMARK    4  A    between atoms: N_7  and  C_8 
ROOT
HETATM    1  C   UNL     1      41.882 -15.086   2.349  1.00  0.00     0.288 C 
ENDROOT
BRANCH   1   2
HETATM    2  C   UNL     1      41.579 -14.460   0.998  1.00  0.00    -0.003 A 
HETATM    3  C   UNL     1      41.939 -13.151   0.681  1.00  0.00     0.126 A 
HETATM    4  N   UNL     1      41.760 -12.589  -0.536  1.00  0.00    -0.272 NA
HETATM    5  C   UNL     1      41.156 -13.342  -1.479  1.00  0.00     0.116 A 
HETATM    6  C   UNL     1      40.748 -14.647  -1.269  1.00  0.00     0.020 A 
HETATM    7  C   UNL     1      40.969 -15.213  -0.017  1.00  0.00     0.012 A 
ENDBRANCH   1   2
BRANCH   1   8
HETATM    8  N   UNL     1      40.713 -14.986   3.267  1.00  0.00     0.101 N 
HETATM    9  H   UNL     1      40.448 -15.939   3.500  1.00  0.00     0.317 HD
BRANCH   8  10
HETATM   10  C   UNL     1      40.847 -14.127   4.454  1.00  0.00     0.225 C 
HETATM   11  C   UNL     1      42.291 -13.924   4.975  1.00  0.00     0.069 C 
HETATM   12  C   UNL     1      42.873 -15.207   5.532  1.00  0.00     0.190 C 
HETATM   13  N   UNL     1      41.992 -15.690   6.650  1.00  0.00    -0.067 N 
HETATM   14  C   UNL     1      44.212 -15.114   6.233  1.00  0.00     0.035 C 
HETATM   15  H   UNL     1      41.902 -14.928   7.337  1.00  0.00     0.280 HD
HETATM   16  C   UNL     1      40.611 -16.028   6.183  1.00  0.00     0.237 C 
HETATM   17  C   UNL     1      42.785 -16.773   7.333  1.00  0.00     0.235 C 
HETATM   18  C   UNL     1      39.993 -14.765   5.582  1.00  0.00     0.063 C 
HETATM   19  C   UNL     1      44.245 -16.400   7.059  1.00  0.00     0.030 C 
ENDBRANCH   8  10
ENDBRANCH   1   8
BRANCH   1  20
HETATM   20  C   UNL     1      42.622 -16.429   2.324  1.00  0.00    -0.021 A 
HETATM   21  C   UNL     1      42.112 -17.517   3.070  1.00  0.00     0.012 A 
HETATM   22  C   UNL     1      42.732 -18.769   3.045  1.00  0.00     0.043 A 
HETATM   23  C   UNL     1      43.854 -18.959   2.255  1.00  0.00     0.116 A 
HETATM   24  F   UNL     1      44.450 -20.158   2.226  1.00  0.00    -0.206 F 
HETATM   25  C   UNL     1      44.357 -17.925   1.478  1.00  0.00     0.043 A 
HETATM   26  C   UNL     1      43.736 -16.672   1.502  1.00  0.00     0.012 A 
ENDBRANCH   1  20
TORSDOF 4
ENDMDL
