MODEL 1
REMARK VINA RESULT:      -8.9      0.000      0.000
REMARK  10 active torsions:
REMARK  status: ('A' for Active; 'I' for Inactive)
REMARK    1  A    between atoms: C_3  and  C_4 
REMARK       I    between atoms: C_4  and  N_5 
REMARK    2  A    between atoms: N_5  and  N_6 
REMARK    3  A    between atoms: N_6  and  C_7 
REMARK    4  A    between atoms: C_7  and  C_8 
REMARK    5  A    between atoms: C_8  and  O_9 
REMARK    6  A    between atoms: O_9  and  C_10 
REMARK    7  A    between atoms: C_22  and  O_23 
REMARK    8  A    between atoms: O_23  and  C_24 
REMARK    9  A    between atoms: C_24  and  C_25 
REMARK   10  A    between atoms: N_27  and  C_28 
ROOT
HETATM    1  C   UNL     1      40.186 -14.985   1.703  1.00  0.00     0.001 A 
HETATM    2  C   UNL     1      41.378 -14.866   2.419  1.00  0.00     0.020 A 
HETATM    3  C   UNL     1      41.562 -13.767   3.262  1.00  0.00     0.067 A 
HETATM    4  C   UNL     1      40.582 -12.774   3.367  1.00  0.00     0.085 A 
HETATM    5  C   UNL     1      39.385 -12.909   2.664  1.00  0.00     0.038 A 
HETATM    6  C   UNL     1      39.192 -14.011   1.830  1.00  0.00     0.003 A 
ENDROOT
BRANCH   3   7
HETATM    7  C   UNL     1      42.821 -13.621   4.009  1.00  0.00     0.272 C 
HETATM    8  N   UNL     1      42.860 -13.899   5.367  1.00  0.00    -0.264 N 
HETATM    9  H   UNL     1      43.803 -14.145   5.674  1.00  0.00     0.190 HD
HETATM   10  O   UNL     1      43.842 -13.312   3.404  1.00  0.00    -0.266 OA
BRANCH   8  11
HETATM   11  N   UNL     1      41.828 -14.304   6.108  1.00  0.00    -0.285 N 
HETATM   12  H   UNL     1      41.379 -13.617   6.718  1.00  0.00     0.188 HD
BRANCH  11  13
HETATM   13  C   UNL     1      41.230 -15.497   6.024  1.00  0.00     0.114 C 
HETATM   14  N   UNL     1      39.927 -15.698   5.920  1.00  0.00    -0.386 N 
HETATM   15  H   UNL     1      39.575 -16.649   5.839  1.00  0.00     0.157 HD
HETATM   16  H   UNL     1      39.244 -14.946   5.885  1.00  0.00     0.157 HD
BRANCH  13  17
HETATM   17  C   UNL     1      42.105 -16.721   6.110  1.00  0.00     0.253 C 
BRANCH  17  18
HETATM   18  O   UNL     1      43.226 -16.554   5.225  1.00  0.00    -0.342 OA
BRANCH  18  19
HETATM   19  C   UNL     1      43.463 -17.713   4.531  1.00  0.00     0.091 A 
HETATM   20  C   UNL     1      44.419 -18.645   4.959  1.00  0.00     0.069 A 
HETATM   21 CL   UNL     1      45.314 -18.395   6.414  1.00  0.00    -0.081 Cl
HETATM   22  C   UNL     1      44.658 -19.795   4.207  1.00  0.00     0.050 A 
HETATM   23  C   UNL     1      43.955 -19.996   3.021  1.00  0.00     0.035 A 
HETATM   24 CL   UNL     1      44.243 -21.411   2.088  1.00  0.00    -0.084 Cl
HETATM   25  C   UNL     1      43.022 -19.056   2.576  1.00  0.00     0.026 A 
HETATM   26  C   UNL     1      42.780 -17.906   3.329  1.00  0.00     0.040 A 
ENDBRANCH  18  19
ENDBRANCH  17  18
ENDBRANCH  13  17
ENDBRANCH  11  13
ENDBRANCH   8  11
ENDBRANCH   3   7
BRANCH   4  27
HETATM   27  O   UNL     1      40.756 -11.773   4.287  1.00  0.00    -0.343 OA
BRANCH  27  28
HETATM   28  C   UNL     1      39.667 -11.713   5.241  1.00  0.00     0.258 C 
BRANCH  28  29
HETATM   29  C   UNL     1      40.088 -11.153   6.565  1.00  0.00     0.172 A 
HETATM   30  N   UNL     1      41.314 -11.325   7.087  1.00  0.00    -0.147 NA
HETATM   31  N   UNL     1      41.196 -10.700   8.293  1.00  0.00    -0.207 N 
HETATM   32  C   UNL     1      39.935 -10.177   8.420  1.00  0.00     0.239 A 
HETATM   33  N   UNL     1      39.220 -10.444   7.350  1.00  0.00    -0.223 NA
BRANCH  31  34
HETATM   34  C   UNL     1      42.245 -10.627   9.247  1.00  0.00     0.153 A 
HETATM   35  N   UNL     1      43.496 -10.961   8.839  1.00  0.00    -0.217 NA
HETATM   36  C   UNL     1      44.477 -10.876   9.761  1.00  0.00     0.128 A 
HETATM   37 CL   UNL     1      46.032 -11.305   9.185  1.00  0.00    -0.062 Cl
HETATM   38  C   UNL     1      44.287 -10.483  11.073  1.00  0.00     0.044 A 
HETATM   39  C   UNL     1      42.997 -10.148  11.473  1.00  0.00     0.007 A 
HETATM   40  C   UNL     1      41.956 -10.219  10.549  1.00  0.00     0.052 A 
ENDBRANCH  31  34
ENDBRANCH  28  29
ENDBRANCH  27  28
ENDBRANCH   4  27
TORSDOF 10
ENDMDL
MODEL 2
REMARK VINA RESULT:      -8.9      4.040      5.588
REMARK  10 active torsions:
REMARK  status: ('A' for Active; 'I' for Inactive)
REMARK    1  A    between atoms: C_3  and  C_4 
REMARK       I    between atoms: C_4  and  N_5 
REMARK    2  A    between atoms: N_5  and  N_6 
REMARK    3  A    between atoms: N_6  and  C_7 
REMARK    4  A    between atoms: C_7  and  C_8 
REMARK    5  A    between atoms: C_8  and  O_9 
REMARK    6  A    between atoms: O_9  and  C_10 
REMARK    7  A    between atoms: C_22  and  O_23 
REMARK    8  A    between atoms: O_23  and  C_24 
REMARK    9  A    between atoms: C_24  and  C_25 
REMARK   10  A    between atoms: N_27  and  C_28 
ROOT
HETATM    1  C   UNL     1      38.877 -16.195  -4.092  1.00  0.00     0.001 A 
HETATM    2  C   UNL     1      40.065 -15.903  -3.424  1.00  0.00     0.020 A 
HETATM    3  C   UNL     1      40.125 -14.778  -2.596  1.00  0.00     0.067 A 
HETATM    4  C   UNL     1      39.021 -13.930  -2.461  1.00  0.00     0.085 A 
HETATM    5  C   UNL     1      37.829 -14.239  -3.116  1.00  0.00     0.038 A 
HETATM    6  C   UNL     1      37.762 -15.368  -3.935  1.00  0.00     0.003 A 
ENDROOT
BRANCH   3   7
HETATM    7  C   UNL     1      41.378 -14.448  -1.899  1.00  0.00     0.272 C 
HETATM    8  N   UNL     1      41.773 -15.187  -0.794  1.00  0.00    -0.264 N 
HETATM    9  H   UNL     1      42.784 -15.140  -0.652  1.00  0.00     0.190 HD
HETATM   10  O   UNL     1      42.093 -13.558  -2.346  1.00  0.00    -0.266 OA
BRANCH   8  11
HETATM   11  N   UNL     1      41.108 -16.214  -0.266  1.00  0.00    -0.285 N 
HETATM   12  H   UNL     1      40.541 -16.789  -0.893  1.00  0.00     0.188 HD
BRANCH  11  13
HETATM   13  C   UNL     1      41.224 -16.653   0.992  1.00  0.00     0.114 C 
HETATM   14  N   UNL     1      40.229 -16.801   1.849  1.00  0.00    -0.386 N 
HETATM   15  H   UNL     1      40.423 -17.166   2.779  1.00  0.00     0.157 HD
HETATM   16  H   UNL     1      39.259 -16.599   1.624  1.00  0.00     0.157 HD
BRANCH  13  17
HETATM   17  C   UNL     1      42.611 -16.954   1.497  1.00  0.00     0.253 C 
BRANCH  17  18
HETATM   18  O   UNL     1      42.517 -17.473   2.835  1.00  0.00    -0.342 OA
BRANCH  18  19
HETATM   19  C   UNL     1      43.095 -18.714   2.907  1.00  0.00     0.091 A 
HETATM   20  C   UNL     1      43.973 -19.059   3.945  1.00  0.00     0.069 A 
HETATM   21 CL   UNL     1      44.330 -17.944   5.213  1.00  0.00    -0.081 Cl
HETATM   22  C   UNL     1      44.570 -20.319   3.965  1.00  0.00     0.050 A 
HETATM   23  C   UNL     1      44.303 -21.220   2.935  1.00  0.00     0.035 A 
HETATM   24 CL   UNL     1      45.035 -22.776   2.951  1.00  0.00    -0.084 Cl
HETATM   25  C   UNL     1      43.452 -20.869   1.884  1.00  0.00     0.026 A 
HETATM   26  C   UNL     1      42.852 -19.610   1.864  1.00  0.00     0.040 A 
ENDBRANCH  18  19
ENDBRANCH  17  18
ENDBRANCH  13  17
ENDBRANCH  11  13
ENDBRANCH   8  11
ENDBRANCH   3   7
BRANCH   4  27
HETATM   27  O   UNL     1      39.086 -12.904  -1.555  1.00  0.00    -0.343 OA
BRANCH  27  28
HETATM   28  C   UNL     1      38.142 -13.071  -0.470  1.00  0.00     0.258 C 
BRANCH  28  29
HETATM   29  C   UNL     1      38.790 -12.992   0.878  1.00  0.00     0.172 A 
HETATM   30  N   UNL     1      39.942 -13.611   1.186  1.00  0.00    -0.147 NA
HETATM   31  N   UNL     1      40.087 -13.297   2.505  1.00  0.00    -0.207 N 
HETATM   32  C   UNL     1      39.045 -12.503   2.907  1.00  0.00     0.239 A 
HETATM   33  N   UNL     1      38.218 -12.294   1.907  1.00  0.00    -0.223 NA
BRANCH  31  34
HETATM   34  C   UNL     1      41.169 -13.749   3.305  1.00  0.00     0.153 A 
HETATM   35  N   UNL     1      40.890 -14.597   4.327  1.00  0.00    -0.217 NA
HETATM   36  C   UNL     1      41.935 -15.018   5.068  1.00  0.00     0.128 A 
HETATM   37 CL   UNL     1      41.520 -16.090   6.338  1.00  0.00    -0.062 Cl
HETATM   38  C   UNL     1      43.249 -14.640   4.857  1.00  0.00     0.044 A 
HETATM   39  C   UNL     1      43.514 -13.768   3.806  1.00  0.00     0.007 A 
HETATM   40  C   UNL     1      42.461 -13.312   3.014  1.00  0.00     0.052 A 
ENDBRANCH  31  34
ENDBRANCH  28  29
ENDBRANCH  27  28
ENDBRANCH   4  27
TORSDOF 10
ENDMDL
MODEL 3
REMARK VINA RESULT:      -8.9      2.336      3.825
REMARK  10 active torsions:
REMARK  status: ('A' for Active; 'I' for Inactive)
REMARK    1  A    between atoms: C_3  and  C_4 
REMARK       I    between atoms: C_4  and  N_5 
REMARK    2  A    between atoms: N_5  and  N_6 
REMARK    3  A    between atoms: N_6  and  C_7 
REMARK    4  A    between atoms: C_7  and  C_8 
REMARK    5  A    between atoms: C_8  and  O_9 
REMARK    6  A    between atoms: O_9  and  C_10 
REMARK    7  A    between atoms: C_22  and  O_23 
REMARK    8  A    between atoms: O_23  and  C_24 
REMARK    9  A    between atoms: C_24  and  C_25 
REMARK   10  A    between atoms: N_27  and  C_28 
ROOT
HETATM    1  C   UNL     1      41.148 -16.904   6.546  1.00  0.00     0.001 A 
HETATM    2  C   UNL     1      40.835 -15.750   5.828  1.00  0.00     0.020 A 
HETATM    3  C   UNL     1      41.792 -14.737   5.711  1.00  0.00     0.067 A 
HETATM    4  C   UNL     1      43.039 -14.856   6.333  1.00  0.00     0.085 A 
HETATM    5  C   UNL     1      43.353 -16.021   7.032  1.00  0.00     0.038 A 
HETATM    6  C   UNL     1      42.405 -17.040   7.142  1.00  0.00     0.003 A 
ENDROOT
BRANCH   3   7
HETATM    7  C   UNL     1      41.467 -13.507   4.972  1.00  0.00     0.272 C 
HETATM    8  N   UNL     1      42.091 -13.239   3.762  1.00  0.00    -0.264 N 
HETATM    9  H   UNL     1      41.531 -12.614   3.180  1.00  0.00     0.190 HD
HETATM   10  O   UNL     1      40.598 -12.760   5.407  1.00  0.00    -0.266 OA
BRANCH   8  11
HETATM   11  N   UNL     1      42.999 -14.011   3.167  1.00  0.00    -0.285 N 
HETATM   12  H   UNL     1      43.987 -13.788   3.314  1.00  0.00     0.188 HD
BRANCH  11  13
HETATM   13  C   UNL     1      42.744 -15.145   2.504  1.00  0.00     0.114 C 
HETATM   14  N   UNL     1      41.666 -15.385   1.778  1.00  0.00    -0.386 N 
HETATM   15  H   UNL     1      41.580 -16.276   1.295  1.00  0.00     0.157 HD
HETATM   16  H   UNL     1      40.917 -14.711   1.646  1.00  0.00     0.157 HD
BRANCH  13  17
HETATM   17  C   UNL     1      43.741 -16.266   2.639  1.00  0.00     0.253 C 
BRANCH  17  18
HETATM   18  O   UNL     1      43.313 -17.146   3.694  1.00  0.00    -0.342 OA
BRANCH  18  19
HETATM   19  C   UNL     1      43.627 -18.445   3.388  1.00  0.00     0.091 A 
HETATM   20  C   UNL     1      44.502 -19.198   4.184  1.00  0.00     0.069 A 
HETATM   21 CL   UNL     1      45.191 -18.532   5.620  1.00  0.00    -0.081 Cl
HETATM   22  C   UNL     1      44.827 -20.505   3.821  1.00  0.00     0.050 A 
HETATM   23  C   UNL     1      44.290 -21.044   2.653  1.00  0.00     0.035 A 
HETATM   24 CL   UNL     1      44.685 -22.655   2.198  1.00  0.00    -0.084 Cl
HETATM   25  C   UNL     1      43.441 -20.288   1.842  1.00  0.00     0.026 A 
HETATM   26  C   UNL     1      43.113 -18.981   2.206  1.00  0.00     0.040 A 
ENDBRANCH  18  19
ENDBRANCH  17  18
ENDBRANCH  13  17
ENDBRANCH  11  13
ENDBRANCH   8  11
ENDBRANCH   3   7
BRANCH   4  27
HETATM   27  O   UNL     1      43.984 -13.892   6.100  1.00  0.00    -0.343 OA
BRANCH  27  28
HETATM   28  C   UNL     1      45.110 -13.999   7.004  1.00  0.00     0.258 C 
BRANCH  28  29
HETATM   29  C   UNL     1      45.136 -12.908   8.029  1.00  0.00     0.172 A 
HETATM   30  N   UNL     1      44.041 -12.462   8.666  1.00  0.00    -0.147 NA
HETATM   31  N   UNL     1      44.551 -11.456   9.433  1.00  0.00    -0.207 N 
HETATM   32  C   UNL     1      45.904 -11.367   9.235  1.00  0.00     0.239 A 
HETATM   33  N   UNL     1      46.298 -12.266   8.362  1.00  0.00    -0.223 NA
BRANCH  31  34
HETATM   34  C   UNL     1      43.762 -10.644  10.290  1.00  0.00     0.153 A 
HETATM   35  N   UNL     1      42.645 -10.074   9.772  1.00  0.00    -0.217 NA
HETATM   36  C   UNL     1      41.909  -9.314  10.609  1.00  0.00     0.128 A 
HETATM   37 CL   UNL     1      40.511  -8.626   9.898  1.00  0.00    -0.062 Cl
HETATM   38  C   UNL     1      42.221  -9.082  11.936  1.00  0.00     0.044 A 
HETATM   39  C   UNL     1      43.371  -9.673  12.447  1.00  0.00     0.007 A 
HETATM   40  C   UNL     1      44.158 -10.469  11.616  1.00  0.00     0.052 A 
ENDBRANCH  31  34
ENDBRANCH  28  29
ENDBRANCH  27  28
ENDBRANCH   4  27
TORSDOF 10
ENDMDL
MODEL 4
REMARK VINA RESULT:      -8.9      2.098      2.556
REMARK  10 active torsions:
REMARK  status: ('A' for Active; 'I' for Inactive)
REMARK    1  A    between atoms: C_3  and  C_4 
REMARK       I    between atoms: C_4  and  N_5 
REMARK    2  A    between atoms: N_5  and  N_6 
REMARK    3  A    between atoms: N_6  and  C_7 
REMARK    4  A    between atoms: C_7  and  C_8 
REMARK    5  A    between atoms: C_8  and  O_9 
REMARK    6  A    between atoms: O_9  and  C_10 
REMARK    7  A    between atoms: C_22  and  O_23 
REMARK    8  A    between atoms: O_23  and  C_24 
REMARK    9  A    between atoms: C_24  and  C_25 
REMARK   10  A    between atoms: N_27  and  C_28 
ROOT
HETATM    1  C   UNL     1      42.471 -13.311   2.263  1.00  0.00     0.001 A 
HETATM    2  C   UNL     1      43.215 -13.787   3.342  1.00  0.00     0.020 A 
HETATM    3  C   UNL     1      42.777 -13.523   4.644  1.00  0.00     0.067 A 
HETATM    4  C   UNL     1      41.627 -12.761   4.870  1.00  0.00     0.085 A 
HETATM    5  C   UNL     1      40.876 -12.305   3.787  1.00  0.00     0.038 A 
HETATM    6  C   UNL     1      41.304 -12.576   2.486  1.00  0.00     0.003 A 
ENDROOT
BRANCH   3   7
HETATM    7  C   UNL     1      43.562 -14.005   5.791  1.00  0.00     0.272 C 
HETATM    8  N   UNL     1      43.025 -14.948   6.654  1.00  0.00    -0.264 N 
HETATM    9  H   UNL     1      43.754 -15.476   7.137  1.00  0.00     0.190 HD
HETATM   10  O   UNL     1      44.714 -13.610   5.935  1.00  0.00    -0.266 OA
BRANCH   8  11
HETATM   11  N   UNL     1      41.812 -15.492   6.554  1.00  0.00    -0.285 N 
HETATM   12  H   UNL     1      41.002 -14.884   6.694  1.00  0.00     0.188 HD
BRANCH  11  13
HETATM   13  C   UNL     1      41.549 -16.738   6.145  1.00  0.00     0.114 C 
HETATM   14  N   UNL     1      40.361 -17.194   5.786  1.00  0.00    -0.386 N 
HETATM   15  H   UNL     1      40.273 -18.157   5.468  1.00  0.00     0.157 HD
HETATM   16  H   UNL     1      39.520 -16.625   5.780  1.00  0.00     0.157 HD
BRANCH  13  17
HETATM   17  C   UNL     1      42.689 -17.723   6.143  1.00  0.00     0.253 C 
BRANCH  17  18
HETATM   18  O   UNL     1      43.612 -17.365   5.100  1.00  0.00    -0.342 OA
BRANCH  18  19
HETATM   19  C   UNL     1      43.749 -18.399   4.209  1.00  0.00     0.091 A 
HETATM   20  C   UNL     1      43.026 -18.438   3.009  1.00  0.00     0.069 A 
HETATM   21 CL   UNL     1      41.957 -17.154   2.574  1.00  0.00    -0.081 Cl
HETATM   22  C   UNL     1      43.165 -19.523   2.145  1.00  0.00     0.050 A 
HETATM   23  C   UNL     1      44.010 -20.575   2.496  1.00  0.00     0.035 A 
HETATM   24 CL   UNL     1      44.188 -21.918   1.437  1.00  0.00    -0.084 Cl
HETATM   25  C   UNL     1      44.711 -20.553   3.705  1.00  0.00     0.026 A 
HETATM   26  C   UNL     1      44.575 -19.465   4.569  1.00  0.00     0.040 A 
ENDBRANCH  18  19
ENDBRANCH  17  18
ENDBRANCH  13  17
ENDBRANCH  11  13
ENDBRANCH   8  11
ENDBRANCH   3   7
BRANCH   4  27
HETATM   27  O   UNL     1      41.174 -12.621   6.156  1.00  0.00    -0.343 OA
BRANCH  27  28
HETATM   28  C   UNL     1      40.440 -11.387   6.347  1.00  0.00     0.258 C 
BRANCH  28  29
HETATM   29  C   UNL     1      40.377 -10.967   7.782  1.00  0.00     0.172 A 
HETATM   30  N   UNL     1      41.464 -10.750   8.541  1.00  0.00    -0.147 NA
HETATM   31  N   UNL     1      40.910 -10.455   9.751  1.00  0.00    -0.207 N 
HETATM   32  C   UNL     1      39.543 -10.489   9.652  1.00  0.00     0.239 A 
HETATM   33  N   UNL     1      39.181 -10.805   8.429  1.00  0.00    -0.223 NA
BRANCH  31  34
HETATM   34  C   UNL     1      41.670 -10.166  10.914  1.00  0.00     0.153 A 
HETATM   35  N   UNL     1      41.008  -9.707  12.006  1.00  0.00    -0.217 NA
HETATM   36  C   UNL     1      41.752  -9.447  13.101  1.00  0.00     0.128 A 
HETATM   37 CL   UNL     1      40.859  -8.875  14.446  1.00  0.00    -0.062 Cl
HETATM   38  C   UNL     1      43.123  -9.611  13.175  1.00  0.00     0.044 A 
HETATM   39  C   UNL     1      43.784 -10.080  12.044  1.00  0.00     0.007 A 
HETATM   40  C   UNL     1      43.051 -10.364  10.893  1.00  0.00     0.052 A 
ENDBRANCH  31  34
ENDBRANCH  28  29
ENDBRANCH  27  28
ENDBRANCH   4  27
TORSDOF 10
ENDMDL
MODEL 5
REMARK VINA RESULT:      -8.8      2.520      4.631
REMARK  10 active torsions:
REMARK  status: ('A' for Active; 'I' for Inactive)
REMARK    1  A    between atoms: C_3  and  C_4 
REMARK       I    between atoms: C_4  and  N_5 
REMARK    2  A    between atoms: N_5  and  N_6 
REMARK    3  A    between atoms: N_6  and  C_7 
REMARK    4  A    between atoms: C_7  and  C_8 
REMARK    5  A    between atoms: C_8  and  O_9 
REMARK    6  A    between atoms: O_9  and  C_10 
REMARK    7  A    between atoms: C_22  and  O_23 
REMARK    8  A    between atoms: O_23  and  C_24 
REMARK    9  A    between atoms: C_24  and  C_25 
REMARK   10  A    between atoms: N_27  and  C_28 
ROOT
HETATM    1  C   UNL     1      43.811 -18.942   5.163  1.00  0.00     0.001 A 
HETATM    2  C   UNL     1      42.664 -18.148   5.197  1.00  0.00     0.020 A 
HETATM    3  C   UNL     1      42.664 -16.981   5.968  1.00  0.00     0.067 A 
HETATM    4  C   UNL     1      43.783 -16.625   6.726  1.00  0.00     0.085 A 
HETATM    5  C   UNL     1      44.934 -17.412   6.672  1.00  0.00     0.038 A 
HETATM    6  C   UNL     1      44.942 -18.572   5.895  1.00  0.00     0.003 A 
ENDROOT
BRANCH   3   7
HETATM    7  C   UNL     1      41.455 -16.145   6.026  1.00  0.00     0.272 C 
HETATM    8  N   UNL     1      41.483 -14.848   5.534  1.00  0.00    -0.264 N 
HETATM    9  H   UNL     1      40.551 -14.526   5.269  1.00  0.00     0.190 HD
HETATM   10  O   UNL     1      40.414 -16.629   6.455  1.00  0.00    -0.266 OA
BRANCH   8  11
HETATM   11  N   UNL     1      42.539 -14.246   4.988  1.00  0.00    -0.285 N 
HETATM   12  H   UNL     1      43.469 -14.545   5.291  1.00  0.00     0.188 HD
BRANCH  11  13
HETATM   13  C   UNL     1      42.501 -13.379   3.970  1.00  0.00     0.114 C 
HETATM   14  N   UNL     1      41.976 -12.167   4.011  1.00  0.00    -0.386 N 
HETATM   15  H   UNL     1      42.020 -11.577   3.183  1.00  0.00     0.157 HD
HETATM   16  H   UNL     1      41.549 -11.768   4.842  1.00  0.00     0.157 HD
BRANCH  13  17
HETATM   17  C   UNL     1      43.054 -13.840   2.646  1.00  0.00     0.253 C 
BRANCH  17  18
HETATM   18  O   UNL     1      42.031 -14.565   1.942  1.00  0.00    -0.342 OA
BRANCH  18  19
HETATM   19  C   UNL     1      42.369 -15.890   1.842  1.00  0.00     0.091 A 
HETATM   20  C   UNL     1      41.398 -16.902   1.865  1.00  0.00     0.069 A 
HETATM   21 CL   UNL     1      39.719 -16.518   1.973  1.00  0.00    -0.081 Cl
HETATM   22  C   UNL     1      41.782 -18.241   1.799  1.00  0.00     0.050 A 
HETATM   23  C   UNL     1      43.137 -18.561   1.731  1.00  0.00     0.035 A 
HETATM   24 CL   UNL     1      43.621 -20.210   1.648  1.00  0.00    -0.084 Cl
HETATM   25  C   UNL     1      44.109 -17.558   1.737  1.00  0.00     0.026 A 
HETATM   26  C   UNL     1      43.725 -16.218   1.801  1.00  0.00     0.040 A 
ENDBRANCH  18  19
ENDBRANCH  17  18
ENDBRANCH  13  17
ENDBRANCH  11  13
ENDBRANCH   8  11
ENDBRANCH   3   7
BRANCH   4  27
HETATM   27  O   UNL     1      43.780 -15.419   7.377  1.00  0.00    -0.343 OA
BRANCH  27  28
HETATM   28  C   UNL     1      44.912 -14.594   7.007  1.00  0.00     0.258 C 
BRANCH  28  29
HETATM   29  C   UNL     1      45.051 -13.380   7.873  1.00  0.00     0.172 A 
HETATM   30  N   UNL     1      44.048 -12.875   8.610  1.00  0.00    -0.147 NA
HETATM   31  N   UNL     1      44.629 -11.771   9.158  1.00  0.00    -0.207 N 
HETATM   32  C   UNL     1      45.934 -11.684   8.746  1.00  0.00     0.239 A 
HETATM   33  N   UNL     1      46.226 -12.681   7.942  1.00  0.00    -0.223 NA
BRANCH  31  34
HETATM   34  C   UNL     1      43.949 -10.870  10.019  1.00  0.00     0.153 A 
HETATM   35  N   UNL     1      42.901 -10.175   9.509  1.00  0.00    -0.217 NA
HETATM   36  C   UNL     1      42.267  -9.332  10.349  1.00  0.00     0.128 A 
HETATM   37 CL   UNL     1      40.951  -8.488   9.648  1.00  0.00    -0.062 Cl
HETATM   38  C   UNL     1      42.616  -9.133  11.672  1.00  0.00     0.044 A 
HETATM   39  C   UNL     1      43.695  -9.852  12.176  1.00  0.00     0.007 A 
HETATM   40  C   UNL     1      44.376 -10.737  11.341  1.00  0.00     0.052 A 
ENDBRANCH  31  34
ENDBRANCH  28  29
ENDBRANCH  27  28
ENDBRANCH   4  27
TORSDOF 10
ENDMDL
MODEL 6
REMARK VINA RESULT:      -8.6      3.154      6.838
REMARK  10 active torsions:
REMARK  status: ('A' for Active; 'I' for Inactive)
REMARK    1  A    between atoms: C_3  and  C_4 
REMARK       I    between atoms: C_4  and  N_5 
REMARK    2  A    between atoms: N_5  and  N_6 
REMARK    3  A    between atoms: N_6  and  C_7 
REMARK    4  A    between atoms: C_7  and  C_8 
REMARK    5  A    between atoms: C_8  and  O_9 
REMARK    6  A    between atoms: O_9  and  C_10 
REMARK    7  A    between atoms: C_22  and  O_23 
REMARK    8  A    between atoms: O_23  and  C_24 
REMARK    9  A    between atoms: C_24  and  C_25 
REMARK   10  A    between atoms: N_27  and  C_28 
ROOT
HETATM    1  C   UNL     1      38.814 -10.874   0.019  1.00  0.00     0.001 A 
HETATM    2  C   UNL     1      40.091 -11.094   0.535  1.00  0.00     0.020 A 
HETATM    3  C   UNL     1      40.295 -12.152   1.426  1.00  0.00     0.067 A 
HETATM    4  C   UNL     1      39.230 -12.964   1.828  1.00  0.00     0.085 A 
HETATM    5  C   UNL     1      37.960 -12.751   1.293  1.00  0.00     0.038 A 
HETATM    6  C   UNL     1      37.754 -11.703   0.394  1.00  0.00     0.003 A 
ENDROOT
BRANCH   3   7
HETATM    7  C   UNL     1      41.634 -12.384   1.991  1.00  0.00     0.272 C 
HETATM    8  N   UNL     1      41.887 -12.089   3.322  1.00  0.00    -0.264 N 
HETATM    9  H   UNL     1      42.671 -12.633   3.686  1.00  0.00     0.190 HD
HETATM   10  O   UNL     1      42.498 -12.897   1.288  1.00  0.00    -0.266 OA
BRANCH   8  11
HETATM   11  N   UNL     1      41.006 -11.591   4.190  1.00  0.00    -0.285 N 
HETATM   12  H   UNL     1      40.745 -10.606   4.095  1.00  0.00     0.188 HD
BRANCH  11  13
HETATM   13  C   UNL     1      40.318 -12.298   5.093  1.00  0.00     0.114 C 
HETATM   14  N   UNL     1      39.023 -12.182   5.334  1.00  0.00    -0.386 N 
HETATM   15  H   UNL     1      38.591 -12.786   6.030  1.00  0.00     0.157 HD
HETATM   16  H   UNL     1      38.415 -11.537   4.839  1.00  0.00     0.157 HD
BRANCH  13  17
HETATM   17  C   UNL     1      41.088 -13.270   5.947  1.00  0.00     0.253 C 
BRANCH  17  18
HETATM   18  O   UNL     1      41.484 -14.390   5.136  1.00  0.00    -0.342 OA
BRANCH  18  19
HETATM   19  C   UNL     1      42.142 -15.321   5.898  1.00  0.00     0.091 A 
HETATM   20  C   UNL     1      43.512 -15.210   6.178  1.00  0.00     0.069 A 
HETATM   21 CL   UNL     1      44.426 -13.859   5.613  1.00  0.00    -0.081 Cl
HETATM   22  C   UNL     1      44.154 -16.195   6.926  1.00  0.00     0.050 A 
HETATM   23  C   UNL     1      43.428 -17.300   7.370  1.00  0.00     0.035 A 
HETATM   24 CL   UNL     1      44.212 -18.521   8.293  1.00  0.00    -0.084 Cl
HETATM   25  C   UNL     1      42.071 -17.429   7.069  1.00  0.00     0.026 A 
HETATM   26  C   UNL     1      41.426 -16.441   6.323  1.00  0.00     0.040 A 
ENDBRANCH  18  19
ENDBRANCH  17  18
ENDBRANCH  13  17
ENDBRANCH  11  13
ENDBRANCH   8  11
ENDBRANCH   3   7
BRANCH   4  27
HETATM   27  O   UNL     1      39.495 -14.055   2.613  1.00  0.00    -0.343 OA
BRANCH  27  28
HETATM   28  C   UNL     1      39.199 -15.301   1.937  1.00  0.00     0.258 C 
BRANCH  28  29
HETATM   29  C   UNL     1      40.420 -16.137   1.704  1.00  0.00     0.172 A 
HETATM   30  N   UNL     1      40.892 -17.025   2.594  1.00  0.00    -0.147 NA
HETATM   31  N   UNL     1      42.017 -17.478   1.971  1.00  0.00    -0.207 N 
HETATM   32  C   UNL     1      42.147 -16.865   0.751  1.00  0.00     0.239 A 
HETATM   33  N   UNL     1      41.159 -16.021   0.557  1.00  0.00    -0.223 NA
BRANCH  31  34
HETATM   34  C   UNL     1      42.896 -18.439   2.536  1.00  0.00     0.153 A 
HETATM   35  N   UNL     1      43.077 -19.605   1.865  1.00  0.00    -0.217 NA
HETATM   36  C   UNL     1      43.923 -20.497   2.419  1.00  0.00     0.128 A 
HETATM   37 CL   UNL     1      44.112 -21.945   1.524  1.00  0.00    -0.062 Cl
HETATM   38  C   UNL     1      44.599 -20.303   3.609  1.00  0.00     0.044 A 
HETATM   39  C   UNL     1      44.398 -19.103   4.284  1.00  0.00     0.007 A 
HETATM   40  C   UNL     1      43.534 -18.151   3.743  1.00  0.00     0.052 A 
ENDBRANCH  31  34
ENDBRANCH  28  29
ENDBRANCH  27  28
ENDBRANCH   4  27
TORSDOF 10
ENDMDL
MODEL 7
REMARK VINA RESULT:      -8.5      2.571      6.597
REMARK  10 active torsions:
REMARK  status: ('A' for Active; 'I' for Inactive)
REMARK    1  A    between atoms: C_3  and  C_4 
REMARK       I    between atoms: C_4  and  N_5 
REMARK    2  A    between atoms: N_5  and  N_6 
REMARK    3  A    between atoms: N_6  and  C_7 
REMARK    4  A    between atoms: C_7  and  C_8 
REMARK    5  A    between atoms: C_8  and  O_9 
REMARK    6  A    between atoms: O_9  and  C_10 
REMARK    7  A    between atoms: C_22  and  O_23 
REMARK    8  A    between atoms: O_23  and  C_24 
REMARK    9  A    between atoms: C_24  and  C_25 
REMARK   10  A    between atoms: N_27  and  C_28 
ROOT
HETATM    1  C   UNL     1      41.351 -10.647  11.503  1.00  0.00     0.001 A 
HETATM    2  C   UNL     1      41.095 -10.141  10.228  1.00  0.00     0.020 A 
HETATM    3  C   UNL     1      42.017 -10.375   9.203  1.00  0.00     0.067 A 
HETATM    4  C   UNL     1      43.201 -11.076   9.452  1.00  0.00     0.085 A 
HETATM    5  C   UNL     1      43.441 -11.597  10.723  1.00  0.00     0.038 A 
HETATM    6  C   UNL     1      42.518 -11.376  11.747  1.00  0.00     0.003 A 
ENDROOT
BRANCH   3   7
HETATM    7  C   UNL     1      41.767  -9.832   7.859  1.00  0.00     0.272 C 
HETATM    8  N   UNL     1      41.426 -10.683   6.818  1.00  0.00    -0.264 N 
HETATM    9  H   UNL     1      40.911 -10.193   6.084  1.00  0.00     0.190 HD
HETATM   10  O   UNL     1      41.804  -8.618   7.688  1.00  0.00    -0.266 OA
BRANCH   8  11
HETATM   11  N   UNL     1      41.293 -12.006   6.906  1.00  0.00    -0.285 N 
HETATM   12  H   UNL     1      42.026 -12.529   7.392  1.00  0.00     0.188 HD
BRANCH  11  13
HETATM   13  C   UNL     1      40.214 -12.707   6.542  1.00  0.00     0.114 C 
HETATM   14  N   UNL     1      39.196 -13.015   7.327  1.00  0.00    -0.386 N 
HETATM   15  H   UNL     1      38.411 -13.535   6.942  1.00  0.00     0.157 HD
HETATM   16  H   UNL     1      39.133 -12.733   8.301  1.00  0.00     0.157 HD
BRANCH  13  17
HETATM   17  C   UNL     1      40.177 -13.241   5.133  1.00  0.00     0.253 C 
BRANCH  17  18
HETATM   18  O   UNL     1      40.001 -14.668   5.180  1.00  0.00    -0.342 OA
BRANCH  18  19
HETATM   19  C   UNL     1      40.641 -15.262   4.123  1.00  0.00     0.091 A 
HETATM   20  C   UNL     1      41.046 -16.604   4.167  1.00  0.00     0.069 A 
HETATM   21 CL   UNL     1      40.712 -17.587   5.546  1.00  0.00    -0.081 Cl
HETATM   22  C   UNL     1      41.727 -17.164   3.087  1.00  0.00     0.050 A 
HETATM   23  C   UNL     1      42.018 -16.372   1.977  1.00  0.00     0.035 A 
HETATM   24 CL   UNL     1      42.857 -17.054   0.639  1.00  0.00    -0.084 Cl
HETATM   25  C   UNL     1      41.642 -15.027   1.941  1.00  0.00     0.026 A 
HETATM   26  C   UNL     1      40.958 -14.467   3.021  1.00  0.00     0.040 A 
ENDBRANCH  18  19
ENDBRANCH  17  18
ENDBRANCH  13  17
ENDBRANCH  11  13
ENDBRANCH   8  11
ENDBRANCH   3   7
BRANCH   4  27
HETATM   27  O   UNL     1      44.020 -11.378   8.395  1.00  0.00    -0.343 OA
BRANCH  27  28
HETATM   28  C   UNL     1      44.784 -12.587   8.624  1.00  0.00     0.258 C 
BRANCH  28  29
HETATM   29  C   UNL     1      44.385 -13.705   7.711  1.00  0.00     0.172 A 
HETATM   30  N   UNL     1      44.494 -15.004   8.035  1.00  0.00    -0.147 NA
HETATM   31  N   UNL     1      44.074 -15.617   6.892  1.00  0.00    -0.207 N 
HETATM   32  C   UNL     1      43.720 -14.670   5.965  1.00  0.00     0.239 A 
HETATM   33  N   UNL     1      43.903 -13.464   6.452  1.00  0.00    -0.223 NA
BRANCH  31  34
HETATM   34  C   UNL     1      44.028 -17.026   6.727  1.00  0.00     0.153 A 
HETATM   35  N   UNL     1      44.231 -17.525   5.482  1.00  0.00    -0.217 NA
HETATM   36  C   UNL     1      44.190 -18.867   5.353  1.00  0.00     0.128 A 
HETATM   37 CL   UNL     1      44.458 -19.436   3.759  1.00  0.00    -0.062 Cl
HETATM   38  C   UNL     1      43.952 -19.748   6.392  1.00  0.00     0.044 A 
HETATM   39  C   UNL     1      43.743 -19.216   7.661  1.00  0.00     0.007 A 
HETATM   40  C   UNL     1      43.781 -17.834   7.837  1.00  0.00     0.052 A 
ENDBRANCH  31  34
ENDBRANCH  28  29
ENDBRANCH  27  28
ENDBRANCH   4  27
TORSDOF 10
ENDMDL
MODEL 8
REMARK VINA RESULT:      -8.5      4.050      7.740
REMARK  10 active torsions:
REMARK  status: ('A' for Active; 'I' for Inactive)
REMARK    1  A    between atoms: C_3  and  C_4 
REMARK       I    between atoms: C_4  and  N_5 
REMARK    2  A    between atoms: N_5  and  N_6 
REMARK    3  A    between atoms: N_6  and  C_7 
REMARK    4  A    between atoms: C_7  and  C_8 
REMARK    5  A    between atoms: C_8  and  O_9 
REMARK    6  A    between atoms: O_9  and  C_10 
REMARK    7  A    between atoms: C_22  and  O_23 
REMARK    8  A    between atoms: O_23  and  C_24 
REMARK    9  A    between atoms: C_24  and  C_25 
REMARK   10  A    between atoms: N_27  and  C_28 
ROOT
HETATM    1  C   UNL     1      40.334 -11.121   3.249  1.00  0.00     0.001 A 
HETATM    2  C   UNL     1      41.318 -12.000   2.797  1.00  0.00     0.020 A 
HETATM    3  C   UNL     1      41.908 -12.889   3.702  1.00  0.00     0.067 A 
HETATM    4  C   UNL     1      41.547 -12.878   5.053  1.00  0.00     0.085 A 
HETATM    5  C   UNL     1      40.547 -12.010   5.494  1.00  0.00     0.038 A 
HETATM    6  C   UNL     1      39.948 -11.129   4.592  1.00  0.00     0.003 A 
ENDROOT
BRANCH   3   7
HETATM    7  C   UNL     1      42.959 -13.809   3.242  1.00  0.00     0.272 C 
HETATM    8  N   UNL     1      42.620 -14.953   2.535  1.00  0.00    -0.264 N 
HETATM    9  H   UNL     1      43.393 -15.279   1.953  1.00  0.00     0.190 HD
HETATM   10  O   UNL     1      44.134 -13.519   3.437  1.00  0.00    -0.266 OA
BRANCH   8  11
HETATM   11  N   UNL     1      41.383 -15.330   2.212  1.00  0.00    -0.285 N 
HETATM   12  H   UNL     1      40.603 -14.803   2.611  1.00  0.00     0.188 HD
BRANCH  11  13
HETATM   13  C   UNL     1      41.064 -16.250   1.295  1.00  0.00     0.114 C 
HETATM   14  N   UNL     1      40.330 -17.328   1.511  1.00  0.00    -0.386 N 
HETATM   15  H   UNL     1      40.126 -17.955   0.736  1.00  0.00     0.157 HD
HETATM   16  H   UNL     1      39.923 -17.559   2.413  1.00  0.00     0.157 HD
BRANCH  13  17
HETATM   17  C   UNL     1      41.632 -16.077  -0.089  1.00  0.00     0.253 C 
BRANCH  17  18
HETATM   18  O   UNL     1      41.418 -14.719  -0.513  1.00  0.00    -0.342 OA
BRANCH  18  19
HETATM   19  C   UNL     1      40.380 -14.656  -1.406  1.00  0.00     0.091 A 
HETATM   20  C   UNL     1      39.171 -14.021  -1.088  1.00  0.00     0.069 A 
HETATM   21 CL   UNL     1      38.952 -13.243   0.438  1.00  0.00    -0.081 Cl
HETATM   22  C   UNL     1      38.125 -14.009  -2.009  1.00  0.00     0.050 A 
HETATM   23  C   UNL     1      38.285 -14.650  -3.236  1.00  0.00     0.035 A 
HETATM   24 CL   UNL     1      37.000 -14.641  -4.378  1.00  0.00    -0.084 Cl
HETATM   25  C   UNL     1      39.477 -15.309  -3.546  1.00  0.00     0.026 A 
HETATM   26  C   UNL     1      40.526 -15.319  -2.626  1.00  0.00     0.040 A 
ENDBRANCH  18  19
ENDBRANCH  17  18
ENDBRANCH  13  17
ENDBRANCH  11  13
ENDBRANCH   8  11
ENDBRANCH   3   7
BRANCH   4  27
HETATM   27  O   UNL     1      42.067 -13.838   5.880  1.00  0.00    -0.343 OA
BRANCH  27  28
HETATM   28  C   UNL     1      41.228 -15.017   5.946  1.00  0.00     0.258 C 
BRANCH  28  29
HETATM   29  C   UNL     1      42.017 -16.290   5.939  1.00  0.00     0.172 A 
HETATM   30  N   UNL     1      42.382 -16.931   4.817  1.00  0.00    -0.147 NA
HETATM   31  N   UNL     1      43.011 -18.035   5.314  1.00  0.00    -0.207 N 
HETATM   32  C   UNL     1      43.009 -17.988   6.684  1.00  0.00     0.239 A 
HETATM   33  N   UNL     1      42.395 -16.904   7.103  1.00  0.00    -0.223 NA
BRANCH  31  34
HETATM   34  C   UNL     1      43.567 -19.056   4.499  1.00  0.00     0.153 A 
HETATM   35  N   UNL     1      44.145 -20.116   5.119  1.00  0.00    -0.217 NA
HETATM   36  C   UNL     1      44.659 -21.076   4.324  1.00  0.00     0.128 A 
HETATM   37 CL   UNL     1      45.370 -22.388   5.164  1.00  0.00    -0.062 Cl
HETATM   38  C   UNL     1      44.637 -21.044   2.941  1.00  0.00     0.044 A 
HETATM   39  C   UNL     1      44.042 -19.948   2.325  1.00  0.00     0.007 A 
HETATM   40  C   UNL     1      43.496 -18.934   3.111  1.00  0.00     0.052 A 
ENDBRANCH  31  34
ENDBRANCH  28  29
ENDBRANCH  27  28
ENDBRANCH   4  27
TORSDOF 10
ENDMDL
MODEL 9
REMARK VINA RESULT:      -8.4      3.682      5.161
REMARK  10 active torsions:
REMARK  status: ('A' for Active; 'I' for Inactive)
REMARK    1  A    between atoms: C_3  and  C_4 
REMARK       I    between atoms: C_4  and  N_5 
REMARK    2  A    between atoms: N_5  and  N_6 
REMARK    3  A    between atoms: N_6  and  C_7 
REMARK    4  A    between atoms: C_7  and  C_8 
REMARK    5  A    between atoms: C_8  and  O_9 
REMARK    6  A    between atoms: O_9  and  C_10 
REMARK    7  A    between atoms: C_22  and  O_23 
REMARK    8  A    between atoms: O_23  and  C_24 
REMARK    9  A    between atoms: C_24  and  C_25 
REMARK   10  A    between atoms: N_27  and  C_28 
ROOT
HETATM    1  C   UNL     1      39.312 -15.888  -4.074  1.00  0.00     0.001 A 
HETATM    2  C   UNL     1      40.379 -15.573  -3.233  1.00  0.00     0.020 A 
HETATM    3  C   UNL     1      40.150 -14.778  -2.106  1.00  0.00     0.067 A 
HETATM    4  C   UNL     1      38.875 -14.271  -1.836  1.00  0.00     0.085 A 
HETATM    5  C   UNL     1      37.807 -14.607  -2.669  1.00  0.00     0.038 A 
HETATM    6  C   UNL     1      38.030 -15.410  -3.789  1.00  0.00     0.003 A 
ENDROOT
BRANCH   3   7
HETATM    7  C   UNL     1      41.270 -14.423  -1.221  1.00  0.00     0.272 C 
HETATM    8  N   UNL     1      41.388 -15.021   0.025  1.00  0.00    -0.264 N 
HETATM    9  H   UNL     1      42.354 -15.010   0.358  1.00  0.00     0.190 HD
HETATM   10  O   UNL     1      42.126 -13.644  -1.624  1.00  0.00    -0.266 OA
BRANCH   8  11
HETATM   11  N   UNL     1      40.554 -15.927   0.535  1.00  0.00    -0.285 N 
HETATM   12  H   UNL     1      40.483 -16.831   0.061  1.00  0.00     0.188 HD
BRANCH  11  13
HETATM   13  C   UNL     1      39.902 -15.819   1.697  1.00  0.00     0.114 C 
HETATM   14  N   UNL     1      38.656 -15.401   1.844  1.00  0.00    -0.386 N 
HETATM   15  H   UNL     1      38.246 -15.378   2.775  1.00  0.00     0.157 HD
HETATM   16  H   UNL     1      38.062 -15.126   1.068  1.00  0.00     0.157 HD
BRANCH  13  17
HETATM   17  C   UNL     1      40.665 -16.147   2.954  1.00  0.00     0.253 C 
BRANCH  17  18
HETATM   18  O   UNL     1      42.075 -16.055   2.680  1.00  0.00    -0.342 OA
BRANCH  18  19
HETATM   19  C   UNL     1      42.733 -17.141   3.198  1.00  0.00     0.091 A 
HETATM   20  C   UNL     1      43.513 -17.982   2.392  1.00  0.00     0.069 A 
HETATM   21 CL   UNL     1      43.719 -17.659   0.709  1.00  0.00    -0.081 Cl
HETATM   22  C   UNL     1      44.138 -19.098   2.947  1.00  0.00     0.050 A 
HETATM   23  C   UNL     1      43.962 -19.378   4.301  1.00  0.00     0.035 A 
HETATM   24 CL   UNL     1      44.729 -20.752   4.995  1.00  0.00    -0.084 Cl
HETATM   25  C   UNL     1      43.162 -18.559   5.101  1.00  0.00     0.026 A 
HETATM   26  C   UNL     1      42.538 -17.440   4.547  1.00  0.00     0.040 A 
ENDBRANCH  18  19
ENDBRANCH  17  18
ENDBRANCH  13  17
ENDBRANCH  11  13
ENDBRANCH   8  11
ENDBRANCH   3   7
BRANCH   4  27
HETATM   27  O   UNL     1      38.672 -13.590  -0.664  1.00  0.00    -0.343 OA
BRANCH  27  28
HETATM   28  C   UNL     1      39.016 -12.188  -0.778  1.00  0.00     0.258 C 
BRANCH  28  29
HETATM   29  C   UNL     1      39.774 -11.679   0.409  1.00  0.00     0.172 A 
HETATM   30  N   UNL     1      40.004 -12.411   1.512  1.00  0.00    -0.147 NA
HETATM   31  N   UNL     1      40.659 -11.520   2.310  1.00  0.00    -0.207 N 
HETATM   32  C   UNL     1      40.804 -10.328   1.647  1.00  0.00     0.239 A 
HETATM   33  N   UNL     1      40.260 -10.401   0.453  1.00  0.00    -0.223 NA
BRANCH  31  34
HETATM   34  C   UNL     1      41.103 -11.821   3.624  1.00  0.00     0.153 A 
HETATM   35  N   UNL     1      42.128 -12.701   3.760  1.00  0.00    -0.217 NA
HETATM   36  C   UNL     1      42.537 -12.964   5.018  1.00  0.00     0.128 A 
HETATM   37 CL   UNL     1      43.835 -14.078   5.123  1.00  0.00    -0.062 Cl
HETATM   38  C   UNL     1      41.983 -12.407   6.156  1.00  0.00     0.044 A 
HETATM   39  C   UNL     1      40.932 -11.510   5.996  1.00  0.00     0.007 A 
HETATM   40  C   UNL     1      40.481 -11.208   4.712  1.00  0.00     0.052 A 
ENDBRANCH  31  34
ENDBRANCH  28  29
ENDBRANCH  27  28
ENDBRANCH   4  27
TORSDOF 10
ENDMDL
MODEL 10
REMARK VINA RESULT:      -8.4      4.599      7.469
REMARK  10 active torsions:
REMARK  status: ('A' for Active; 'I' for Inactive)
REMARK    1  A    between atoms: C_3  and  C_4 
REMARK       I    between atoms: C_4  and  N_5 
REMARK    2  A    between atoms: N_5  and  N_6 
REMARK    3  A    between atoms: N_6  and  C_7 
REMARK    4  A    between atoms: C_7  and  C_8 
REMARK    5  A    between atoms: C_8  and  O_9 
REMARK    6  A    between atoms: O_9  and  C_10 
REMARK    7  A    between atoms: C_22  and  O_23 
REMARK    8  A    between atoms: O_23  and  C_24 
REMARK    9  A    between atoms: C_24  and  C_25 
REMARK   10  A    between atoms: N_27  and  C_28 
ROOT
HETATM    1  C   UNL     1      44.967 -19.033   5.317  1.00  0.00     0.001 A 
HETATM    2  C   UNL     1      43.695 -18.879   4.767  1.00  0.00     0.020 A 
HETATM    3  C   UNL     1      42.937 -17.752   5.101  1.00  0.00     0.067 A 
HETATM    4  C   UNL     1      43.428 -16.803   6.003  1.00  0.00     0.085 A 
HETATM    5  C   UNL     1      44.709 -16.951   6.534  1.00  0.00     0.038 A 
HETATM    6  C   UNL     1      45.473 -18.069   6.194  1.00  0.00     0.003 A 
ENDROOT
BRANCH   3   7
HETATM    7  C   UNL     1      41.587 -17.587   4.541  1.00  0.00     0.272 C 
HETATM    8  N   UNL     1      41.413 -16.951   3.321  1.00  0.00    -0.264 N 
HETATM    9  H   UNL     1      40.544 -17.237   2.867  1.00  0.00     0.190 HD
HETATM   10  O   UNL     1      40.630 -18.072   5.135  1.00  0.00    -0.266 OA
BRANCH   8  11
HETATM   11  N   UNL     1      42.386 -16.446   2.561  1.00  0.00    -0.285 N 
HETATM   12  H   UNL     1      43.044 -15.796   2.997  1.00  0.00     0.188 HD
BRANCH  11  13
HETATM   13  C   UNL     1      42.670 -16.821   1.309  1.00  0.00     0.114 C 
HETATM   14  N   UNL     1      43.795 -17.392   0.915  1.00  0.00    -0.386 N 
HETATM   15  H   UNL     1      43.902 -17.659  -0.061  1.00  0.00     0.157 HD
HETATM   16  H   UNL     1      44.563 -17.613   1.542  1.00  0.00     0.157 HD
BRANCH  13  17
HETATM   17  C   UNL     1      41.648 -16.518   0.245  1.00  0.00     0.253 C 
BRANCH  17  18
HETATM   18  O   UNL     1      40.737 -15.523   0.745  1.00  0.00    -0.342 OA
BRANCH  18  19
HETATM   19  C   UNL     1      40.362 -14.671  -0.262  1.00  0.00     0.091 A 
HETATM   20  C   UNL     1      39.130 -14.001  -0.239  1.00  0.00     0.069 A 
HETATM   21 CL   UNL     1      38.044 -14.184   1.090  1.00  0.00    -0.081 Cl
HETATM   22  C   UNL     1      38.767 -13.171  -1.299  1.00  0.00     0.050 A 
HETATM   23  C   UNL     1      39.629 -13.031  -2.386  1.00  0.00     0.035 A 
HETATM   24 CL   UNL     1      39.190 -12.009  -3.698  1.00  0.00    -0.084 Cl
HETATM   25  C   UNL     1      40.844 -13.720  -2.426  1.00  0.00     0.026 A 
HETATM   26  C   UNL     1      41.209 -14.549  -1.364  1.00  0.00     0.040 A 
ENDBRANCH  18  19
ENDBRANCH  17  18
ENDBRANCH  13  17
ENDBRANCH  11  13
ENDBRANCH   8  11
ENDBRANCH   3   7
BRANCH   4  27
HETATM   27  O   UNL     1      42.701 -15.660   6.215  1.00  0.00    -0.343 OA
BRANCH  27  28
HETATM   28  C   UNL     1      43.261 -14.518   5.523  1.00  0.00     0.258 C 
BRANCH  28  29
HETATM   29  C   UNL     1      42.310 -13.915   4.537  1.00  0.00     0.172 A 
HETATM   30  N   UNL     1      42.695 -13.128   3.519  1.00  0.00    -0.147 NA
HETATM   31  N   UNL     1      41.500 -12.789   2.956  1.00  0.00    -0.207 N 
HETATM   32  C   UNL     1      40.480 -13.397   3.640  1.00  0.00     0.239 A 
HETATM   33  N   UNL     1      40.958 -14.111   4.634  1.00  0.00    -0.223 NA
BRANCH  31  34
HETATM   34  C   UNL     1      41.376 -11.930   1.833  1.00  0.00     0.153 A 
HETATM   35  N   UNL     1      42.334 -11.999   0.873  1.00  0.00    -0.217 NA
HETATM   36  C   UNL     1      42.189 -11.179  -0.187  1.00  0.00     0.128 A 
HETATM   37 CL   UNL     1      43.426 -11.316  -1.365  1.00  0.00    -0.062 Cl
HETATM   38  C   UNL     1      41.147 -10.284  -0.351  1.00  0.00     0.044 A 
HETATM   39  C   UNL     1      40.177 -10.226   0.645  1.00  0.00     0.007 A 
HETATM   40  C   UNL     1      40.288 -11.061   1.756  1.00  0.00     0.052 A 
ENDBRANCH  31  34
ENDBRANCH  28  29
ENDBRANCH  27  28
ENDBRANCH   4  27
TORSDOF 10
ENDMDL
