MODEL 1
REMARK VINA RESULT:      -8.0      0.000      0.000
REMARK  7 active torsions:
REMARK  status: ('A' for Active; 'I' for Inactive)
REMARK    1  A    between atoms: C_2  and  C_3 
REMARK    2  A    between atoms: C_6  and  C_7 
REMARK    3  A    between atoms: C_7  and  N_8 
REMARK    4  A    between atoms: C_7  and  C_25 
REMARK    5  A    between atoms: N_8  and  C_11 
REMARK    6  A    between atoms: C_11  and  C_12 
REMARK       I    between atoms: C_12  and  N_13 
REMARK    7  A    between atoms: N_13  and  C_14 
ROOT
HETATM    1  N   UNL     1      39.622 -15.337   0.793  1.00  0.00    -0.054 N 
HETATM    2  H   UNL     1      39.097 -14.674   0.200  1.00  0.00     0.278 HD
HETATM    3  H   UNL     1      39.311 -16.248   0.441  1.00  0.00     0.278 HD
ENDROOT
BRANCH   1   4
HETATM    4  C   UNL     1      41.077 -15.145   0.535  1.00  0.00     0.259 C 
BRANCH   4   5
HETATM    5  C   UNL     1      41.947 -16.305   0.996  1.00  0.00    -0.023 A 
HETATM    6  C   UNL     1      43.301 -16.151   1.342  1.00  0.00     0.010 A 
HETATM    7  C   UNL     1      44.044 -17.236   1.815  1.00  0.00     0.007 A 
HETATM    8  C   UNL     1      43.452 -18.494   1.966  1.00  0.00    -0.059 A 
HETATM    9  C   UNL     1      42.104 -18.653   1.635  1.00  0.00     0.007 A 
HETATM   10  C   UNL     1      41.360 -17.572   1.155  1.00  0.00     0.010 A 
BRANCH   8  11
HETATM   11  C   UNL     1      44.240 -19.647   2.539  1.00  0.00     0.034 C 
HETATM   12  C   UNL     1      43.807 -20.976   1.938  1.00  0.00     0.010 C 
ENDBRANCH   8  11
ENDBRANCH   4   5
BRANCH   4  13
HETATM   13  C   UNL     1      41.277 -14.801  -0.923  1.00  0.00     0.017 A 
HETATM   14  S   UNL     1      41.926 -13.259  -1.327  1.00  0.00    -0.104 SA
HETATM   15  C   UNL     1      41.842 -13.583  -3.000  1.00  0.00     0.050 A 
HETATM   16  C   UNL     1      41.322 -14.830  -3.258  1.00  0.00     0.008 A 
HETATM   17  C   UNL     1      40.992 -15.532  -2.063  1.00  0.00     0.017 A 
ENDBRANCH   4  13
ENDBRANCH   1   4
BRANCH   1  18
HETATM   18  C   UNL     1      39.132 -15.124   2.206  1.00  0.00     0.336 C 
BRANCH  18  19
HETATM   19  C   UNL     1      39.738 -13.834   2.741  1.00  0.00     0.248 C 
HETATM   20  N   UNL     1      40.747 -13.795   3.645  1.00  0.00    -0.326 N 
HETATM   21  H   UNL     1      40.944 -12.836   3.926  1.00  0.00     0.169 HD
HETATM   22  O   UNL     1      39.245 -12.769   2.343  1.00  0.00    -0.271 OA
BRANCH  20  23
HETATM   23  C   UNL     1      41.552 -14.776   4.257  1.00  0.00     0.037 A 
HETATM   24  C   UNL     1      41.200 -16.118   4.433  1.00  0.00     0.061 A 
HETATM   25  C   UNL     1      42.126 -16.935   5.050  1.00  0.00     0.065 A 
HETATM   26  C   UNL     1      43.366 -16.476   5.484  1.00  0.00     0.063 A 
HETATM   27  N   UNL     1      42.048 -18.291   5.346  1.00  0.00    -0.306 N 
HETATM   28  N   UNL     1      44.049 -17.545   6.050  1.00  0.00    -0.307 N 
HETATM   29  C   UNL     1      43.752 -15.173   5.321  1.00  0.00     0.034 A 
HETATM   30  C   UNL     1      43.242 -18.687   5.971  1.00  0.00     0.325 A 
HETATM   31  H   UNL     1      44.974 -17.543   6.453  1.00  0.00     0.170 HD
HETATM   32  O   UNL     1      43.513 -19.805   6.364  1.00  0.00    -0.247 OA
HETATM   33  C   UNL     1      42.829 -14.323   4.696  1.00  0.00     0.032 A 
HETATM   34  H   UNL     1      41.295 -18.935   5.164  1.00  0.00     0.170 HD
ENDBRANCH  20  23
ENDBRANCH  18  19
ENDBRANCH   1  18
TORSDOF 7
ENDMDL
MODEL 2
REMARK VINA RESULT:      -8.0      1.654      2.168
REMARK  7 active torsions:
REMARK  status: ('A' for Active; 'I' for Inactive)
REMARK    1  A    between atoms: C_2  and  C_3 
REMARK    2  A    between atoms: C_6  and  C_7 
REMARK    3  A    between atoms: C_7  and  N_8 
REMARK    4  A    between atoms: C_7  and  C_25 
REMARK    5  A    between atoms: N_8  and  C_11 
REMARK    6  A    between atoms: C_11  and  C_12 
REMARK       I    between atoms: C_12  and  N_13 
REMARK    7  A    between atoms: N_13  and  C_14 
ROOT
HETATM    1  N   UNL     1      40.598 -14.723   3.166  1.00  0.00    -0.054 N 
HETATM    2  H   UNL     1      39.686 -14.495   2.734  1.00  0.00     0.278 HD
HETATM    3  H   UNL     1      40.395 -15.594   3.668  1.00  0.00     0.278 HD
ENDROOT
BRANCH   1   4
HETATM    4  C   UNL     1      41.585 -14.964   2.076  1.00  0.00     0.259 C 
BRANCH   4   5
HETATM    5  C   UNL     1      42.214 -16.349   2.104  1.00  0.00    -0.023 A 
HETATM    6  C   UNL     1      41.478 -17.524   1.869  1.00  0.00     0.010 A 
HETATM    7  C   UNL     1      42.113 -18.769   1.849  1.00  0.00     0.007 A 
HETATM    8  C   UNL     1      43.494 -18.870   2.049  1.00  0.00    -0.059 A 
HETATM    9  C   UNL     1      44.232 -17.706   2.273  1.00  0.00     0.007 A 
HETATM   10  C   UNL     1      43.601 -16.460   2.301  1.00  0.00     0.010 A 
BRANCH   8  11
HETATM   11  C   UNL     1      44.184 -20.210   1.961  1.00  0.00     0.034 C 
HETATM   12  C   UNL     1      43.182 -21.353   1.886  1.00  0.00     0.010 C 
ENDBRANCH   8  11
ENDBRANCH   4   5
BRANCH   4  13
HETATM   13  C   UNL     1      40.942 -14.634   0.749  1.00  0.00     0.017 A 
HETATM   14  S   UNL     1      39.351 -13.978   0.740  1.00  0.00    -0.104 SA
HETATM   15  C   UNL     1      39.316 -13.899  -0.964  1.00  0.00     0.050 A 
HETATM   16  C   UNL     1      40.480 -14.370  -1.526  1.00  0.00     0.008 A 
HETATM   17  C   UNL     1      41.417 -14.798  -0.541  1.00  0.00     0.017 A 
ENDBRANCH   4  13
ENDBRANCH   1   4
BRANCH   1  18
HETATM   18  C   UNL     1      40.896 -13.611   4.142  1.00  0.00     0.336 C 
BRANCH  18  19
HETATM   19  C   UNL     1      40.281 -13.967   5.488  1.00  0.00     0.248 C 
HETATM   20  N   UNL     1      40.716 -14.988   6.268  1.00  0.00    -0.326 N 
HETATM   21  H   UNL     1      40.116 -15.100   7.084  1.00  0.00     0.169 HD
HETATM   22  O   UNL     1      39.308 -13.297   5.862  1.00  0.00    -0.271 OA
BRANCH  20  23
HETATM   23  C   UNL     1      41.789 -15.895   6.184  1.00  0.00     0.037 A 
HETATM   24  C   UNL     1      41.684 -17.242   5.820  1.00  0.00     0.061 A 
HETATM   25  C   UNL     1      42.852 -17.976   5.786  1.00  0.00     0.065 A 
HETATM   26  C   UNL     1      44.096 -17.430   6.089  1.00  0.00     0.063 A 
HETATM   27  N   UNL     1      43.045 -19.314   5.459  1.00  0.00    -0.306 N 
HETATM   28  N   UNL     1      45.051 -18.429   5.954  1.00  0.00    -0.307 N 
HETATM   29  C   UNL     1      44.241 -16.115   6.441  1.00  0.00     0.034 A 
HETATM   30  C   UNL     1      44.413 -19.612   5.559  1.00  0.00     0.325 A 
HETATM   31  H   UNL     1      46.047 -18.354   6.098  1.00  0.00     0.170 HD
HETATM   32  O   UNL     1      44.934 -20.689   5.343  1.00  0.00    -0.247 OA
HETATM   33  C   UNL     1      43.070 -15.348   6.481  1.00  0.00     0.032 A 
HETATM   34  H   UNL     1      42.362 -20.001   5.183  1.00  0.00     0.170 HD
ENDBRANCH  20  23
ENDBRANCH  18  19
ENDBRANCH   1  18
TORSDOF 7
ENDMDL
MODEL 3
REMARK VINA RESULT:      -7.9      2.695      5.343
REMARK  7 active torsions:
REMARK  status: ('A' for Active; 'I' for Inactive)
REMARK    1  A    between atoms: C_2  and  C_3 
REMARK    2  A    between atoms: C_6  and  C_7 
REMARK    3  A    between atoms: C_7  and  N_8 
REMARK    4  A    between atoms: C_7  and  C_25 
REMARK    5  A    between atoms: N_8  and  C_11 
REMARK    6  A    between atoms: C_11  and  C_12 
REMARK       I    between atoms: C_12  and  N_13 
REMARK    7  A    between atoms: N_13  and  C_14 
ROOT
HETATM    1  N   UNL     1      41.089 -14.477   3.131  1.00  0.00    -0.054 N 
HETATM    2  H   UNL     1      40.700 -13.641   2.663  1.00  0.00     0.278 HD
HETATM    3  H   UNL     1      42.088 -14.257   3.188  1.00  0.00     0.278 HD
ENDROOT
BRANCH   1   4
HETATM    4  C   UNL     1      40.494 -14.569   4.494  1.00  0.00     0.259 C 
BRANCH   4   5
HETATM    5  C   UNL     1      41.303 -15.412   5.467  1.00  0.00    -0.023 A 
HETATM    6  C   UNL     1      40.857 -16.655   5.952  1.00  0.00     0.010 A 
HETATM    7  C   UNL     1      41.663 -17.419   6.801  1.00  0.00     0.007 A 
HETATM    8  C   UNL     1      42.934 -16.970   7.175  1.00  0.00    -0.059 A 
HETATM    9  C   UNL     1      43.388 -15.741   6.689  1.00  0.00     0.007 A 
HETATM   10  C   UNL     1      42.583 -14.970   5.846  1.00  0.00     0.010 A 
BRANCH   8  11
HETATM   11  C   UNL     1      43.826 -17.828   8.038  1.00  0.00     0.034 C 
HETATM   12  C   UNL     1      43.820 -19.280   7.582  1.00  0.00     0.010 C 
ENDBRANCH   8  11
ENDBRANCH   4   5
BRANCH   4  13
HETATM   13  C   UNL     1      40.220 -13.174   5.007  1.00  0.00     0.017 A 
HETATM   14  S   UNL     1      40.847 -11.832   4.130  1.00  0.00    -0.104 SA
HETATM   15  C   UNL     1      40.195 -10.712   5.239  1.00  0.00     0.050 A 
HETATM   16  C   UNL     1      39.522 -11.334   6.265  1.00  0.00     0.008 A 
HETATM   17  C   UNL     1      39.539 -12.753   6.136  1.00  0.00     0.017 A 
ENDBRANCH   4  13
ENDBRANCH   1   4
BRANCH   1  18
HETATM   18  C   UNL     1      40.858 -15.636   2.191  1.00  0.00     0.336 C 
BRANCH  18  19
HETATM   19  C   UNL     1      41.915 -15.593   1.097  1.00  0.00     0.248 C 
HETATM   20  N   UNL     1      42.962 -16.452   1.027  1.00  0.00    -0.326 N 
HETATM   21  H   UNL     1      43.590 -16.197   0.267  1.00  0.00     0.169 HD
HETATM   22  O   UNL     1      41.818 -14.694   0.249  1.00  0.00    -0.271 OA
BRANCH  20  23
HETATM   23  C   UNL     1      43.348 -17.586   1.767  1.00  0.00     0.037 A 
HETATM   24  C   UNL     1      43.423 -18.891   1.268  1.00  0.00     0.061 A 
HETATM   25  C   UNL     1      43.832 -19.876   2.144  1.00  0.00     0.065 A 
HETATM   26  C   UNL     1      44.167 -19.615   3.469  1.00  0.00     0.063 A 
HETATM   27  N   UNL     1      43.999 -21.239   1.925  1.00  0.00    -0.306 N 
HETATM   28  N   UNL     1      44.536 -20.814   4.066  1.00  0.00    -0.307 N 
HETATM   29  C   UNL     1      44.117 -18.351   3.992  1.00  0.00     0.034 A 
HETATM   30  C   UNL     1      44.439 -21.839   3.116  1.00  0.00     0.325 A 
HETATM   31  H   UNL     1      44.838 -20.962   5.017  1.00  0.00     0.170 HD
HETATM   32  O   UNL     1      44.685 -23.017   3.281  1.00  0.00    -0.247 OA
HETATM   33  C   UNL     1      43.706 -17.333   3.122  1.00  0.00     0.032 A 
HETATM   34  H   UNL     1      43.852 -21.765   1.079  1.00  0.00     0.170 HD
ENDBRANCH  20  23
ENDBRANCH  18  19
ENDBRANCH   1  18
TORSDOF 7
ENDMDL
MODEL 4
REMARK VINA RESULT:      -7.9      3.045      6.311
REMARK  7 active torsions:
REMARK  status: ('A' for Active; 'I' for Inactive)
REMARK    1  A    between atoms: C_2  and  C_3 
REMARK    2  A    between atoms: C_6  and  C_7 
REMARK    3  A    between atoms: C_7  and  N_8 
REMARK    4  A    between atoms: C_7  and  C_25 
REMARK    5  A    between atoms: N_8  and  C_11 
REMARK    6  A    between atoms: C_11  and  C_12 
REMARK       I    between atoms: C_12  and  N_13 
REMARK    7  A    between atoms: N_13  and  C_14 
ROOT
HETATM    1  N   UNL     1      45.111 -18.700   5.136  1.00  0.00    -0.054 N 
HETATM    2  H   UNL     1      45.675 -19.550   5.300  1.00  0.00     0.278 HD
HETATM    3  H   UNL     1      45.693 -18.167   4.482  1.00  0.00     0.278 HD
ENDROOT
BRANCH   1   4
HETATM    4  C   UNL     1      43.831 -19.105   4.489  1.00  0.00     0.259 C 
BRANCH   4   5
HETATM    5  C   UNL     1      43.145 -17.987   3.719  1.00  0.00    -0.023 A 
HETATM    6  C   UNL     1      41.759 -17.966   3.481  1.00  0.00     0.010 A 
HETATM    7  C   UNL     1      41.166 -16.888   2.818  1.00  0.00     0.007 A 
HETATM    8  C   UNL     1      41.937 -15.802   2.390  1.00  0.00    -0.059 A 
HETATM    9  C   UNL     1      43.313 -15.811   2.633  1.00  0.00     0.007 A 
HETATM   10  C   UNL     1      43.911 -16.890   3.289  1.00  0.00     0.010 A 
BRANCH   8  11
HETATM   11  C   UNL     1      41.283 -14.610   1.734  1.00  0.00     0.034 C 
HETATM   12  C   UNL     1      42.188 -13.388   1.761  1.00  0.00     0.010 C 
ENDBRANCH   8  11
ENDBRANCH   4   5
BRANCH   4  13
HETATM   13  C   UNL     1      44.074 -20.337   3.649  1.00  0.00     0.017 A 
HETATM   14  S   UNL     1      44.679 -21.755   4.414  1.00  0.00    -0.104 SA
HETATM   15  C   UNL     1      44.703 -22.624   2.947  1.00  0.00     0.050 A 
HETATM   16  C   UNL     1      44.273 -21.859   1.887  1.00  0.00     0.008 A 
HETATM   17  C   UNL     1      43.913 -20.540   2.289  1.00  0.00     0.017 A 
ENDBRANCH   4  13
ENDBRANCH   1   4
BRANCH   1  18
HETATM   18  C   UNL     1      45.024 -17.985   6.463  1.00  0.00     0.336 C 
BRANCH  18  19
HETATM   19  C   UNL     1      43.779 -18.466   7.194  1.00  0.00     0.248 C 
HETATM   20  N   UNL     1      42.630 -17.750   7.277  1.00  0.00    -0.326 N 
HETATM   21  H   UNL     1      41.954 -18.219   7.877  1.00  0.00     0.169 HD
HETATM   22  O   UNL     1      43.847 -19.562   7.769  1.00  0.00    -0.271 OA
BRANCH  20  23
HETATM   23  C   UNL     1      42.195 -16.530   6.725  1.00  0.00     0.037 A 
HETATM   24  C   UNL     1      40.876 -16.225   6.375  1.00  0.00     0.061 A 
HETATM   25  C   UNL     1      40.639 -14.969   5.852  1.00  0.00     0.065 A 
HETATM   26  C   UNL     1      41.645 -14.024   5.674  1.00  0.00     0.063 A 
HETATM   27  N   UNL     1      39.442 -14.401   5.428  1.00  0.00    -0.306 N 
HETATM   28  N   UNL     1      41.072 -12.878   5.137  1.00  0.00    -0.307 N 
HETATM   29  C   UNL     1      42.946 -14.281   6.013  1.00  0.00     0.034 A 
HETATM   30  C   UNL     1      39.696 -13.095   4.979  1.00  0.00     0.325 A 
HETATM   31  H   UNL     1      41.531 -12.013   4.897  1.00  0.00     0.170 HD
HETATM   32  O   UNL     1      38.876 -12.312   4.541  1.00  0.00    -0.247 OA
HETATM   33  C   UNL     1      43.212 -15.548   6.547  1.00  0.00     0.032 A 
HETATM   34  H   UNL     1      38.519 -14.802   5.425  1.00  0.00     0.170 HD
ENDBRANCH  20  23
ENDBRANCH  18  19
ENDBRANCH   1  18
TORSDOF 7
ENDMDL
MODEL 5
REMARK VINA RESULT:      -7.8      3.004      6.952
REMARK  7 active torsions:
REMARK  status: ('A' for Active; 'I' for Inactive)
REMARK    1  A    between atoms: C_2  and  C_3 
REMARK    2  A    between atoms: C_6  and  C_7 
REMARK    3  A    between atoms: C_7  and  N_8 
REMARK    4  A    between atoms: C_7  and  C_25 
REMARK    5  A    between atoms: N_8  and  C_11 
REMARK    6  A    between atoms: C_11  and  C_12 
REMARK       I    between atoms: C_12  and  N_13 
REMARK    7  A    between atoms: N_13  and  C_14 
ROOT
HETATM    1  N   UNL     1      41.532 -15.603   1.700  1.00  0.00    -0.054 N 
HETATM    2  H   UNL     1      42.478 -15.451   1.314  1.00  0.00     0.278 HD
HETATM    3  H   UNL     1      41.119 -16.261   1.031  1.00  0.00     0.278 HD
ENDROOT
BRANCH   1   4
HETATM    4  C   UNL     1      41.670 -16.239   3.041  1.00  0.00     0.259 C 
BRANCH   4   5
HETATM    5  C   UNL     1      42.487 -17.522   3.038  1.00  0.00    -0.023 A 
HETATM    6  C   UNL     1      43.160 -17.999   4.176  1.00  0.00     0.010 A 
HETATM    7  C   UNL     1      43.851 -19.214   4.139  1.00  0.00     0.007 A 
HETATM    8  C   UNL     1      43.875 -19.985   2.973  1.00  0.00    -0.059 A 
HETATM    9  C   UNL     1      43.200 -19.522   1.840  1.00  0.00     0.007 A 
HETATM   10  C   UNL     1      42.515 -18.305   1.871  1.00  0.00     0.010 A 
BRANCH   8  11
HETATM   11  C   UNL     1      44.567 -21.326   2.957  1.00  0.00     0.034 C 
HETATM   12  C   UNL     1      44.350 -22.054   1.638  1.00  0.00     0.010 C 
ENDBRANCH   8  11
ENDBRANCH   4   5
BRANCH   4  13
HETATM   13  C   UNL     1      42.189 -15.211   4.021  1.00  0.00     0.017 A 
HETATM   14  S   UNL     1      41.161 -14.696   5.302  1.00  0.00    -0.104 SA
HETATM   15  C   UNL     1      42.337 -13.621   5.909  1.00  0.00     0.050 A 
HETATM   16  C   UNL     1      43.488 -13.636   5.156  1.00  0.00     0.008 A 
HETATM   17  C   UNL     1      43.403 -14.549   4.064  1.00  0.00     0.017 A 
ENDBRANCH   4  13
ENDBRANCH   1   4
BRANCH   1  18
HETATM   18  C   UNL     1      40.825 -14.270   1.632  1.00  0.00     0.336 C 
BRANCH  18  19
HETATM   19  C   UNL     1      41.656 -13.323   0.779  1.00  0.00     0.248 C 
HETATM   20  N   UNL     1      41.526 -13.210  -0.566  1.00  0.00    -0.326 N 
HETATM   21  H   UNL     1      42.231 -12.581  -0.946  1.00  0.00     0.169 HD
HETATM   22  O   UNL     1      42.520 -12.649   1.358  1.00  0.00    -0.271 OA
BRANCH  20  23
HETATM   23  C   UNL     1      40.647 -13.766  -1.515  1.00  0.00     0.037 A 
HETATM   24  C   UNL     1      39.376 -13.274  -1.828  1.00  0.00     0.061 A 
HETATM   25  C   UNL     1      38.660 -13.951  -2.795  1.00  0.00     0.065 A 
HETATM   26  C   UNL     1      39.155 -15.073  -3.452  1.00  0.00     0.063 A 
HETATM   27  N   UNL     1      37.392 -13.687  -3.302  1.00  0.00    -0.306 N 
HETATM   28  N   UNL     1      38.194 -15.502  -4.359  1.00  0.00    -0.307 N 
HETATM   29  C   UNL     1      40.398 -15.579  -3.182  1.00  0.00     0.034 A 
HETATM   30  C   UNL     1      37.087 -14.647  -4.279  1.00  0.00     0.325 A 
HETATM   31  H   UNL     1      38.249 -16.286  -4.991  1.00  0.00     0.170 HD
HETATM   32  O   UNL     1      36.060 -14.715  -4.926  1.00  0.00    -0.247 OA
HETATM   33  C   UNL     1      41.145 -14.909  -2.205  1.00  0.00     0.032 A 
HETATM   34  H   UNL     1      36.756 -12.946  -3.055  1.00  0.00     0.170 HD
ENDBRANCH  20  23
ENDBRANCH  18  19
ENDBRANCH   1  18
TORSDOF 7
ENDMDL
MODEL 6
REMARK VINA RESULT:      -7.8      2.368      4.913
REMARK  7 active torsions:
REMARK  status: ('A' for Active; 'I' for Inactive)
REMARK    1  A    between atoms: C_2  and  C_3 
REMARK    2  A    between atoms: C_6  and  C_7 
REMARK    3  A    between atoms: C_7  and  N_8 
REMARK    4  A    between atoms: C_7  and  C_25 
REMARK    5  A    between atoms: N_8  and  C_11 
REMARK    6  A    between atoms: C_11  and  C_12 
REMARK       I    between atoms: C_12  and  N_13 
REMARK    7  A    between atoms: N_13  and  C_14 
ROOT
HETATM    1  N   UNL     1      40.268 -14.932   1.811  1.00  0.00    -0.054 N 
HETATM    2  H   UNL     1      39.516 -14.677   1.149  1.00  0.00     0.278 HD
HETATM    3  H   UNL     1      41.056 -14.363   1.485  1.00  0.00     0.278 HD
ENDROOT
BRANCH   1   4
HETATM    4  C   UNL     1      39.850 -14.515   3.179  1.00  0.00     0.259 C 
BRANCH   4   5
HETATM    5  C   UNL     1      40.947 -14.634   4.226  1.00  0.00    -0.023 A 
HETATM    6  C   UNL     1      40.842 -15.479   5.345  1.00  0.00     0.010 A 
HETATM    7  C   UNL     1      41.901 -15.598   6.249  1.00  0.00     0.007 A 
HETATM    8  C   UNL     1      43.091 -14.889   6.052  1.00  0.00    -0.059 A 
HETATM    9  C   UNL     1      43.206 -14.055   4.937  1.00  0.00     0.007 A 
HETATM   10  C   UNL     1      42.147 -13.928   4.034  1.00  0.00     0.010 A 
BRANCH   8  11
HETATM   11  C   UNL     1      44.255 -15.071   6.996  1.00  0.00     0.034 C 
HETATM   12  C   UNL     1      45.188 -13.869   6.973  1.00  0.00     0.010 C 
ENDBRANCH   8  11
ENDBRANCH   4   5
BRANCH   4  13
HETATM   13  C   UNL     1      39.249 -13.130   3.108  1.00  0.00     0.017 A 
HETATM   14  S   UNL     1      38.622 -12.575   1.604  1.00  0.00    -0.104 SA
HETATM   15  C   UNL     1      38.179 -11.065   2.264  1.00  0.00     0.050 A 
HETATM   16  C   UNL     1      38.508 -10.969   3.597  1.00  0.00     0.008 A 
HETATM   17  C   UNL     1      39.128 -12.156   4.084  1.00  0.00     0.017 A 
ENDBRANCH   4  13
ENDBRANCH   1   4
BRANCH   1  18
HETATM   18  C   UNL     1      40.551 -16.399   1.587  1.00  0.00     0.336 C 
BRANCH  18  19
HETATM   19  C   UNL     1      41.673 -16.527   0.566  1.00  0.00     0.248 C 
HETATM   20  N   UNL     1      42.830 -17.195   0.799  1.00  0.00    -0.326 N 
HETATM   21  H   UNL     1      43.473 -17.089   0.016  1.00  0.00     0.169 HD
HETATM   22  O   UNL     1      41.518 -15.953  -0.521  1.00  0.00    -0.271 OA
BRANCH  20  23
HETATM   23  C   UNL     1      43.310 -17.978   1.866  1.00  0.00     0.037 A 
HETATM   24  C   UNL     1      43.609 -19.343   1.798  1.00  0.00     0.061 A 
HETATM   25  C   UNL     1      44.079 -19.941   2.950  1.00  0.00     0.065 A 
HETATM   26  C   UNL     1      44.265 -19.245   4.140  1.00  0.00     0.063 A 
HETATM   27  N   UNL     1      44.455 -21.262   3.168  1.00  0.00    -0.306 N 
HETATM   28  N   UNL     1      44.749 -20.134   5.091  1.00  0.00    -0.307 N 
HETATM   29  C   UNL     1      43.994 -17.907   4.244  1.00  0.00     0.034 A 
HETATM   30  C   UNL     1      44.876 -21.398   4.501  1.00  0.00     0.325 A 
HETATM   31  H   UNL     1      44.990 -19.940   6.051  1.00  0.00     0.170 HD
HETATM   32  O   UNL     1      45.272 -22.418   5.031  1.00  0.00    -0.247 OA
HETATM   33  C   UNL     1      43.516 -17.276   3.088  1.00  0.00     0.032 A 
HETATM   34  H   UNL     1      44.454 -22.034   2.521  1.00  0.00     0.170 HD
ENDBRANCH  20  23
ENDBRANCH  18  19
ENDBRANCH   1  18
TORSDOF 7
ENDMDL
MODEL 7
REMARK VINA RESULT:      -7.4      2.795      5.715
REMARK  7 active torsions:
REMARK  status: ('A' for Active; 'I' for Inactive)
REMARK    1  A    between atoms: C_2  and  C_3 
REMARK    2  A    between atoms: C_6  and  C_7 
REMARK    3  A    between atoms: C_7  and  N_8 
REMARK    4  A    between atoms: C_7  and  C_25 
REMARK    5  A    between atoms: N_8  and  C_11 
REMARK    6  A    between atoms: C_11  and  C_12 
REMARK       I    between atoms: C_12  and  N_13 
REMARK    7  A    between atoms: N_13  and  C_14 
ROOT
HETATM    1  N   UNL     1      41.328 -16.757   5.579  1.00  0.00    -0.054 N 
HETATM    2  H   UNL     1      40.327 -16.629   5.805  1.00  0.00     0.278 HD
HETATM    3  H   UNL     1      41.320 -17.600   4.995  1.00  0.00     0.278 HD
ENDROOT
BRANCH   1   4
HETATM    4  C   UNL     1      41.784 -15.578   4.790  1.00  0.00     0.259 C 
BRANCH   4   5
HETATM    5  C   UNL     1      41.676 -15.760   3.284  1.00  0.00    -0.023 A 
HETATM    6  C   UNL     1      41.029 -16.860   2.694  1.00  0.00     0.010 A 
HETATM    7  C   UNL     1      40.906 -16.954   1.305  1.00  0.00     0.007 A 
HETATM    8  C   UNL     1      41.413 -15.949   0.475  1.00  0.00    -0.059 A 
HETATM    9  C   UNL     1      42.048 -14.848   1.054  1.00  0.00     0.007 A 
HETATM   10  C   UNL     1      42.179 -14.754   2.442  1.00  0.00     0.010 A 
BRANCH   8  11
HETATM   11  C   UNL     1      41.220 -16.022  -1.021  1.00  0.00     0.034 C 
HETATM   12  C   UNL     1      40.556 -14.765  -1.563  1.00  0.00     0.010 C 
ENDBRANCH   8  11
ENDBRANCH   4   5
BRANCH   4  13
HETATM   13  C   UNL     1      41.065 -14.345   5.289  1.00  0.00     0.017 A 
HETATM   14  S   UNL     1      41.996 -12.963   5.722  1.00  0.00    -0.104 SA
HETATM   15  C   UNL     1      40.606 -12.077   6.162  1.00  0.00     0.050 A 
HETATM   16  C   UNL     1      39.454 -12.810   5.999  1.00  0.00     0.008 A 
HETATM   17  C   UNL     1      39.716 -14.119   5.499  1.00  0.00     0.017 A 
ENDBRANCH   4  13
ENDBRANCH   1   4
BRANCH   1  18
HETATM   18  C   UNL     1      42.028 -17.031   6.889  1.00  0.00     0.336 C 
BRANCH  18  19
HETATM   19  C   UNL     1      43.485 -16.614   6.758  1.00  0.00     0.248 C 
HETATM   20  N   UNL     1      44.424 -17.350   6.114  1.00  0.00    -0.326 N 
HETATM   21  H   UNL     1      45.346 -16.928   6.215  1.00  0.00     0.169 HD
HETATM   22  O   UNL     1      43.823 -15.556   7.307  1.00  0.00    -0.271 OA
BRANCH  20  23
HETATM   23  C   UNL     1      44.389 -18.539   5.360  1.00  0.00     0.037 A 
HETATM   24  C   UNL     1      44.187 -18.616   3.978  1.00  0.00     0.061 A 
HETATM   25  C   UNL     1      44.193 -19.874   3.411  1.00  0.00     0.065 A 
HETATM   26  C   UNL     1      44.395 -21.035   4.153  1.00  0.00     0.063 A 
HETATM   27  N   UNL     1      44.025 -20.245   2.081  1.00  0.00    -0.306 N 
HETATM   28  N   UNL     1      44.346 -22.117   3.284  1.00  0.00    -0.307 N 
HETATM   29  C   UNL     1      44.606 -21.001   5.505  1.00  0.00     0.034 A 
HETATM   30  C   UNL     1      44.118 -21.642   1.986  1.00  0.00     0.325 A 
HETATM   31  H   UNL     1      44.461 -23.094   3.508  1.00  0.00     0.170 HD
HETATM   32  O   UNL     1      44.019 -22.303   0.970  1.00  0.00    -0.247 OA
HETATM   33  C   UNL     1      44.606 -19.734   6.104  1.00  0.00     0.032 A 
HETATM   34  H   UNL     1      43.866 -19.658   1.278  1.00  0.00     0.170 HD
ENDBRANCH  20  23
ENDBRANCH  18  19
ENDBRANCH   1  18
TORSDOF 7
ENDMDL
MODEL 8
REMARK VINA RESULT:      -7.4      2.901      6.767
REMARK  7 active torsions:
REMARK  status: ('A' for Active; 'I' for Inactive)
REMARK    1  A    between atoms: C_2  and  C_3 
REMARK    2  A    between atoms: C_6  and  C_7 
REMARK    3  A    between atoms: C_7  and  N_8 
REMARK    4  A    between atoms: C_7  and  C_25 
REMARK    5  A    between atoms: N_8  and  C_11 
REMARK    6  A    between atoms: C_11  and  C_12 
REMARK       I    between atoms: C_12  and  N_13 
REMARK    7  A    between atoms: N_13  and  C_14 
ROOT
HETATM    1  N   UNL     1      42.109 -15.408   3.182  1.00  0.00    -0.054 N 
HETATM    2  H   UNL     1      42.594 -14.512   3.358  1.00  0.00     0.278 HD
HETATM    3  H   UNL     1      42.546 -15.733   2.314  1.00  0.00     0.278 HD
ENDROOT
BRANCH   1   4
HETATM    4  C   UNL     1      42.421 -16.337   4.305  1.00  0.00     0.259 C 
BRANCH   4   5
HETATM    5  C   UNL     1      43.105 -17.625   3.872  1.00  0.00    -0.023 A 
HETATM    6  C   UNL     1      43.651 -18.542   4.788  1.00  0.00     0.010 A 
HETATM    7  C   UNL     1      44.219 -19.740   4.345  1.00  0.00     0.007 A 
HETATM    8  C   UNL     1      44.243 -20.056   2.982  1.00  0.00    -0.059 A 
HETATM    9  C   UNL     1      43.693 -19.155   2.067  1.00  0.00     0.007 A 
HETATM   10  C   UNL     1      43.131 -17.953   2.506  1.00  0.00     0.010 A 
BRANCH   8  11
HETATM   11  C   UNL     1      44.798 -21.380   2.514  1.00  0.00     0.034 C 
HETATM   12  C   UNL     1      43.968 -21.966   1.382  1.00  0.00     0.010 C 
ENDBRANCH   8  11
ENDBRANCH   4   5
BRANCH   4  13
HETATM   13  C   UNL     1      43.194 -15.585   5.365  1.00  0.00     0.017 A 
HETATM   14  S   UNL     1      43.791 -14.014   4.995  1.00  0.00    -0.104 SA
HETATM   15  C   UNL     1      44.500 -13.843   6.538  1.00  0.00     0.050 A 
HETATM   16  C   UNL     1      44.303 -14.956   7.322  1.00  0.00     0.008 A 
HETATM   17  C   UNL     1      43.554 -15.963   6.646  1.00  0.00     0.017 A 
ENDBRANCH   4  13
ENDBRANCH   1   4
BRANCH   1  18
HETATM   18  C   UNL     1      40.658 -15.067   2.944  1.00  0.00     0.336 C 
BRANCH  18  19
HETATM   19  C   UNL     1      40.140 -15.917   1.793  1.00  0.00     0.248 C 
HETATM   20  N   UNL     1      40.003 -15.461   0.523  1.00  0.00    -0.326 N 
HETATM   21  H   UNL     1      39.566 -16.166  -0.069  1.00  0.00     0.169 HD
HETATM   22  O   UNL     1      39.798 -17.078   2.055  1.00  0.00    -0.271 OA
BRANCH  20  23
HETATM   23  C   UNL     1      40.327 -14.253  -0.124  1.00  0.00     0.037 A 
HETATM   24  C   UNL     1      41.623 -13.797  -0.386  1.00  0.00     0.061 A 
HETATM   25  C   UNL     1      41.744 -12.588  -1.041  1.00  0.00     0.065 A 
HETATM   26  C   UNL     1      40.645 -11.835  -1.441  1.00  0.00     0.063 A 
HETATM   27  N   UNL     1      42.891 -11.905  -1.429  1.00  0.00    -0.306 N 
HETATM   28  N   UNL     1      41.112 -10.688  -2.070  1.00  0.00    -0.307 N 
HETATM   29  C   UNL     1      39.361 -12.251  -1.213  1.00  0.00     0.034 A 
HETATM   30  C   UNL     1      42.513 -10.716  -2.073  1.00  0.00     0.325 A 
HETATM   31  H   UNL     1      40.569  -9.942  -2.478  1.00  0.00     0.170 HD
HETATM   32  O   UNL     1      43.262  -9.880  -2.540  1.00  0.00    -0.247 OA
HETATM   33  C   UNL     1      39.212 -13.476  -0.551  1.00  0.00     0.032 A 
HETATM   34  H   UNL     1      43.855 -12.167  -1.303  1.00  0.00     0.170 HD
ENDBRANCH  20  23
ENDBRANCH  18  19
ENDBRANCH   1  18
TORSDOF 7
ENDMDL
MODEL 9
REMARK VINA RESULT:      -7.2      2.605      6.473
REMARK  7 active torsions:
REMARK  status: ('A' for Active; 'I' for Inactive)
REMARK    1  A    between atoms: C_2  and  C_3 
REMARK    2  A    between atoms: C_6  and  C_7 
REMARK    3  A    between atoms: C_7  and  N_8 
REMARK    4  A    between atoms: C_7  and  C_25 
REMARK    5  A    between atoms: N_8  and  C_11 
REMARK    6  A    between atoms: C_11  and  C_12 
REMARK       I    between atoms: C_12  and  N_13 
REMARK    7  A    between atoms: N_13  and  C_14 
ROOT
HETATM    1  N   UNL     1      44.928 -18.194   5.834  1.00  0.00    -0.054 N 
HETATM    2  H   UNL     1      45.207 -18.726   6.675  1.00  0.00     0.278 HD
HETATM    3  H   UNL     1      45.765 -18.249   5.246  1.00  0.00     0.278 HD
ENDROOT
BRANCH   1   4
HETATM    4  C   UNL     1      43.787 -18.902   5.189  1.00  0.00     0.259 C 
BRANCH   4   5
HETATM    5  C   UNL     1      43.181 -18.157   4.009  1.00  0.00    -0.023 A 
HETATM    6  C   UNL     1      43.955 -17.648   2.951  1.00  0.00     0.010 A 
HETATM    7  C   UNL     1      43.347 -17.020   1.860  1.00  0.00     0.007 A 
HETATM    8  C   UNL     1      41.955 -16.896   1.794  1.00  0.00    -0.059 A 
HETATM    9  C   UNL     1      41.179 -17.408   2.837  1.00  0.00     0.007 A 
HETATM   10  C   UNL     1      41.783 -18.030   3.932  1.00  0.00     0.010 A 
BRANCH   8  11
HETATM   11  C   UNL     1      41.299 -16.276   0.584  1.00  0.00     0.034 C 
HETATM   12  C   UNL     1      41.914 -14.927   0.242  1.00  0.00     0.010 C 
ENDBRANCH   8  11
ENDBRANCH   4   5
BRANCH   4  13
HETATM   13  C   UNL     1      44.215 -20.309   4.840  1.00  0.00     0.017 A 
HETATM   14  S   UNL     1      44.384 -20.736   3.181  1.00  0.00    -0.104 SA
HETATM   15  C   UNL     1      44.833 -22.337   3.565  1.00  0.00     0.050 A 
HETATM   16  C   UNL     1      44.847 -22.557   4.923  1.00  0.00     0.008 A 
HETATM   17  C   UNL     1      44.487 -21.391   5.660  1.00  0.00     0.017 A 
ENDBRANCH   4  13
ENDBRANCH   1   4
BRANCH   1  18
HETATM   18  C   UNL     1      44.697 -16.772   6.288  1.00  0.00     0.336 C 
BRANCH  18  19
HETATM   19  C   UNL     1      43.519 -16.754   7.251  1.00  0.00     0.248 C 
HETATM   20  N   UNL     1      42.395 -16.022   7.052  1.00  0.00    -0.326 N 
HETATM   21  H   UNL     1      41.771 -16.092   7.854  1.00  0.00     0.169 HD
HETATM   22  O   UNL     1      43.624 -17.426   8.287  1.00  0.00    -0.271 OA
BRANCH  20  23
HETATM   23  C   UNL     1      41.930 -15.209   6.001  1.00  0.00     0.037 A 
HETATM   24  C   UNL     1      42.734 -14.430   5.162  1.00  0.00     0.061 A 
HETATM   25  C   UNL     1      42.096 -13.703   4.177  1.00  0.00     0.065 A 
HETATM   26  C   UNL     1      40.716 -13.725   3.997  1.00  0.00     0.063 A 
HETATM   27  N   UNL     1      42.635 -12.859   3.213  1.00  0.00    -0.306 N 
HETATM   28  N   UNL     1      40.405 -12.895   2.928  1.00  0.00    -0.307 N 
HETATM   29  C   UNL     1      39.896 -14.482   4.791  1.00  0.00     0.034 A 
HETATM   30  C   UNL     1      41.592 -12.346   2.425  1.00  0.00     0.325 A 
HETATM   31  H   UNL     1      39.494 -12.699   2.543  1.00  0.00     0.170 HD
HETATM   32  O   UNL     1      41.706 -11.578   1.490  1.00  0.00    -0.247 OA
HETATM   33  C   UNL     1      40.520 -15.231   5.796  1.00  0.00     0.032 A 
HETATM   34  H   UNL     1      43.601 -12.620   3.052  1.00  0.00     0.170 HD
ENDBRANCH  20  23
ENDBRANCH  18  19
ENDBRANCH   1  18
TORSDOF 7
ENDMDL
MODEL 10
REMARK VINA RESULT:      -7.1      2.607      5.587
REMARK  7 active torsions:
REMARK  status: ('A' for Active; 'I' for Inactive)
REMARK    1  A    between atoms: C_2  and  C_3 
REMARK    2  A    between atoms: C_6  and  C_7 
REMARK    3  A    between atoms: C_7  and  N_8 
REMARK    4  A    between atoms: C_7  and  C_25 
REMARK    5  A    between atoms: N_8  and  C_11 
REMARK    6  A    between atoms: C_11  and  C_12 
REMARK       I    between atoms: C_12  and  N_13 
REMARK    7  A    between atoms: N_13  and  C_14 
ROOT
HETATM    1  N   UNL     1      43.322 -15.490   4.337  1.00  0.00    -0.054 N 
HETATM    2  H   UNL     1      42.312 -15.539   4.550  1.00  0.00     0.278 HD
HETATM    3  H   UNL     1      43.753 -15.707   5.241  1.00  0.00     0.278 HD
ENDROOT
BRANCH   1   4
HETATM    4  C   UNL     1      43.641 -16.547   3.337  1.00  0.00     0.259 C 
BRANCH   4   5
HETATM    5  C   UNL     1      43.999 -17.893   3.950  1.00  0.00    -0.023 A 
HETATM    6  C   UNL     1      44.137 -18.085   5.336  1.00  0.00     0.010 A 
HETATM    7  C   UNL     1      44.410 -19.354   5.855  1.00  0.00     0.007 A 
HETATM    8  C   UNL     1      44.539 -20.459   5.008  1.00  0.00    -0.059 A 
HETATM    9  C   UNL     1      44.392 -20.277   3.630  1.00  0.00     0.007 A 
HETATM   10  C   UNL     1      44.126 -19.010   3.107  1.00  0.00     0.010 A 
BRANCH   8  11
HETATM   11  C   UNL     1      44.768 -21.838   5.578  1.00  0.00     0.034 C 
HETATM   12  C   UNL     1      44.758 -22.903   4.492  1.00  0.00     0.010 C 
ENDBRANCH   8  11
ENDBRANCH   4   5
BRANCH   4  13
HETATM   13  C   UNL     1      42.511 -16.636   2.337  1.00  0.00     0.017 A 
HETATM   14  S   UNL     1      40.892 -16.666   2.919  1.00  0.00    -0.104 SA
HETATM   15  C   UNL     1      40.252 -16.781   1.341  1.00  0.00     0.050 A 
HETATM   16  C   UNL     1      41.240 -16.809   0.385  1.00  0.00     0.008 A 
HETATM   17  C   UNL     1      42.543 -16.729   0.956  1.00  0.00     0.017 A 
ENDBRANCH   4  13
ENDBRANCH   1   4
BRANCH   1  18
HETATM   18  C   UNL     1      43.605 -14.058   3.950  1.00  0.00     0.336 C 
BRANCH  18  19
HETATM   19  C   UNL     1      42.449 -13.188   4.423  1.00  0.00     0.248 C 
HETATM   20  N   UNL     1      41.461 -12.741   3.609  1.00  0.00    -0.326 N 
HETATM   21  H   UNL     1      40.836 -12.112   4.110  1.00  0.00     0.169 HD
HETATM   22  O   UNL     1      42.444 -12.852   5.615  1.00  0.00    -0.271 OA
BRANCH  20  23
HETATM   23  C   UNL     1      41.133 -12.958   2.257  1.00  0.00     0.037 A 
HETATM   24  C   UNL     1      42.053 -13.083   1.210  1.00  0.00     0.061 A 
HETATM   25  C   UNL     1      41.542 -13.302  -0.053  1.00  0.00     0.065 A 
HETATM   26  C   UNL     1      40.178 -13.406  -0.307  1.00  0.00     0.063 A 
HETATM   27  N   UNL     1      42.212 -13.467  -1.261  1.00  0.00    -0.306 N 
HETATM   28  N   UNL     1      40.006 -13.629  -1.667  1.00  0.00    -0.307 N 
HETATM   29  C   UNL     1      39.246 -13.299   0.691  1.00  0.00     0.034 A 
HETATM   30  C   UNL     1      41.267 -13.673  -2.278  1.00  0.00     0.325 A 
HETATM   31  H   UNL     1      39.140 -13.754  -2.168  1.00  0.00     0.170 HD
HETATM   32  O   UNL     1      41.505 -13.852  -3.457  1.00  0.00    -0.247 OA
HETATM   33  C   UNL     1      39.740 -13.078   1.982  1.00  0.00     0.032 A 
HETATM   34  H   UNL     1      43.203 -13.458  -1.439  1.00  0.00     0.170 HD
ENDBRANCH  20  23
ENDBRANCH  18  19
ENDBRANCH   1  18
TORSDOF 7
ENDMDL
