MODEL 1
REMARK VINA RESULT:      -7.4      0.000      0.000
REMARK  4 active torsions:
REMARK  status: ('A' for Active; 'I' for Inactive)
REMARK    1  A    between atoms: C_8  and  N_9 
REMARK    2  A    between atoms: C_11  and  C_12 
REMARK    3  A    between atoms: C_13  and  O_14 
REMARK    4  A    between atoms: O_14  and  C_15 
ROOT
HETATM    1  C   UNL     1      43.767 -17.266   2.704  1.00  0.00     0.002 A 
HETATM    2  C   UNL     1      42.836 -16.514   3.430  1.00  0.00     0.034 A 
HETATM    3  C   UNL     1      41.794 -15.883   2.737  1.00  0.00     0.103 A 
HETATM    4  C   UNL     1      41.712 -16.017   1.354  1.00  0.00     0.083 A 
HETATM    5  N   UNL     1      40.615 -15.265   1.033  1.00  0.00    -0.151 N 
HETATM    6  C   UNL     1      40.046 -14.759   2.174  1.00  0.00     0.734 A 
HETATM    7  N   UNL     1      38.909 -14.028   2.164  1.00  0.00    -0.033 NA
HETATM    8  C   UNL     1      38.281 -13.874   1.055  1.00  0.00     0.193 C 
HETATM    9  N   UNL     1      38.714 -14.369  -0.179  1.00  0.00    -0.338 N 
HETATM   10  C   UNL     1      40.017 -15.025  -0.263  1.00  0.00     0.246 C 
HETATM   11  N   UNL     1      40.769 -15.106   3.216  1.00  0.00    -0.060 NA
HETATM   12  C   UNL     1      42.627 -16.766   0.606  1.00  0.00     0.033 A 
HETATM   13  C   UNL     1      43.660 -17.388   1.317  1.00  0.00     0.002 A 
HETATM   14  H   UNL     1      38.206 -14.180  -1.027  1.00  0.00     0.164 HD
ENDROOT
BRANCH  10  15
HETATM   15  C   UNL     1      40.885 -14.189  -1.202  1.00  0.00     0.020 A 
HETATM   16  C   UNL     1      41.009 -14.573  -2.558  1.00  0.00     0.085 A 
HETATM   17  C   UNL     1      41.834 -13.845  -3.422  1.00  0.00     0.039 A 
HETATM   18  C   UNL     1      42.513 -12.714  -2.962  1.00  0.00     0.022 A 
HETATM   19  C   UNL     1      42.359 -12.301  -1.645  1.00  0.00     0.011 A 
HETATM   20 BR   UNL     1      43.265 -10.760  -1.032  1.00  0.00    -0.051 Br
HETATM   21  C   UNL     1      41.548 -13.021  -0.770  1.00  0.00     0.033 A 
BRANCH  16  22
HETATM   22  O   UNL     1      40.258 -15.657  -2.931  1.00  0.00    -0.289 OA
BRANCH  22  23
HETATM   23  C   UNL     1      39.237 -15.458  -3.903  1.00  0.00     0.505 C 
HETATM   24  F   UNL     1      39.145 -16.566  -4.672  1.00  0.00    -0.184 F 
HETATM   25  F   UNL     1      38.072 -15.351  -3.218  1.00  0.00    -0.184 F 
ENDBRANCH  22  23
ENDBRANCH  16  22
ENDBRANCH  10  15
BRANCH   8  26
HETATM   26  N   UNL     1      37.118 -13.198   0.959  1.00  0.00    -0.272 NA
HETATM   27  H   UNL     1      37.288 -12.226   0.703  1.00  0.00     0.127 HD
HETATM   28  H   UNL     1      36.503 -13.251   1.761  1.00  0.00     0.127 HD
ENDBRANCH   8  26
TORSDOF 4
ENDMDL
MODEL 2
REMARK VINA RESULT:      -7.4      5.904      7.819
REMARK  4 active torsions:
REMARK  status: ('A' for Active; 'I' for Inactive)
REMARK    1  A    between atoms: C_8  and  N_9 
REMARK    2  A    between atoms: C_11  and  C_12 
REMARK    3  A    between atoms: C_13  and  O_14 
REMARK    4  A    between atoms: O_14  and  C_15 
ROOT
HETATM    1  C   UNL     1      43.293 -18.647   1.496  1.00  0.00     0.002 A 
HETATM    2  C   UNL     1      44.146 -19.319   2.380  1.00  0.00     0.034 A 
HETATM    3  C   UNL     1      44.049 -19.040   3.750  1.00  0.00     0.103 A 
HETATM    4  C   UNL     1      43.116 -18.108   4.194  1.00  0.00     0.083 A 
HETATM    5  N   UNL     1      43.323 -18.081   5.546  1.00  0.00    -0.151 N 
HETATM    6  C   UNL     1      44.291 -18.990   5.888  1.00  0.00     0.734 A 
HETATM    7  N   UNL     1      44.658 -19.224   7.168  1.00  0.00    -0.033 NA
HETATM    8  C   UNL     1      44.015 -18.642   8.114  1.00  0.00     0.193 C 
HETATM    9  N   UNL     1      42.977 -17.725   7.921  1.00  0.00    -0.338 N 
HETATM   10  C   UNL     1      42.644 -17.304   6.562  1.00  0.00     0.246 C 
HETATM   11  N   UNL     1      44.759 -19.563   4.801  1.00  0.00    -0.060 NA
HETATM   12  C   UNL     1      42.250 -17.426   3.332  1.00  0.00     0.033 A 
HETATM   13  C   UNL     1      42.362 -17.719   1.968  1.00  0.00     0.002 A 
HETATM   14  H   UNL     1      42.536 -17.260   8.698  1.00  0.00     0.164 HD
ENDROOT
BRANCH  10  15
HETATM   15  C   UNL     1      42.908 -15.802   6.474  1.00  0.00     0.020 A 
HETATM   16  C   UNL     1      41.902 -14.950   5.960  1.00  0.00     0.085 A 
HETATM   17  C   UNL     1      42.142 -13.578   5.832  1.00  0.00     0.039 A 
HETATM   18  C   UNL     1      43.360 -13.033   6.244  1.00  0.00     0.022 A 
HETATM   19  C   UNL     1      44.335 -13.855   6.795  1.00  0.00     0.011 A 
HETATM   20 BR   UNL     1      45.975 -13.112   7.367  1.00  0.00    -0.051 Br
HETATM   21  C   UNL     1      44.115 -15.225   6.921  1.00  0.00     0.033 A 
BRANCH  16  22
HETATM   22  O   UNL     1      40.720 -15.566   5.641  1.00  0.00    -0.289 OA
BRANCH  22  23
HETATM   23  C   UNL     1      39.878 -14.936   4.680  1.00  0.00     0.505 C 
HETATM   24  F   UNL     1      39.355 -13.815   5.226  1.00  0.00    -0.184 F 
HETATM   25  F   UNL     1      40.685 -14.546   3.663  1.00  0.00    -0.184 F 
ENDBRANCH  22  23
ENDBRANCH  16  22
ENDBRANCH  10  15
BRANCH   8  26
HETATM   26  N   UNL     1      44.283 -18.849   9.419  1.00  0.00    -0.272 NA
HETATM   27  H   UNL     1      43.428 -18.813   9.972  1.00  0.00     0.127 HD
HETATM   28  H   UNL     1      44.995 -18.256   9.828  1.00  0.00     0.127 HD
ENDBRANCH   8  26
TORSDOF 4
ENDMDL
MODEL 3
REMARK VINA RESULT:      -7.3      3.985      5.199
REMARK  4 active torsions:
REMARK  status: ('A' for Active; 'I' for Inactive)
REMARK    1  A    between atoms: C_8  and  N_9 
REMARK    2  A    between atoms: C_11  and  C_12 
REMARK    3  A    between atoms: C_13  and  O_14 
REMARK    4  A    between atoms: O_14  and  C_15 
ROOT
HETATM    1  C   UNL     1      44.345 -19.843   2.806  1.00  0.00     0.002 A 
HETATM    2  C   UNL     1      44.333 -19.206   4.053  1.00  0.00     0.034 A 
HETATM    3  C   UNL     1      43.383 -18.202   4.285  1.00  0.00     0.103 A 
HETATM    4  C   UNL     1      42.483 -17.865   3.278  1.00  0.00     0.083 A 
HETATM    5  N   UNL     1      41.748 -16.859   3.843  1.00  0.00    -0.151 N 
HETATM    6  C   UNL     1      42.157 -16.651   5.136  1.00  0.00     0.734 A 
HETATM    7  N   UNL     1      41.562 -15.757   5.958  1.00  0.00    -0.033 NA
HETATM    8  C   UNL     1      40.514 -15.139   5.548  1.00  0.00     0.193 C 
HETATM    9  N   UNL     1      39.956 -15.280   4.274  1.00  0.00    -0.338 N 
HETATM   10  C   UNL     1      40.645 -16.105   3.284  1.00  0.00     0.246 C 
HETATM   11  N   UNL     1      43.169 -17.444   5.409  1.00  0.00    -0.060 NA
HETATM   12  C   UNL     1      42.472 -18.489   2.027  1.00  0.00     0.033 A 
HETATM   13  C   UNL     1      43.428 -19.489   1.814  1.00  0.00     0.002 A 
HETATM   14  H   UNL     1      39.159 -14.737   3.987  1.00  0.00     0.164 HD
ENDROOT
BRANCH  10  15
HETATM   15  C   UNL     1      41.043 -15.189   2.128  1.00  0.00     0.020 A 
HETATM   16  C   UNL     1      41.821 -14.037   2.393  1.00  0.00     0.085 A 
HETATM   17  C   UNL     1      42.157 -13.163   1.353  1.00  0.00     0.039 A 
HETATM   18  C   UNL     1      41.760 -13.439   0.043  1.00  0.00     0.022 A 
HETATM   19  C   UNL     1      41.037 -14.593  -0.233  1.00  0.00     0.011 A 
HETATM   20 BR   UNL     1      40.516 -14.972  -2.010  1.00  0.00    -0.051 Br
HETATM   21  C   UNL     1      40.686 -15.469   0.792  1.00  0.00     0.033 A 
BRANCH  16  22
HETATM   22  O   UNL     1      42.216 -13.883   3.695  1.00  0.00    -0.289 OA
BRANCH  22  23
HETATM   23  C   UNL     1      43.598 -13.657   3.951  1.00  0.00     0.505 C 
HETATM   24  F   UNL     1      43.811 -13.717   5.285  1.00  0.00    -0.184 F 
HETATM   25  F   UNL     1      44.265 -14.697   3.394  1.00  0.00    -0.184 F 
ENDBRANCH  22  23
ENDBRANCH  16  22
ENDBRANCH  10  15
BRANCH   8  26
HETATM   26  N   UNL     1      39.833 -14.263   6.315  1.00  0.00    -0.272 NA
HETATM   27  H   UNL     1      38.829 -14.402   6.213  1.00  0.00     0.127 HD
HETATM   28  H   UNL     1      40.070 -13.287   6.195  1.00  0.00     0.127 HD
ENDBRANCH   8  26
TORSDOF 4
ENDMDL
MODEL 4
REMARK VINA RESULT:      -7.2      6.528      7.840
REMARK  4 active torsions:
REMARK  status: ('A' for Active; 'I' for Inactive)
REMARK    1  A    between atoms: C_8  and  N_9 
REMARK    2  A    between atoms: C_11  and  C_12 
REMARK    3  A    between atoms: C_13  and  O_14 
REMARK    4  A    between atoms: O_14  and  C_15 
ROOT
HETATM    1  C   UNL     1      43.914 -19.984   1.907  1.00  0.00     0.002 A 
HETATM    2  C   UNL     1      44.705 -20.066   3.058  1.00  0.00     0.034 A 
HETATM    3  C   UNL     1      44.314 -19.346   4.196  1.00  0.00     0.103 A 
HETATM    4  C   UNL     1      43.158 -18.572   4.151  1.00  0.00     0.083 A 
HETATM    5  N   UNL     1      43.111 -18.012   5.399  1.00  0.00    -0.151 N 
HETATM    6  C   UNL     1      44.156 -18.476   6.158  1.00  0.00     0.734 A 
HETATM    7  N   UNL     1      44.324 -18.139   7.456  1.00  0.00    -0.033 NA
HETATM    8  C   UNL     1      43.424 -17.429   8.035  1.00  0.00     0.193 C 
HETATM    9  N   UNL     1      42.285 -16.923   7.403  1.00  0.00    -0.338 N 
HETATM   10  C   UNL     1      42.128 -17.112   5.962  1.00  0.00     0.246 C 
HETATM   11  N   UNL     1      44.910 -19.269   5.429  1.00  0.00    -0.060 NA
HETATM   12  C   UNL     1      42.349 -18.477   3.015  1.00  0.00     0.033 A 
HETATM   13  C   UNL     1      42.756 -19.203   1.889  1.00  0.00     0.002 A 
HETATM   14  H   UNL     1      41.633 -16.332   7.892  1.00  0.00     0.164 HD
ENDROOT
BRANCH  10  15
HETATM   15  C   UNL     1      42.116 -15.726   5.321  1.00  0.00     0.020 A 
HETATM   16  C   UNL     1      43.229 -14.870   5.498  1.00  0.00     0.085 A 
HETATM   17  C   UNL     1      43.218 -13.581   4.955  1.00  0.00     0.039 A 
HETATM   18  C   UNL     1      42.125 -13.142   4.204  1.00  0.00     0.022 A 
HETATM   19  C   UNL     1      41.049 -13.992   3.984  1.00  0.00     0.011 A 
HETATM   20 BR   UNL     1      39.580 -13.399   2.954  1.00  0.00    -0.051 Br
HETATM   21  C   UNL     1      41.041 -15.275   4.526  1.00  0.00     0.033 A 
BRANCH  16  22
HETATM   22  O   UNL     1      44.278 -15.411   6.195  1.00  0.00    -0.289 OA
BRANCH  22  23
HETATM   23  C   UNL     1      45.036 -14.547   7.036  1.00  0.00     0.505 C 
HETATM   24  F   UNL     1      45.642 -13.613   6.267  1.00  0.00    -0.184 F 
HETATM   25  F   UNL     1      44.143 -13.898   7.822  1.00  0.00    -0.184 F 
ENDBRANCH  22  23
ENDBRANCH  16  22
ENDBRANCH  10  15
BRANCH   8  26
HETATM   26  N   UNL     1      43.489 -17.082   9.336  1.00  0.00    -0.272 NA
HETATM   27  H   UNL     1      43.646 -17.903   9.919  1.00  0.00     0.127 HD
HETATM   28  H   UNL     1      42.714 -16.537   9.692  1.00  0.00     0.127 HD
ENDBRANCH   8  26
TORSDOF 4
ENDMDL
MODEL 5
REMARK VINA RESULT:      -7.2      3.191      5.712
REMARK  4 active torsions:
REMARK  status: ('A' for Active; 'I' for Inactive)
REMARK    1  A    between atoms: C_8  and  N_9 
REMARK    2  A    between atoms: C_11  and  C_12 
REMARK    3  A    between atoms: C_13  and  O_14 
REMARK    4  A    between atoms: O_14  and  C_15 
ROOT
HETATM    1  C   UNL     1      43.131  -9.981  -0.778  1.00  0.00     0.002 A 
HETATM    2  C   UNL     1      43.274 -10.695  -1.974  1.00  0.00     0.034 A 
HETATM    3  C   UNL     1      42.484 -11.835  -2.175  1.00  0.00     0.103 A 
HETATM    4  C   UNL     1      41.585 -12.227  -1.188  1.00  0.00     0.083 A 
HETATM    5  N   UNL     1      41.025 -13.362  -1.709  1.00  0.00    -0.151 N 
HETATM    6  C   UNL     1      41.528 -13.595  -2.964  1.00  0.00     0.734 A 
HETATM    7  N   UNL     1      41.107 -14.616  -3.744  1.00  0.00    -0.033 NA
HETATM    8  C   UNL     1      40.132 -15.346  -3.338  1.00  0.00     0.193 C 
HETATM    9  N   UNL     1      39.492 -15.200  -2.104  1.00  0.00    -0.338 N 
HETATM   10  C   UNL     1      40.007 -14.223  -1.146  1.00  0.00     0.246 C 
HETATM   11  N   UNL     1      42.436 -12.687  -3.249  1.00  0.00    -0.060 NA
HETATM   12  C   UNL     1      41.421 -11.530   0.014  1.00  0.00     0.033 A 
HETATM   13  C   UNL     1      42.219 -10.394   0.195  1.00  0.00     0.002 A 
HETATM   14  H   UNL     1      38.762 -15.829  -1.813  1.00  0.00     0.164 HD
ENDROOT
BRANCH  10  15
HETATM   15  C   UNL     1      40.463 -14.996   0.089  1.00  0.00     0.020 A 
HETATM   16  C   UNL     1      39.669 -14.962   1.261  1.00  0.00     0.085 A 
HETATM   17  C   UNL     1      40.093 -15.629   2.416  1.00  0.00     0.039 A 
HETATM   18  C   UNL     1      41.281 -16.362   2.411  1.00  0.00     0.022 A 
HETATM   19  C   UNL     1      42.042 -16.442   1.251  1.00  0.00     0.011 A 
HETATM   20 BR   UNL     1      43.640 -17.450   1.245  1.00  0.00    -0.051 Br
HETATM   21  C   UNL     1      41.639 -15.776   0.096  1.00  0.00     0.033 A 
BRANCH  16  22
HETATM   22  O   UNL     1      38.492 -14.270   1.150  1.00  0.00    -0.289 OA
BRANCH  22  23
HETATM   23  C   UNL     1      38.410 -12.990   1.770  1.00  0.00     0.505 C 
HETATM   24  F   UNL     1      39.589 -12.724   2.377  1.00  0.00    -0.184 F 
HETATM   25  F   UNL     1      38.265 -12.089   0.768  1.00  0.00    -0.184 F 
ENDBRANCH  22  23
ENDBRANCH  16  22
ENDBRANCH  10  15
BRANCH   8  26
HETATM   26  N   UNL     1      39.619 -16.357  -4.068  1.00  0.00    -0.272 NA
HETATM   27  H   UNL     1      40.054 -17.242  -3.810  1.00  0.00     0.127 HD
HETATM   28  H   UNL     1      39.632 -16.234  -5.072  1.00  0.00     0.127 HD
ENDBRANCH   8  26
TORSDOF 4
ENDMDL
MODEL 6
REMARK VINA RESULT:      -6.7      4.445      6.840
REMARK  4 active torsions:
REMARK  status: ('A' for Active; 'I' for Inactive)
REMARK    1  A    between atoms: C_8  and  N_9 
REMARK    2  A    between atoms: C_11  and  C_12 
REMARK    3  A    between atoms: C_13  and  O_14 
REMARK    4  A    between atoms: O_14  and  C_15 
ROOT
HETATM    1  C   UNL     1      39.112 -11.709   5.502  1.00  0.00     0.002 A 
HETATM    2  C   UNL     1      39.578 -11.569   4.189  1.00  0.00     0.034 A 
HETATM    3  C   UNL     1      40.195 -12.666   3.574  1.00  0.00     0.103 A 
HETATM    4  C   UNL     1      40.331 -13.859   4.278  1.00  0.00     0.083 A 
HETATM    5  N   UNL     1      40.984 -14.671   3.392  1.00  0.00    -0.151 N 
HETATM    6  C   UNL     1      41.175 -14.009   2.206  1.00  0.00     0.734 A 
HETATM    7  N   UNL     1      41.741 -14.590   1.125  1.00  0.00    -0.033 NA
HETATM    8  C   UNL     1      42.031 -15.840   1.174  1.00  0.00     0.193 C 
HETATM    9  N   UNL     1      41.853 -16.653   2.296  1.00  0.00    -0.338 N 
HETATM   10  C   UNL     1      41.400 -16.049   3.547  1.00  0.00     0.246 C 
HETATM   11  N   UNL     1      40.722 -12.779   2.312  1.00  0.00    -0.060 NA
HETATM   12  C   UNL     1      39.871 -14.026   5.589  1.00  0.00     0.033 A 
HETATM   13  C   UNL     1      39.257 -12.919   6.186  1.00  0.00     0.002 A 
HETATM   14  H   UNL     1      42.141 -17.618   2.296  1.00  0.00     0.164 HD
ENDROOT
BRANCH  10  15
HETATM   15  C   UNL     1      42.511 -16.249   4.576  1.00  0.00     0.020 A 
HETATM   16  C   UNL     1      43.046 -17.544   4.775  1.00  0.00     0.085 A 
HETATM   17  C   UNL     1      44.034 -17.754   5.744  1.00  0.00     0.039 A 
HETATM   18  C   UNL     1      44.524 -16.684   6.495  1.00  0.00     0.022 A 
HETATM   19  C   UNL     1      44.039 -15.402   6.273  1.00  0.00     0.011 A 
HETATM   20 BR   UNL     1      44.718 -13.954   7.280  1.00  0.00    -0.051 Br
HETATM   21  C   UNL     1      43.049 -15.177   5.319  1.00  0.00     0.033 A 
BRANCH  16  22
HETATM   22  O   UNL     1      42.548 -18.517   3.949  1.00  0.00    -0.289 OA
BRANCH  22  23
HETATM   23  C   UNL     1      43.477 -19.306   3.213  1.00  0.00     0.505 C 
HETATM   24  F   UNL     1      42.815 -19.949   2.224  1.00  0.00    -0.184 F 
HETATM   25  F   UNL     1      44.333 -18.438   2.621  1.00  0.00    -0.184 F 
ENDBRANCH  22  23
ENDBRANCH  16  22
ENDBRANCH  10  15
BRANCH   8  26
HETATM   26  N   UNL     1      42.558 -16.511   0.129  1.00  0.00    -0.272 NA
HETATM   27  H   UNL     1      42.429 -17.515   0.246  1.00  0.00     0.127 HD
HETATM   28  H   UNL     1      43.522 -16.302  -0.096  1.00  0.00     0.127 HD
ENDBRANCH   8  26
TORSDOF 4
ENDMDL
MODEL 7
REMARK VINA RESULT:      -6.6      3.873      5.175
REMARK  4 active torsions:
REMARK  status: ('A' for Active; 'I' for Inactive)
REMARK    1  A    between atoms: C_8  and  N_9 
REMARK    2  A    between atoms: C_11  and  C_12 
REMARK    3  A    between atoms: C_13  and  O_14 
REMARK    4  A    between atoms: O_14  and  C_15 
ROOT
HETATM    1  C   UNL     1      43.505 -17.267   7.840  1.00  0.00     0.002 A 
HETATM    2  C   UNL     1      43.969 -15.955   7.685  1.00  0.00     0.034 A 
HETATM    3  C   UNL     1      43.336 -15.124   6.751  1.00  0.00     0.103 A 
HETATM    4  C   UNL     1      42.271 -15.620   6.004  1.00  0.00     0.083 A 
HETATM    5  N   UNL     1      41.934 -14.564   5.203  1.00  0.00    -0.151 N 
HETATM    6  C   UNL     1      42.724 -13.482   5.500  1.00  0.00     0.734 A 
HETATM    7  N   UNL     1      42.571 -12.278   4.907  1.00  0.00    -0.033 NA
HETATM    8  C   UNL     1      41.590 -12.106   4.097  1.00  0.00     0.193 C 
HETATM    9  N   UNL     1      40.678 -13.101   3.731  1.00  0.00    -0.338 N 
HETATM   10  C   UNL     1      40.886 -14.466   4.209  1.00  0.00     0.246 C 
HETATM   11  N   UNL     1      43.599 -13.818   6.423  1.00  0.00    -0.060 NA
HETATM   12  C   UNL     1      41.787 -16.925   6.143  1.00  0.00     0.033 A 
HETATM   13  C   UNL     1      42.431 -17.739   7.082  1.00  0.00     0.002 A 
HETATM   14  H   UNL     1      39.953 -12.925   3.055  1.00  0.00     0.164 HD
ENDROOT
BRANCH  10  15
HETATM   15  C   UNL     1      41.110 -15.347   2.982  1.00  0.00     0.020 A 
HETATM   16  C   UNL     1      40.052 -15.537   2.062  1.00  0.00     0.085 A 
HETATM   17  C   UNL     1      40.226 -16.375   0.955  1.00  0.00     0.039 A 
HETATM   18  C   UNL     1      41.454 -17.001   0.730  1.00  0.00     0.022 A 
HETATM   19  C   UNL     1      42.513 -16.782   1.601  1.00  0.00     0.011 A 
HETATM   20 BR   UNL     1      44.178 -17.617   1.283  1.00  0.00    -0.051 Br
HETATM   21  C   UNL     1      42.354 -15.957   2.713  1.00  0.00     0.033 A 
BRANCH  16  22
HETATM   22  O   UNL     1      38.908 -14.833   2.332  1.00  0.00    -0.289 OA
BRANCH  22  23
HETATM   23  C   UNL     1      38.266 -14.163   1.251  1.00  0.00     0.505 C 
HETATM   24  F   UNL     1      37.070 -14.753   1.022  1.00  0.00    -0.184 F 
HETATM   25  F   UNL     1      38.014 -12.902   1.679  1.00  0.00    -0.184 F 
ENDBRANCH  22  23
ENDBRANCH  16  22
ENDBRANCH  10  15
BRANCH   8  26
HETATM   26  N   UNL     1      41.336 -10.927   3.493  1.00  0.00    -0.272 NA
HETATM   27  H   UNL     1      41.363 -10.165   4.168  1.00  0.00     0.127 HD
HETATM   28  H   UNL     1      40.490 -10.882   2.940  1.00  0.00     0.127 HD
ENDBRANCH   8  26
TORSDOF 4
ENDMDL
MODEL 8
REMARK VINA RESULT:      -6.6      2.592      3.405
REMARK  4 active torsions:
REMARK  status: ('A' for Active; 'I' for Inactive)
REMARK    1  A    between atoms: C_8  and  N_9 
REMARK    2  A    between atoms: C_11  and  C_12 
REMARK    3  A    between atoms: C_13  and  O_14 
REMARK    4  A    between atoms: O_14  and  C_15 
ROOT
HETATM    1  C   UNL     1      42.948 -18.341   2.082  1.00  0.00     0.002 A 
HETATM    2  C   UNL     1      43.580 -17.469   2.976  1.00  0.00     0.034 A 
HETATM    3  C   UNL     1      43.058 -16.178   3.137  1.00  0.00     0.103 A 
HETATM    4  C   UNL     1      41.935 -15.798   2.407  1.00  0.00     0.083 A 
HETATM    5  N   UNL     1      41.737 -14.501   2.796  1.00  0.00    -0.151 N 
HETATM    6  C   UNL     1      42.663 -14.151   3.746  1.00  0.00     0.734 A 
HETATM    7  N   UNL     1      42.667 -12.945   4.357  1.00  0.00    -0.033 NA
HETATM    8  C   UNL     1      41.714 -12.121   4.109  1.00  0.00     0.193 C 
HETATM    9  N   UNL     1      40.679 -12.355   3.199  1.00  0.00    -0.338 N 
HETATM   10  C   UNL     1      40.708 -13.569   2.385  1.00  0.00     0.246 C 
HETATM   11  N   UNL     1      43.489 -15.155   3.944  1.00  0.00    -0.060 NA
HETATM   12  C   UNL     1      41.284 -16.652   1.511  1.00  0.00     0.033 A 
HETATM   13  C   UNL     1      41.820 -17.937   1.365  1.00  0.00     0.002 A 
HETATM   14  H   UNL     1      39.981 -11.655   3.007  1.00  0.00     0.164 HD
ENDROOT
BRANCH  10  15
HETATM   15  C   UNL     1      40.811 -13.134   0.925  1.00  0.00     0.020 A 
HETATM   16  C   UNL     1      39.846 -13.591  -0.004  1.00  0.00     0.085 A 
HETATM   17  C   UNL     1      39.950 -13.237  -1.354  1.00  0.00     0.039 A 
HETATM   18  C   UNL     1      40.982 -12.403  -1.788  1.00  0.00     0.022 A 
HETATM   19  C   UNL     1      41.905 -11.911  -0.875  1.00  0.00     0.011 A 
HETATM   20 BR   UNL     1      43.291 -10.768  -1.463  1.00  0.00    -0.051 Br
HETATM   21  C   UNL     1      41.822 -12.260   0.472  1.00  0.00     0.033 A 
BRANCH  16  22
HETATM   22  O   UNL     1      38.837 -14.351   0.525  1.00  0.00    -0.289 OA
BRANCH  22  23
HETATM   23  C   UNL     1      37.525 -13.798   0.544  1.00  0.00     0.505 C 
HETATM   24  F   UNL     1      36.664 -14.734   1.003  1.00  0.00    -0.184 F 
HETATM   25  F   UNL     1      37.546 -12.795   1.456  1.00  0.00    -0.184 F 
ENDBRANCH  22  23
ENDBRANCH  16  22
ENDBRANCH  10  15
BRANCH   8  26
HETATM   26  N   UNL     1      41.615 -10.915   4.703  1.00  0.00    -0.272 NA
HETATM   27  H   UNL     1      40.678 -10.776   5.079  1.00  0.00     0.127 HD
HETATM   28  H   UNL     1      41.896 -10.118   4.147  1.00  0.00     0.127 HD
ENDBRANCH   8  26
TORSDOF 4
ENDMDL
MODEL 9
REMARK VINA RESULT:      -6.3      3.426      4.900
REMARK  4 active torsions:
REMARK  status: ('A' for Active; 'I' for Inactive)
REMARK    1  A    between atoms: C_8  and  N_9 
REMARK    2  A    between atoms: C_11  and  C_12 
REMARK    3  A    between atoms: C_13  and  O_14 
REMARK    4  A    between atoms: O_14  and  C_15 
ROOT
HETATM    1  C   UNL     1      44.345 -15.113   7.331  1.00  0.00     0.002 A 
HETATM    2  C   UNL     1      43.592 -16.209   6.892  1.00  0.00     0.034 A 
HETATM    3  C   UNL     1      43.055 -16.181   5.598  1.00  0.00     0.103 A 
HETATM    4  C   UNL     1      43.281 -15.073   4.787  1.00  0.00     0.083 A 
HETATM    5  N   UNL     1      42.603 -15.383   3.640  1.00  0.00    -0.151 N 
HETATM    6  C   UNL     1      42.052 -16.635   3.748  1.00  0.00     0.734 A 
HETATM    7  N   UNL     1      41.377 -17.228   2.738  1.00  0.00    -0.033 NA
HETATM    8  C   UNL     1      41.323 -16.640   1.599  1.00  0.00     0.193 C 
HETATM    9  N   UNL     1      41.874 -15.385   1.326  1.00  0.00    -0.338 N 
HETATM   10  C   UNL     1      42.473 -14.619   2.417  1.00  0.00     0.246 C 
HETATM   11  N   UNL     1      42.298 -17.121   4.945  1.00  0.00    -0.060 NA
HETATM   12  C   UNL     1      44.032 -13.967   5.200  1.00  0.00     0.033 A 
HETATM   13  C   UNL     1      44.560 -14.014   6.496  1.00  0.00     0.002 A 
HETATM   14  H   UNL     1      41.764 -14.947   0.426  1.00  0.00     0.164 HD
ENDROOT
BRANCH  10  15
HETATM   15  C   UNL     1      41.659 -13.336   2.571  1.00  0.00     0.020 A 
HETATM   16  C   UNL     1      41.788 -12.313   1.602  1.00  0.00     0.085 A 
HETATM   17  C   UNL     1      41.083 -11.113   1.750  1.00  0.00     0.039 A 
HETATM   18  C   UNL     1      40.221 -10.930   2.833  1.00  0.00     0.022 A 
HETATM   19  C   UNL     1      40.051 -11.948   3.763  1.00  0.00     0.011 A 
HETATM   20 BR   UNL     1      38.870 -11.703   5.217  1.00  0.00    -0.051 Br
HETATM   21  C   UNL     1      40.752 -13.145   3.635  1.00  0.00     0.033 A 
BRANCH  16  22
HETATM   22  O   UNL     1      42.608 -12.608   0.544  1.00  0.00    -0.289 OA
BRANCH  22  23
HETATM   23  C   UNL     1      42.135 -12.316  -0.767  1.00  0.00     0.505 C 
HETATM   24  F   UNL     1      43.180 -12.353  -1.625  1.00  0.00    -0.184 F 
HETATM   25  F   UNL     1      41.303 -13.330  -1.108  1.00  0.00    -0.184 F 
ENDBRANCH  22  23
ENDBRANCH  16  22
ENDBRANCH  10  15
BRANCH   8  26
HETATM   26  N   UNL     1      40.709 -17.177   0.525  1.00  0.00    -0.272 NA
HETATM   27  H   UNL     1      40.025 -17.875   0.814  1.00  0.00     0.127 HD
HETATM   28  H   UNL     1      41.313 -17.549  -0.196  1.00  0.00     0.127 HD
ENDBRANCH   8  26
TORSDOF 4
ENDMDL
MODEL 10
REMARK VINA RESULT:      -6.2      2.977      3.897
REMARK  4 active torsions:
REMARK  status: ('A' for Active; 'I' for Inactive)
REMARK    1  A    between atoms: C_8  and  N_9 
REMARK    2  A    between atoms: C_11  and  C_12 
REMARK    3  A    between atoms: C_13  and  O_14 
REMARK    4  A    between atoms: O_14  and  C_15 
ROOT
HETATM    1  C   UNL     1      43.086 -18.561   2.021  1.00  0.00     0.002 A 
HETATM    2  C   UNL     1      43.799 -17.414   2.389  1.00  0.00     0.034 A 
HETATM    3  C   UNL     1      43.133 -16.181   2.394  1.00  0.00     0.103 A 
HETATM    4  C   UNL     1      41.790 -16.128   2.034  1.00  0.00     0.083 A 
HETATM    5  N   UNL     1      41.495 -14.795   2.129  1.00  0.00    -0.151 N 
HETATM    6  C   UNL     1      42.594 -14.105   2.575  1.00  0.00     0.734 A 
HETATM    7  N   UNL     1      42.574 -12.776   2.824  1.00  0.00    -0.033 NA
HETATM    8  C   UNL     1      41.461 -12.144   2.727  1.00  0.00     0.193 C 
HETATM    9  N   UNL     1      40.252 -12.721   2.327  1.00  0.00    -0.338 N 
HETATM   10  C   UNL     1      40.241 -14.114   1.887  1.00  0.00     0.246 C 
HETATM   11  N   UNL     1      43.605 -14.934   2.716  1.00  0.00    -0.060 NA
HETATM   12  C   UNL     1      41.054 -17.259   1.666  1.00  0.00     0.033 A 
HETATM   13  C   UNL     1      41.736 -18.481   1.668  1.00  0.00     0.002 A 
HETATM   14  H   UNL     1      39.416 -12.169   2.224  1.00  0.00     0.164 HD
ENDROOT
BRANCH  10  15
HETATM   15  C   UNL     1      39.802 -14.124   0.424  1.00  0.00     0.020 A 
HETATM   16  C   UNL     1      38.504 -13.673   0.086  1.00  0.00     0.085 A 
HETATM   17  C   UNL     1      38.071 -13.715  -1.244  1.00  0.00     0.039 A 
HETATM   18  C   UNL     1      38.926 -14.167  -2.251  1.00  0.00     0.022 A 
HETATM   19  C   UNL     1      40.218 -14.566  -1.935  1.00  0.00     0.011 A 
HETATM   20 BR   UNL     1      41.378 -15.161  -3.303  1.00  0.00    -0.051 Br
HETATM   21  C   UNL     1      40.662 -14.539  -0.615  1.00  0.00     0.033 A 
BRANCH  16  22
HETATM   22  O   UNL     1      37.762 -13.189   1.131  1.00  0.00    -0.289 OA
BRANCH  22  23
HETATM   23  C   UNL     1      37.167 -11.903   0.987  1.00  0.00     0.505 C 
HETATM   24  F   UNL     1      35.850 -12.059   0.722  1.00  0.00    -0.184 F 
HETATM   25  F   UNL     1      37.261 -11.301   2.198  1.00  0.00    -0.184 F 
ENDBRANCH  22  23
ENDBRANCH  16  22
ENDBRANCH  10  15
BRANCH   8  26
HETATM   26  N   UNL     1      41.339 -10.828   2.997  1.00  0.00    -0.272 NA
HETATM   27  H   UNL     1      41.188 -10.299   2.141  1.00  0.00     0.127 HD
HETATM   28  H   UNL     1      42.083 -10.414   3.544  1.00  0.00     0.127 HD
ENDBRANCH   8  26
TORSDOF 4
ENDMDL
