MODEL 1
REMARK VINA RESULT:      -8.3      0.000      0.000
REMARK  5 active torsions:
REMARK  status: ('A' for Active; 'I' for Inactive)
REMARK    1  A    between atoms: C_6  and  N_7 
REMARK       I    between atoms: N_7  and  C_8 
REMARK    2  A    between atoms: C_8  and  C_9 
REMARK    3  A    between atoms: C_9  and  O_10 
REMARK    4  A    between atoms: O_10  and  C_11 
REMARK    5  A    between atoms: C_19  and  C_20 
ROOT
HETATM    1  C   UNL     1      44.016 -22.030   1.160  1.00  0.00     0.073 C 
HETATM    2  C   UNL     1      44.273 -21.511   2.527  1.00  0.00     0.065 A 
HETATM    3  N   UNL     1      44.793 -22.319   3.460  1.00  0.00    -0.177 NA
HETATM    4  N   UNL     1      44.894 -21.534   4.547  1.00  0.00    -0.262 N 
HETATM    5  H   UNL     1      45.264 -21.917   5.414  1.00  0.00     0.191 HD
HETATM    6  C   UNL     1      44.448 -20.253   4.349  1.00  0.00     0.137 A 
HETATM    7  C   UNL     1      44.042 -20.200   3.030  1.00  0.00     0.046 A 
ENDROOT
BRANCH   6   8
HETATM    8  N   UNL     1      44.424 -19.282   5.334  1.00  0.00    -0.309 N 
HETATM    9  C   UNL     1      43.964 -19.548   6.619  1.00  0.00     0.252 C 
HETATM   10  O   UNL     1      43.577 -20.656   6.992  1.00  0.00    -0.270 OA
HETATM   11  H   UNL     1      44.724 -18.348   5.078  1.00  0.00     0.170 HD
BRANCH   9  12
HETATM   12  C   UNL     1      44.022 -18.311   7.545  1.00  0.00     0.217 C 
HETATM   13  C   UNL     1      44.409 -18.786   8.946  1.00  0.00     0.050 C 
BRANCH  12  14
HETATM   14  O   UNL     1      42.791 -17.604   7.672  1.00  0.00    -0.337 OA
BRANCH  14  15
HETATM   15  C   UNL     1      42.487 -16.828   6.585  1.00  0.00     0.070 A 
HETATM   16  C   UNL     1      43.424 -15.862   6.222  1.00  0.00     0.037 A 
HETATM   17  C   UNL     1      43.195 -15.048   5.114  1.00  0.00     0.003 A 
HETATM   18  C   UNL     1      42.035 -15.213   4.357  1.00  0.00     0.000 A 
HETATM   19  C   UNL     1      41.112 -16.201   4.703  1.00  0.00     0.003 A 
HETATM   20  C   UNL     1      41.342 -17.017   5.812  1.00  0.00     0.037 A 
ENDBRANCH  14  15
ENDBRANCH  12  14
ENDBRANCH   9  12
ENDBRANCH   6   8
BRANCH   7  21
HETATM   21  C   UNL     1      43.488 -19.028   2.380  1.00  0.00    -0.020 A 
HETATM   22  C   UNL     1      44.319 -17.958   2.022  1.00  0.00     0.014 A 
HETATM   23  C   UNL     1      43.781 -16.829   1.399  1.00  0.00     0.020 A 
HETATM   24  C   UNL     1      42.415 -16.773   1.130  1.00  0.00     0.011 A 
HETATM   25 BR   UNL     1      41.688 -15.245   0.286  1.00  0.00    -0.051 Br
HETATM   26  C   UNL     1      41.581 -17.835   1.475  1.00  0.00     0.020 A 
HETATM   27  C   UNL     1      42.118 -18.963   2.100  1.00  0.00     0.014 A 
ENDBRANCH   7  21
TORSDOF 5
ENDMDL
MODEL 2
REMARK VINA RESULT:      -7.8      3.183      5.170
REMARK  5 active torsions:
REMARK  status: ('A' for Active; 'I' for Inactive)
REMARK    1  A    between atoms: C_6  and  N_7 
REMARK       I    between atoms: N_7  and  C_8 
REMARK    2  A    between atoms: C_8  and  C_9 
REMARK    3  A    between atoms: C_9  and  O_10 
REMARK    4  A    between atoms: O_10  and  C_11 
REMARK    5  A    between atoms: C_19  and  C_20 
ROOT
HETATM    1  C   UNL     1      41.521 -14.384   0.180  1.00  0.00     0.073 C 
HETATM    2  C   UNL     1      42.083 -14.101   1.524  1.00  0.00     0.065 A 
HETATM    3  N   UNL     1      42.044 -12.854   2.014  1.00  0.00    -0.177 NA
HETATM    4  N   UNL     1      42.620 -12.965   3.224  1.00  0.00    -0.262 N 
HETATM    5  H   UNL     1      42.722 -12.141   3.812  1.00  0.00     0.191 HD
HETATM    6  C   UNL     1      43.037 -14.236   3.526  1.00  0.00     0.137 A 
HETATM    7  C   UNL     1      42.690 -15.010   2.435  1.00  0.00     0.046 A 
ENDROOT
BRANCH   6   8
HETATM    8  N   UNL     1      43.684 -14.579   4.699  1.00  0.00    -0.309 N 
HETATM    9  C   UNL     1      42.992 -15.042   5.813  1.00  0.00     0.252 C 
HETATM   10  O   UNL     1      41.774 -15.216   5.839  1.00  0.00    -0.270 OA
HETATM   11  H   UNL     1      44.688 -14.446   4.736  1.00  0.00     0.170 HD
BRANCH   9  12
HETATM   12  C   UNL     1      43.921 -15.352   7.010  1.00  0.00     0.217 C 
HETATM   13  C   UNL     1      44.570 -14.043   7.458  1.00  0.00     0.050 C 
BRANCH  12  14
HETATM   14  O   UNL     1      44.980 -16.262   6.721  1.00  0.00    -0.337 OA
BRANCH  14  15
HETATM   15  C   UNL     1      44.585 -17.573   6.685  1.00  0.00     0.070 A 
HETATM   16  C   UNL     1      44.955 -18.310   5.561  1.00  0.00     0.037 A 
HETATM   17  C   UNL     1      44.609 -19.656   5.463  1.00  0.00     0.003 A 
HETATM   18  C   UNL     1      43.907 -20.271   6.499  1.00  0.00     0.000 A 
HETATM   19  C   UNL     1      43.564 -19.542   7.638  1.00  0.00     0.003 A 
HETATM   20  C   UNL     1      43.911 -18.193   7.737  1.00  0.00     0.037 A 
ENDBRANCH  14  15
ENDBRANCH  12  14
ENDBRANCH   9  12
ENDBRANCH   6   8
BRANCH   7  21
HETATM   21  C   UNL     1      42.947 -16.431   2.314  1.00  0.00    -0.020 A 
HETATM   22  C   UNL     1      44.015 -16.894   1.534  1.00  0.00     0.014 A 
HETATM   23  C   UNL     1      44.258 -18.265   1.417  1.00  0.00     0.020 A 
HETATM   24  C   UNL     1      43.437 -19.172   2.083  1.00  0.00     0.011 A 
HETATM   25 BR   UNL     1      43.766 -21.026   1.925  1.00  0.00    -0.051 Br
HETATM   26  C   UNL     1      42.376 -18.722   2.867  1.00  0.00     0.020 A 
HETATM   27  C   UNL     1      42.131 -17.351   2.983  1.00  0.00     0.014 A 
ENDBRANCH   7  21
TORSDOF 5
ENDMDL
MODEL 3
REMARK VINA RESULT:      -7.3      3.833      7.176
REMARK  5 active torsions:
REMARK  status: ('A' for Active; 'I' for Inactive)
REMARK    1  A    between atoms: C_6  and  N_7 
REMARK       I    between atoms: N_7  and  C_8 
REMARK    2  A    between atoms: C_8  and  C_9 
REMARK    3  A    between atoms: C_9  and  O_10 
REMARK    4  A    between atoms: O_10  and  C_11 
REMARK    5  A    between atoms: C_19  and  C_20 
ROOT
HETATM    1  C   UNL     1      39.968 -12.503   6.596  1.00  0.00     0.073 C 
HETATM    2  C   UNL     1      40.039 -13.146   5.260  1.00  0.00     0.065 A 
HETATM    3  N   UNL     1      39.415 -12.585   4.215  1.00  0.00    -0.177 NA
HETATM    4  N   UNL     1      39.691 -13.412   3.192  1.00  0.00    -0.262 N 
HETATM    5  H   UNL     1      39.322 -13.210   2.266  1.00  0.00     0.191 HD
HETATM    6  C   UNL     1      40.461 -14.491   3.543  1.00  0.00     0.137 A 
HETATM    7  C   UNL     1      40.716 -14.342   4.893  1.00  0.00     0.046 A 
ENDROOT
BRANCH   6   8
HETATM    8  N   UNL     1      40.840 -15.489   2.663  1.00  0.00    -0.309 N 
HETATM    9  C   UNL     1      42.125 -15.558   2.136  1.00  0.00     0.252 C 
HETATM   10  O   UNL     1      43.027 -14.772   2.428  1.00  0.00    -0.270 OA
HETATM   11  H   UNL     1      40.132 -16.159   2.382  1.00  0.00     0.170 HD
BRANCH   9  12
HETATM   12  C   UNL     1      42.314 -16.749   1.170  1.00  0.00     0.217 C 
HETATM   13  C   UNL     1      41.534 -16.451  -0.109  1.00  0.00     0.050 C 
BRANCH  12  14
HETATM   14  O   UNL     1      41.837 -17.998   1.665  1.00  0.00    -0.337 OA
BRANCH  14  15
HETATM   15  C   UNL     1      42.752 -18.675   2.427  1.00  0.00     0.070 A 
HETATM   16  C   UNL     1      43.370 -19.776   1.836  1.00  0.00     0.037 A 
HETATM   17  C   UNL     1      44.328 -20.501   2.541  1.00  0.00     0.003 A 
HETATM   18  C   UNL     1      44.682 -20.114   3.834  1.00  0.00     0.000 A 
HETATM   19  C   UNL     1      44.086 -18.994   4.413  1.00  0.00     0.003 A 
HETATM   20  C   UNL     1      43.126 -18.266   3.707  1.00  0.00     0.037 A 
ENDBRANCH  14  15
ENDBRANCH  12  14
ENDBRANCH   9  12
ENDBRANCH   6   8
BRANCH   7  21
HETATM   21  C   UNL     1      41.496 -15.265   5.694  1.00  0.00    -0.020 A 
HETATM   22  C   UNL     1      40.920 -16.449   6.172  1.00  0.00     0.014 A 
HETATM   23  C   UNL     1      41.673 -17.335   6.947  1.00  0.00     0.020 A 
HETATM   24  C   UNL     1      43.004 -17.038   7.238  1.00  0.00     0.011 A 
HETATM   25 BR   UNL     1      44.023 -18.236   8.286  1.00  0.00    -0.051 Br
HETATM   26  C   UNL     1      43.589 -15.867   6.761  1.00  0.00     0.020 A 
HETATM   27  C   UNL     1      42.835 -14.980   5.988  1.00  0.00     0.014 A 
ENDBRANCH   7  21
TORSDOF 5
ENDMDL
MODEL 4
REMARK VINA RESULT:      -7.2      3.392      6.231
REMARK  5 active torsions:
REMARK  status: ('A' for Active; 'I' for Inactive)
REMARK    1  A    between atoms: C_6  and  N_7 
REMARK       I    between atoms: N_7  and  C_8 
REMARK    2  A    between atoms: C_8  and  C_9 
REMARK    3  A    between atoms: C_9  and  O_10 
REMARK    4  A    between atoms: O_10  and  C_11 
REMARK    5  A    between atoms: C_19  and  C_20 
ROOT
HETATM    1  C   UNL     1      38.790 -11.317   4.287  1.00  0.00     0.073 C 
HETATM    2  C   UNL     1      39.318 -12.503   5.006  1.00  0.00     0.065 A 
HETATM    3  N   UNL     1      39.255 -12.555   6.343  1.00  0.00    -0.177 NA
HETATM    4  N   UNL     1      39.804 -13.744   6.647  1.00  0.00    -0.262 N 
HETATM    5  H   UNL     1      39.884 -14.030   7.620  1.00  0.00     0.191 HD
HETATM    6  C   UNL     1      40.227 -14.455   5.553  1.00  0.00     0.137 A 
HETATM    7  C   UNL     1      39.914 -13.673   4.458  1.00  0.00     0.046 A 
ENDROOT
BRANCH   6   8
HETATM    8  N   UNL     1      40.851 -15.687   5.627  1.00  0.00    -0.309 N 
HETATM    9  C   UNL     1      42.195 -15.813   5.962  1.00  0.00     0.252 C 
HETATM   10  O   UNL     1      42.920 -14.861   6.250  1.00  0.00    -0.270 OA
HETATM   11  H   UNL     1      40.301 -16.505   5.390  1.00  0.00     0.170 HD
BRANCH   9  12
HETATM   12  C   UNL     1      42.675 -17.282   5.972  1.00  0.00     0.217 C 
HETATM   13  C   UNL     1      42.871 -17.707   7.427  1.00  0.00     0.050 C 
BRANCH  12  14
HETATM   14  O   UNL     1      43.914 -17.507   5.304  1.00  0.00    -0.337 OA
BRANCH  14  15
HETATM   15  C   UNL     1      43.812 -18.335   4.218  1.00  0.00     0.070 A 
HETATM   16  C   UNL     1      44.498 -19.547   4.285  1.00  0.00     0.037 A 
HETATM   17  C   UNL     1      44.423 -20.451   3.226  1.00  0.00     0.003 A 
HETATM   18  C   UNL     1      43.648 -20.149   2.107  1.00  0.00     0.000 A 
HETATM   19  C   UNL     1      42.938 -18.950   2.054  1.00  0.00     0.003 A 
HETATM   20  C   UNL     1      43.011 -18.044   3.114  1.00  0.00     0.037 A 
ENDBRANCH  14  15
ENDBRANCH  12  14
ENDBRANCH   9  12
ENDBRANCH   6   8
BRANCH   7  21
HETATM   21  C   UNL     1      40.188 -14.031   3.080  1.00  0.00    -0.020 A 
HETATM   22  C   UNL     1      39.143 -14.396   2.222  1.00  0.00     0.014 A 
HETATM   23  C   UNL     1      39.411 -14.743   0.895  1.00  0.00     0.020 A 
HETATM   24  C   UNL     1      40.724 -14.720   0.427  1.00  0.00     0.011 A 
HETATM   25 BR   UNL     1      41.087 -15.189  -1.368  1.00  0.00    -0.051 Br
HETATM   26  C   UNL     1      41.770 -14.351   1.270  1.00  0.00     0.020 A 
HETATM   27  C   UNL     1      41.502 -14.006   2.598  1.00  0.00     0.014 A 
ENDBRANCH   7  21
TORSDOF 5
ENDMDL
MODEL 5
REMARK VINA RESULT:      -7.1      3.447      5.367
REMARK  5 active torsions:
REMARK  status: ('A' for Active; 'I' for Inactive)
REMARK    1  A    between atoms: C_6  and  N_7 
REMARK       I    between atoms: N_7  and  C_8 
REMARK    2  A    between atoms: C_8  and  C_9 
REMARK    3  A    between atoms: C_9  and  O_10 
REMARK    4  A    between atoms: O_10  and  C_11 
REMARK    5  A    between atoms: C_19  and  C_20 
ROOT
HETATM    1  C   UNL     1      41.256 -15.539  -1.521  1.00  0.00     0.073 C 
HETATM    2  C   UNL     1      41.445 -14.828  -0.232  1.00  0.00     0.065 A 
HETATM    3  N   UNL     1      41.095 -13.539  -0.123  1.00  0.00    -0.177 NA
HETATM    4  N   UNL     1      41.392 -13.230   1.151  1.00  0.00    -0.262 N 
HETATM    5  H   UNL     1      41.224 -12.287   1.495  1.00  0.00     0.191 HD
HETATM    6  C   UNL     1      41.931 -14.271   1.863  1.00  0.00     0.137 A 
HETATM    7  C   UNL     1      41.970 -15.339   0.988  1.00  0.00     0.046 A 
ENDROOT
BRANCH   6   8
HETATM    8  N   UNL     1      42.343 -14.174   3.180  1.00  0.00    -0.309 N 
HETATM    9  C   UNL     1      41.568 -14.652   4.231  1.00  0.00     0.252 C 
HETATM   10  O   UNL     1      40.486 -15.221   4.080  1.00  0.00    -0.270 OA
HETATM   11  H   UNL     1      43.224 -13.706   3.362  1.00  0.00     0.170 HD
BRANCH   9  12
HETATM   12  C   UNL     1      42.225 -14.427   5.612  1.00  0.00     0.217 C 
HETATM   13  C   UNL     1      42.329 -12.921   5.847  1.00  0.00     0.050 C 
BRANCH  12  14
HETATM   14  O   UNL     1      43.541 -14.959   5.738  1.00  0.00    -0.337 OA
BRANCH  14  15
HETATM   15  C   UNL     1      43.571 -16.275   6.115  1.00  0.00     0.070 A 
HETATM   16  C   UNL     1      43.581 -16.536   7.484  1.00  0.00     0.037 A 
HETATM   17  C   UNL     1      43.588 -17.852   7.944  1.00  0.00     0.003 A 
HETATM   18  C   UNL     1      43.568 -18.908   7.033  1.00  0.00     0.000 A 
HETATM   19  C   UNL     1      43.526 -18.646   5.663  1.00  0.00     0.003 A 
HETATM   20  C   UNL     1      43.518 -17.328   5.202  1.00  0.00     0.037 A 
ENDBRANCH  14  15
ENDBRANCH  12  14
ENDBRANCH   9  12
ENDBRANCH   6   8
BRANCH   7  21
HETATM   21  C   UNL     1      42.475 -16.658   1.314  1.00  0.00    -0.020 A 
HETATM   22  C   UNL     1      43.854 -16.885   1.406  1.00  0.00     0.014 A 
HETATM   23  C   UNL     1      44.338 -18.158   1.718  1.00  0.00     0.020 A 
HETATM   24  C   UNL     1      43.442 -19.202   1.943  1.00  0.00     0.011 A 
HETATM   25 BR   UNL     1      44.096 -20.924   2.365  1.00  0.00    -0.051 Br
HETATM   26  C   UNL     1      42.068 -18.985   1.861  1.00  0.00     0.020 A 
HETATM   27  C   UNL     1      41.584 -17.712   1.547  1.00  0.00     0.014 A 
ENDBRANCH   7  21
TORSDOF 5
ENDMDL
MODEL 6
REMARK VINA RESULT:      -6.9      9.927     12.272
REMARK  5 active torsions:
REMARK  status: ('A' for Active; 'I' for Inactive)
REMARK    1  A    between atoms: C_6  and  N_7 
REMARK       I    between atoms: N_7  and  C_8 
REMARK    2  A    between atoms: C_8  and  C_9 
REMARK    3  A    between atoms: C_9  and  O_10 
REMARK    4  A    between atoms: O_10  and  C_11 
REMARK    5  A    between atoms: C_19  and  C_20 
ROOT
HETATM    1  C   UNL     1      45.569 -12.134  10.826  1.00  0.00     0.073 C 
HETATM    2  C   UNL     1      44.365 -11.727  10.060  1.00  0.00     0.065 A 
HETATM    3  N   UNL     1      44.304 -11.955   8.741  1.00  0.00    -0.177 NA
HETATM    4  N   UNL     1      43.099 -11.475   8.385  1.00  0.00    -0.262 N 
HETATM    5  H   UNL     1      42.804 -11.523   7.413  1.00  0.00     0.191 HD
HETATM    6  C   UNL     1      42.387 -10.938   9.427  1.00  0.00     0.137 A 
HETATM    7  C   UNL     1      43.185 -11.096  10.543  1.00  0.00     0.046 A 
ENDROOT
BRANCH   6   8
HETATM    8  N   UNL     1      41.139 -10.357   9.290  1.00  0.00    -0.309 N 
HETATM    9  C   UNL     1      40.900  -9.329   8.384  1.00  0.00     0.252 C 
HETATM   10  O   UNL     1      41.753  -8.881   7.617  1.00  0.00    -0.270 OA
HETATM   11  H   UNL     1      40.401 -10.682   9.905  1.00  0.00     0.170 HD
BRANCH   9  12
HETATM   12  C   UNL     1      39.437  -8.831   8.414  1.00  0.00     0.217 C 
HETATM   13  C   UNL     1      39.014  -8.517   6.980  1.00  0.00     0.050 C 
BRANCH  12  14
HETATM   14  O   UNL     1      39.228  -7.645   9.177  1.00  0.00    -0.337 OA
BRANCH  14  15
HETATM   15  C   UNL     1      39.134  -7.867  10.526  1.00  0.00     0.070 A 
HETATM   16  C   UNL     1      40.110  -7.277  11.328  1.00  0.00     0.037 A 
HETATM   17  C   UNL     1      40.067  -7.440  12.712  1.00  0.00     0.003 A 
HETATM   18  C   UNL     1      39.038  -8.178  13.295  1.00  0.00     0.000 A 
HETATM   19  C   UNL     1      38.045  -8.742  12.494  1.00  0.00     0.003 A 
HETATM   20  C   UNL     1      38.086  -8.579  11.108  1.00  0.00     0.037 A 
ENDBRANCH  14  15
ENDBRANCH  12  14
ENDBRANCH   9  12
ENDBRANCH   6   8
BRANCH   7  21
HETATM   21  C   UNL     1      42.831 -10.662  11.881  1.00  0.00    -0.020 A 
HETATM   22  C   UNL     1      41.713 -11.203  12.528  1.00  0.00     0.014 A 
HETATM   23  C   UNL     1      41.373 -10.781  13.816  1.00  0.00     0.020 A 
HETATM   24  C   UNL     1      42.155  -9.823  14.458  1.00  0.00     0.011 A 
HETATM   25 BR   UNL     1      41.695  -9.252  16.200  1.00  0.00    -0.051 Br
HETATM   26  C   UNL     1      43.274  -9.283  13.826  1.00  0.00     0.020 A 
HETATM   27  C   UNL     1      43.612  -9.703  12.537  1.00  0.00     0.014 A 
ENDBRANCH   7  21
TORSDOF 5
ENDMDL
MODEL 7
REMARK VINA RESULT:      -6.8      3.784      6.490
REMARK  5 active torsions:
REMARK  status: ('A' for Active; 'I' for Inactive)
REMARK    1  A    between atoms: C_6  and  N_7 
REMARK       I    between atoms: N_7  and  C_8 
REMARK    2  A    between atoms: C_8  and  C_9 
REMARK    3  A    between atoms: C_9  and  O_10 
REMARK    4  A    between atoms: O_10  and  C_11 
REMARK    5  A    between atoms: C_19  and  C_20 
ROOT
HETATM    1  C   UNL     1      40.499 -12.883  -0.975  1.00  0.00     0.073 C 
HETATM    2  C   UNL     1      40.828 -14.238  -0.466  1.00  0.00     0.065 A 
HETATM    3  N   UNL     1      40.964 -15.258  -1.324  1.00  0.00    -0.177 NA
HETATM    4  N   UNL     1      41.261 -16.306  -0.536  1.00  0.00    -0.262 N 
HETATM    5  H   UNL     1      41.411 -17.224  -0.950  1.00  0.00     0.191 HD
HETATM    6  C   UNL     1      41.309 -15.999   0.800  1.00  0.00     0.137 A 
HETATM    7  C   UNL     1      41.040 -14.647   0.880  1.00  0.00     0.046 A 
ENDROOT
BRANCH   6   8
HETATM    8  N   UNL     1      41.562 -16.924   1.797  1.00  0.00    -0.309 N 
HETATM    9  C   UNL     1      42.810 -17.033   2.400  1.00  0.00     0.252 C 
HETATM   10  O   UNL     1      43.767 -16.308   2.129  1.00  0.00    -0.270 OA
HETATM   11  H   UNL     1      40.810 -17.554   2.053  1.00  0.00     0.170 HD
BRANCH   9  12
HETATM   12  C   UNL     1      42.861 -18.140   3.478  1.00  0.00     0.217 C 
HETATM   13  C   UNL     1      42.226 -17.589   4.754  1.00  0.00     0.050 C 
BRANCH  12  14
HETATM   14  O   UNL     1      44.174 -18.576   3.823  1.00  0.00    -0.337 OA
BRANCH  14  15
HETATM   15  C   UNL     1      44.334 -19.935   3.774  1.00  0.00     0.070 A 
HETATM   16  C   UNL     1      44.167 -20.542   2.531  1.00  0.00     0.037 A 
HETATM   17  C   UNL     1      44.336 -21.920   2.398  1.00  0.00     0.003 A 
HETATM   18  C   UNL     1      44.690 -22.687   3.508  1.00  0.00     0.000 A 
HETATM   19  C   UNL     1      44.887 -22.074   4.745  1.00  0.00     0.003 A 
HETATM   20  C   UNL     1      44.719 -20.695   4.879  1.00  0.00     0.037 A 
ENDBRANCH  14  15
ENDBRANCH  12  14
ENDBRANCH   9  12
ENDBRANCH   6   8
BRANCH   7  21
HETATM   21  C   UNL     1      40.980 -13.887   2.113  1.00  0.00    -0.020 A 
HETATM   22  C   UNL     1      42.146 -13.338   2.663  1.00  0.00     0.014 A 
HETATM   23  C   UNL     1      42.086 -12.608   3.853  1.00  0.00     0.020 A 
HETATM   24  C   UNL     1      40.860 -12.423   4.489  1.00  0.00     0.011 A 
HETATM   25 BR   UNL     1      40.779 -11.436   6.099  1.00  0.00    -0.051 Br
HETATM   26  C   UNL     1      39.693 -12.958   3.947  1.00  0.00     0.020 A 
HETATM   27  C   UNL     1      39.753 -13.690   2.758  1.00  0.00     0.014 A 
ENDBRANCH   7  21
TORSDOF 5
ENDMDL
MODEL 8
REMARK VINA RESULT:      -6.8      3.200      5.721
REMARK  5 active torsions:
REMARK  status: ('A' for Active; 'I' for Inactive)
REMARK    1  A    between atoms: C_6  and  N_7 
REMARK       I    between atoms: N_7  and  C_8 
REMARK    2  A    between atoms: C_8  and  C_9 
REMARK    3  A    between atoms: C_9  and  O_10 
REMARK    4  A    between atoms: O_10  and  C_11 
REMARK    5  A    between atoms: C_19  and  C_20 
ROOT
HETATM    1  C   UNL     1      44.156 -18.944   8.337  1.00  0.00     0.073 C 
HETATM    2  C   UNL     1      43.841 -17.703   7.586  1.00  0.00     0.065 A 
HETATM    3  N   UNL     1      43.629 -16.558   8.250  1.00  0.00    -0.177 NA
HETATM    4  N   UNL     1      43.384 -15.662   7.277  1.00  0.00    -0.262 N 
HETATM    5  H   UNL     1      43.182 -14.696   7.521  1.00  0.00     0.191 HD
HETATM    6  C   UNL     1      43.421 -16.192   6.013  1.00  0.00     0.137 A 
HETATM    7  C   UNL     1      43.729 -17.529   6.179  1.00  0.00     0.046 A 
ENDROOT
BRANCH   6   8
HETATM    8  N   UNL     1      43.167 -15.466   4.863  1.00  0.00    -0.309 N 
HETATM    9  C   UNL     1      41.906 -14.950   4.582  1.00  0.00     0.252 C 
HETATM   10  O   UNL     1      40.937 -15.064   5.332  1.00  0.00    -0.270 OA
HETATM   11  H   UNL     1      43.929 -15.350   4.205  1.00  0.00     0.170 HD
BRANCH   9  12
HETATM   12  C   UNL     1      41.858 -14.185   3.240  1.00  0.00     0.217 C 
HETATM   13  C   UNL     1      42.118 -12.706   3.528  1.00  0.00     0.050 C 
BRANCH  12  14
HETATM   14  O   UNL     1      40.609 -14.261   2.556  1.00  0.00    -0.337 OA
BRANCH  14  15
HETATM   15  C   UNL     1      40.721 -14.644   1.246  1.00  0.00     0.070 A 
HETATM   16  C   UNL     1      41.379 -15.847   0.998  1.00  0.00     0.037 A 
HETATM   17  C   UNL     1      41.513 -16.313  -0.309  1.00  0.00     0.003 A 
HETATM   18  C   UNL     1      40.971 -15.584  -1.367  1.00  0.00     0.000 A 
HETATM   19  C   UNL     1      40.285 -14.395  -1.115  1.00  0.00     0.003 A 
HETATM   20  C   UNL     1      40.150 -13.928   0.193  1.00  0.00     0.037 A 
ENDBRANCH  14  15
ENDBRANCH  12  14
ENDBRANCH   9  12
ENDBRANCH   6   8
BRANCH   7  21
HETATM   21  C   UNL     1      43.866 -18.486   5.099  1.00  0.00    -0.020 A 
HETATM   22  C   UNL     1      44.864 -19.468   5.147  1.00  0.00     0.014 A 
HETATM   23  C   UNL     1      44.996 -20.388   4.103  1.00  0.00     0.020 A 
HETATM   24  C   UNL     1      44.126 -20.329   3.016  1.00  0.00     0.011 A 
HETATM   25 BR   UNL     1      44.304 -21.573   1.604  1.00  0.00    -0.051 Br
HETATM   26  C   UNL     1      43.125 -19.361   2.962  1.00  0.00     0.020 A 
HETATM   27  C   UNL     1      42.994 -18.439   4.004  1.00  0.00     0.014 A 
ENDBRANCH   7  21
TORSDOF 5
ENDMDL
MODEL 9
REMARK VINA RESULT:      -6.6      4.318      7.135
REMARK  5 active torsions:
REMARK  status: ('A' for Active; 'I' for Inactive)
REMARK    1  A    between atoms: C_6  and  N_7 
REMARK       I    between atoms: N_7  and  C_8 
REMARK    2  A    between atoms: C_8  and  C_9 
REMARK    3  A    between atoms: C_9  and  O_10 
REMARK    4  A    between atoms: O_10  and  C_11 
REMARK    5  A    between atoms: C_19  and  C_20 
ROOT
HETATM    1  C   UNL     1      43.043 -16.814   7.015  1.00  0.00     0.073 C 
HETATM    2  C   UNL     1      42.597 -16.002   5.855  1.00  0.00     0.065 A 
HETATM    3  N   UNL     1      42.149 -14.754   6.048  1.00  0.00    -0.177 NA
HETATM    4  N   UNL     1      41.846 -14.325   4.810  1.00  0.00    -0.262 N 
HETATM    5  H   UNL     1      41.471 -13.388   4.677  1.00  0.00     0.191 HD
HETATM    6  C   UNL     1      42.073 -15.256   3.829  1.00  0.00     0.137 A 
HETATM    7  C   UNL     1      42.577 -16.366   4.480  1.00  0.00     0.046 A 
ENDROOT
BRANCH   6   8
HETATM    8  N   UNL     1      41.804 -15.048   2.488  1.00  0.00    -0.309 N 
HETATM    9  C   UNL     1      42.207 -13.893   1.827  1.00  0.00     0.252 C 
HETATM   10  O   UNL     1      42.854 -12.991   2.358  1.00  0.00    -0.270 OA
HETATM   11  H   UNL     1      41.264 -15.757   2.004  1.00  0.00     0.170 HD
BRANCH   9  12
HETATM   12  C   UNL     1      41.787 -13.877   0.339  1.00  0.00     0.217 C 
HETATM   13  C   UNL     1      42.096 -12.490  -0.225  1.00  0.00     0.050 C 
BRANCH  12  14
HETATM   14  O   UNL     1      40.401 -14.118   0.110  1.00  0.00    -0.337 OA
BRANCH  14  15
HETATM   15  C   UNL     1      40.121 -14.563  -1.155  1.00  0.00     0.070 A 
HETATM   16  C   UNL     1      39.035 -13.975  -1.801  1.00  0.00     0.037 A 
HETATM   17  C   UNL     1      38.702 -14.360  -3.099  1.00  0.00     0.003 A 
HETATM   18  C   UNL     1      39.468 -15.322  -3.757  1.00  0.00     0.000 A 
HETATM   19  C   UNL     1      40.573 -15.887  -3.121  1.00  0.00     0.003 A 
HETATM   20  C   UNL     1      40.908 -15.501  -1.822  1.00  0.00     0.037 A 
ENDBRANCH  14  15
ENDBRANCH  12  14
ENDBRANCH   9  12
ENDBRANCH   6   8
BRANCH   7  21
HETATM   21  C   UNL     1      42.956 -17.605   3.831  1.00  0.00    -0.020 A 
HETATM   22  C   UNL     1      44.001 -18.383   4.345  1.00  0.00     0.014 A 
HETATM   23  C   UNL     1      44.367 -19.576   3.715  1.00  0.00     0.020 A 
HETATM   24  C   UNL     1      43.683 -19.992   2.574  1.00  0.00     0.011 A 
HETATM   25 BR   UNL     1      44.177 -21.605   1.722  1.00  0.00    -0.051 Br
HETATM   26  C   UNL     1      42.637 -19.229   2.058  1.00  0.00     0.020 A 
HETATM   27  C   UNL     1      42.273 -18.035   2.686  1.00  0.00     0.014 A 
ENDBRANCH   7  21
TORSDOF 5
ENDMDL
MODEL 10
REMARK VINA RESULT:      -6.3      4.371      7.083
REMARK  5 active torsions:
REMARK  status: ('A' for Active; 'I' for Inactive)
REMARK    1  A    between atoms: C_6  and  N_7 
REMARK       I    between atoms: N_7  and  C_8 
REMARK    2  A    between atoms: C_8  and  C_9 
REMARK    3  A    between atoms: C_9  and  O_10 
REMARK    4  A    between atoms: O_10  and  C_11 
REMARK    5  A    between atoms: C_19  and  C_20 
ROOT
HETATM    1  C   UNL     1      43.684 -16.743   6.995  1.00  0.00     0.073 C 
HETATM    2  C   UNL     1      43.269 -15.969   5.799  1.00  0.00     0.065 A 
HETATM    3  N   UNL     1      42.920 -14.681   5.925  1.00  0.00    -0.177 NA
HETATM    4  N   UNL     1      42.617 -14.304   4.671  1.00  0.00    -0.262 N 
HETATM    5  H   UNL     1      42.309 -13.351   4.490  1.00  0.00     0.191 HD
HETATM    6  C   UNL     1      42.748 -15.306   3.743  1.00  0.00     0.137 A 
HETATM    7  C   UNL     1      43.185 -16.411   4.449  1.00  0.00     0.046 A 
ENDROOT
BRANCH   6   8
HETATM    8  N   UNL     1      42.459 -15.157   2.399  1.00  0.00    -0.309 N 
HETATM    9  C   UNL     1      41.160 -14.967   1.942  1.00  0.00     0.252 C 
HETATM   10  O   UNL     1      40.180 -14.882   2.682  1.00  0.00    -0.270 OA
HETATM   11  H   UNL     1      43.230 -15.228   1.744  1.00  0.00     0.170 HD
BRANCH   9  12
HETATM   12  C   UNL     1      41.078 -14.835   0.404  1.00  0.00     0.217 C 
HETATM   13  C   UNL     1      41.390 -16.202  -0.206  1.00  0.00     0.050 C 
BRANCH  12  14
HETATM   14  O   UNL     1      42.000 -13.908  -0.164  1.00  0.00    -0.337 OA
BRANCH  14  15
HETATM   15  C   UNL     1      41.573 -13.358  -1.343  1.00  0.00     0.070 A 
HETATM   16  C   UNL     1      40.223 -13.021  -1.426  1.00  0.00     0.037 A 
HETATM   17  C   UNL     1      39.719 -12.436  -2.587  1.00  0.00     0.003 A 
HETATM   18  C   UNL     1      40.571 -12.173  -3.659  1.00  0.00     0.000 A 
HETATM   19  C   UNL     1      41.928 -12.482  -3.564  1.00  0.00     0.003 A 
HETATM   20  C   UNL     1      42.434 -13.067  -2.402  1.00  0.00     0.037 A 
ENDBRANCH  14  15
ENDBRANCH  12  14
ENDBRANCH   9  12
ENDBRANCH   6   8
BRANCH   7  21
HETATM   21  C   UNL     1      43.454 -17.710   3.867  1.00  0.00    -0.020 A 
HETATM   22  C   UNL     1      42.831 -18.094   2.672  1.00  0.00     0.014 A 
HETATM   23  C   UNL     1      43.090 -19.350   2.116  1.00  0.00     0.020 A 
HETATM   24  C   UNL     1      43.976 -20.217   2.750  1.00  0.00     0.011 A 
HETATM   25 BR   UNL     1      44.327 -21.915   1.997  1.00  0.00    -0.051 Br
HETATM   26  C   UNL     1      44.608 -19.843   3.935  1.00  0.00     0.020 A 
HETATM   27  C   UNL     1      44.347 -18.589   4.494  1.00  0.00     0.014 A 
ENDBRANCH   7  21
TORSDOF 5
ENDMDL
