MODEL 1
REMARK VINA RESULT:      -8.5      0.000      0.000
REMARK  6 active torsions:
REMARK  status: ('A' for Active; 'I' for Inactive)
REMARK    1  A    between atoms: C_6  and  C_7 
REMARK    2  A    between atoms: C_7  and  N_8 
REMARK       I    between atoms: N_8  and  C_9 
REMARK       I    between atoms: C_9  and  N_10 
REMARK    3  A    between atoms: N_10  and  C_11 
REMARK    4  A    between atoms: C_11  and  C_12 
REMARK       I    between atoms: C_12  and  N_13 
REMARK    5  A    between atoms: N_13  and  N_14 
REMARK       I    between atoms: N_14  and  C_15 
REMARK    6  A    between atoms: C_15  and  C_16 
ROOT
HETATM    1  C   UNL     1      40.043 -11.908   5.488  1.00  0.00     0.117 C 
HETATM    2  C   UNL     1      41.279 -11.463   4.689  1.00  0.00     0.041 C 
HETATM    3  C   UNL     1      41.034  -9.983   4.437  1.00  0.00     0.003 C 
HETATM    4  C   UNL     1      39.542  -9.884   4.160  1.00  0.00     0.003 C 
HETATM    5  C   UNL     1      38.906 -11.127   4.786  1.00  0.00     0.041 C 
ENDROOT
BRANCH   1   6
HETATM    6  N   UNL     1      39.757 -13.348   5.373  1.00  0.00    -0.325 N 
HETATM    7  C   UNL     1      40.700 -14.307   5.612  1.00  0.00     0.317 C 
HETATM    8  N   UNL     1      40.188 -15.563   5.440  1.00  0.00    -0.339 N 
HETATM    9  O   UNL     1      41.849 -14.065   5.957  1.00  0.00    -0.247 OA
HETATM   10  H   UNL     1      39.533 -15.635   4.676  1.00  0.00     0.164 HD
HETATM   11  H   UNL     1      38.824 -13.632   5.641  1.00  0.00     0.165 HD
BRANCH   8  12
HETATM   12  C   UNL     1      41.055 -16.703   5.650  1.00  0.00     0.162 C 
BRANCH  12  13
HETATM   13  C   UNL     1      41.542 -17.318   4.361  1.00  0.00    -0.039 A 
HETATM   14  C   UNL     1      42.562 -18.282   4.336  1.00  0.00     0.027 A 
HETATM   15  C   UNL     1      43.000 -18.813   3.121  1.00  0.00     0.011 A 
HETATM   16  C   UNL     1      42.452 -18.377   1.917  1.00  0.00     0.019 A 
HETATM   17 BR   UNL     1      44.349 -20.136   3.110  1.00  0.00    -0.051 Br
HETATM   18  C   UNL     1      41.459 -17.398   1.928  1.00  0.00     0.002 A 
HETATM   19  C   UNL     1      41.010 -16.871   3.141  1.00  0.00     0.009 A 
ENDBRANCH  12  13
ENDBRANCH   8  12
ENDBRANCH   1   6
BRANCH   1  20
HETATM   20  C   UNL     1      40.133 -11.512   6.996  1.00  0.00     0.264 C 
HETATM   21  N   UNL     1      41.415 -11.423   7.504  1.00  0.00    -0.265 N 
HETATM   22  H   UNL     1      42.208 -11.857   7.012  1.00  0.00     0.190 HD
HETATM   23  O   UNL     1      39.144 -11.331   7.710  1.00  0.00    -0.269 OA
BRANCH  21  24
HETATM   24  N   UNL     1      41.567 -11.208   8.879  1.00  0.00    -0.262 N 
HETATM   25  C   UNL     1      42.824 -10.974   9.397  1.00  0.00     0.286 C 
HETATM   26  O   UNL     1      43.835 -10.967   8.696  1.00  0.00    -0.264 OA
HETATM   27  H   UNL     1      40.721 -11.227   9.440  1.00  0.00     0.190 HD
BRANCH  25  28
HETATM   28  C   UNL     1      42.876 -10.738  10.824  1.00  0.00     0.102 A 
HETATM   29  N   UNL     1      42.073 -11.450  11.691  1.00  0.00    -0.361 N 
HETATM   30  H   UNL     1      41.415 -12.159  11.390  1.00  0.00     0.165 HD
HETATM   31  C   UNL     1      42.301 -11.058  12.982  1.00  0.00     0.088 A 
HETATM   32  C   UNL     1      43.266 -10.078  12.960  1.00  0.00     0.019 A 
HETATM   33  C   UNL     1      43.628  -9.875  11.604  1.00  0.00     0.036 A 
ENDBRANCH  25  28
ENDBRANCH  21  24
ENDBRANCH   1  20
TORSDOF 6
ENDMDL
MODEL 2
REMARK VINA RESULT:      -8.4      3.948      9.033
REMARK  6 active torsions:
REMARK  status: ('A' for Active; 'I' for Inactive)
REMARK    1  A    between atoms: C_6  and  C_7 
REMARK    2  A    between atoms: C_7  and  N_8 
REMARK       I    between atoms: N_8  and  C_9 
REMARK       I    between atoms: C_9  and  N_10 
REMARK    3  A    between atoms: N_10  and  C_11 
REMARK    4  A    between atoms: C_11  and  C_12 
REMARK       I    between atoms: C_12  and  N_13 
REMARK    5  A    between atoms: N_13  and  N_14 
REMARK       I    between atoms: N_14  and  C_15 
REMARK    6  A    between atoms: C_15  and  C_16 
ROOT
HETATM    1  C   UNL     1      41.772 -14.301   3.816  1.00  0.00     0.117 C 
HETATM    2  C   UNL     1      40.415 -13.730   3.368  1.00  0.00     0.041 C 
HETATM    3  C   UNL     1      40.576 -13.548   1.868  1.00  0.00     0.003 C 
HETATM    4  C   UNL     1      42.004 -13.057   1.692  1.00  0.00     0.003 C 
HETATM    5  C   UNL     1      42.765 -13.492   2.946  1.00  0.00     0.041 C 
ENDROOT
BRANCH   1   6
HETATM    6  N   UNL     1      42.078 -14.044   5.232  1.00  0.00    -0.325 N 
HETATM    7  C   UNL     1      43.347 -13.803   5.679  1.00  0.00     0.317 C 
HETATM    8  N   UNL     1      43.367 -13.593   7.030  1.00  0.00    -0.339 N 
HETATM    9  O   UNL     1      44.330 -13.758   4.953  1.00  0.00    -0.247 OA
HETATM   10  H   UNL     1      42.720 -14.174   7.543  1.00  0.00     0.164 HD
HETATM   11  H   UNL     1      41.371 -13.537   5.748  1.00  0.00     0.165 HD
BRANCH   8  12
HETATM   12  C   UNL     1      44.635 -13.325   7.675  1.00  0.00     0.162 C 
BRANCH  12  13
HETATM   13  C   UNL     1      44.529 -12.308   8.785  1.00  0.00    -0.039 A 
HETATM   14  C   UNL     1      43.398 -11.491   8.939  1.00  0.00     0.027 A 
HETATM   15  C   UNL     1      43.346 -10.547   9.966  1.00  0.00     0.011 A 
HETATM   16  C   UNL     1      44.421 -10.385  10.836  1.00  0.00     0.019 A 
HETATM   17 BR   UNL     1      41.800  -9.480  10.180  1.00  0.00    -0.051 Br
HETATM   18  C   UNL     1      45.562 -11.171  10.674  1.00  0.00     0.002 A 
HETATM   19  C   UNL     1      45.615 -12.123   9.655  1.00  0.00     0.009 A 
ENDBRANCH  12  13
ENDBRANCH   8  12
ENDBRANCH   1   6
BRANCH   1  20
HETATM   20  C   UNL     1      41.902 -15.830   3.520  1.00  0.00     0.264 C 
HETATM   21  N   UNL     1      43.153 -16.242   3.104  1.00  0.00    -0.265 N 
HETATM   22  H   UNL     1      43.841 -15.564   2.749  1.00  0.00     0.190 HD
HETATM   23  O   UNL     1      40.958 -16.619   3.603  1.00  0.00    -0.269 OA
BRANCH  21  24
HETATM   24  N   UNL     1      43.306 -17.571   2.690  1.00  0.00    -0.262 N 
HETATM   25  C   UNL     1      43.913 -18.480   3.531  1.00  0.00     0.286 C 
HETATM   26  O   UNL     1      44.353 -18.165   4.636  1.00  0.00    -0.264 OA
HETATM   27  H   UNL     1      42.944 -17.808   1.772  1.00  0.00     0.190 HD
BRANCH  25  28
HETATM   28  C   UNL     1      44.002 -19.834   3.026  1.00  0.00     0.102 A 
HETATM   29  N   UNL     1      44.644 -20.820   3.746  1.00  0.00    -0.361 N 
HETATM   30  H   UNL     1      45.082 -20.661   4.645  1.00  0.00     0.165 HD
HETATM   31  C   UNL     1      44.594 -22.010   3.072  1.00  0.00     0.088 A 
HETATM   32  C   UNL     1      43.910 -21.800   1.897  1.00  0.00     0.019 A 
HETATM   33  C   UNL     1      43.538 -20.433   1.866  1.00  0.00     0.036 A 
ENDBRANCH  25  28
ENDBRANCH  21  24
ENDBRANCH   1  20
TORSDOF 6
ENDMDL
MODEL 3
REMARK VINA RESULT:      -8.3      2.782      3.630
REMARK  6 active torsions:
REMARK  status: ('A' for Active; 'I' for Inactive)
REMARK    1  A    between atoms: C_6  and  C_7 
REMARK    2  A    between atoms: C_7  and  N_8 
REMARK       I    between atoms: N_8  and  C_9 
REMARK       I    between atoms: C_9  and  N_10 
REMARK    3  A    between atoms: N_10  and  C_11 
REMARK    4  A    between atoms: C_11  and  C_12 
REMARK       I    between atoms: C_12  and  N_13 
REMARK    5  A    between atoms: N_13  and  N_14 
REMARK       I    between atoms: N_14  and  C_15 
REMARK    6  A    between atoms: C_15  and  C_16 
ROOT
HETATM    1  C   UNL     1      41.719 -14.210   3.999  1.00  0.00     0.117 C 
HETATM    2  C   UNL     1      42.005 -13.325   2.773  1.00  0.00     0.041 C 
HETATM    3  C   UNL     1      40.738 -12.501   2.616  1.00  0.00     0.003 C 
HETATM    4  C   UNL     1      39.610 -13.467   2.944  1.00  0.00     0.003 C 
HETATM    5  C   UNL     1      40.232 -14.582   3.787  1.00  0.00     0.041 C 
ENDROOT
BRANCH   1   6
HETATM    6  N   UNL     1      42.510 -15.450   4.025  1.00  0.00    -0.325 N 
HETATM    7  C   UNL     1      42.885 -16.109   2.888  1.00  0.00     0.317 C 
HETATM    8  N   UNL     1      43.612 -17.230   3.179  1.00  0.00    -0.339 N 
HETATM    9  O   UNL     1      42.620 -15.725   1.758  1.00  0.00    -0.247 OA
HETATM   10  H   UNL     1      43.295 -17.720   4.002  1.00  0.00     0.164 HD
HETATM   11  H   UNL     1      43.193 -15.518   4.768  1.00  0.00     0.165 HD
BRANCH   8  12
HETATM   12  C   UNL     1      44.090 -18.052   2.088  1.00  0.00     0.162 C 
BRANCH  12  13
HETATM   13  C   UNL     1      44.151 -19.519   2.439  1.00  0.00    -0.039 A 
HETATM   14  C   UNL     1      44.396 -19.961   3.748  1.00  0.00     0.027 A 
HETATM   15  C   UNL     1      44.466 -21.327   4.028  1.00  0.00     0.011 A 
HETATM   16  C   UNL     1      44.317 -22.269   3.013  1.00  0.00     0.019 A 
HETATM   17 BR   UNL     1      44.762 -21.904   5.804  1.00  0.00    -0.051 Br
HETATM   18  C   UNL     1      44.103 -21.841   1.704  1.00  0.00     0.002 A 
HETATM   19  C   UNL     1      44.022 -20.476   1.419  1.00  0.00     0.009 A 
ENDBRANCH  12  13
ENDBRANCH   8  12
ENDBRANCH   1   6
BRANCH   1  20
HETATM   20  C   UNL     1      41.906 -13.440   5.346  1.00  0.00     0.264 C 
HETATM   21  N   UNL     1      43.168 -13.531   5.902  1.00  0.00    -0.265 N 
HETATM   22  H   UNL     1      43.824 -14.266   5.605  1.00  0.00     0.190 HD
HETATM   23  O   UNL     1      40.996 -12.829   5.910  1.00  0.00    -0.269 OA
BRANCH  21  24
HETATM   24  N   UNL     1      43.369 -12.983   7.175  1.00  0.00    -0.262 N 
HETATM   25  C   UNL     1      44.619 -13.046   7.753  1.00  0.00     0.286 C 
HETATM   26  O   UNL     1      45.575 -13.589   7.201  1.00  0.00    -0.264 OA
HETATM   27  H   UNL     1      42.566 -12.547   7.616  1.00  0.00     0.190 HD
BRANCH  25  28
HETATM   28  C   UNL     1      44.734 -12.430   9.058  1.00  0.00     0.102 A 
HETATM   29  N   UNL     1      43.960 -12.859  10.117  1.00  0.00    -0.361 N 
HETATM   30  H   UNL     1      43.282 -13.608  10.046  1.00  0.00     0.165 HD
HETATM   31  C   UNL     1      44.247 -12.134  11.241  1.00  0.00     0.088 A 
HETATM   32  C   UNL     1      45.221 -11.219  10.915  1.00  0.00     0.019 A 
HETATM   33  C   UNL     1      45.528 -11.403   9.543  1.00  0.00     0.036 A 
ENDBRANCH  25  28
ENDBRANCH  21  24
ENDBRANCH   1  20
TORSDOF 6
ENDMDL
MODEL 4
REMARK VINA RESULT:      -8.0      4.853      8.472
REMARK  6 active torsions:
REMARK  status: ('A' for Active; 'I' for Inactive)
REMARK    1  A    between atoms: C_6  and  C_7 
REMARK    2  A    between atoms: C_7  and  N_8 
REMARK       I    between atoms: N_8  and  C_9 
REMARK       I    between atoms: C_9  and  N_10 
REMARK    3  A    between atoms: N_10  and  C_11 
REMARK    4  A    between atoms: C_11  and  C_12 
REMARK       I    between atoms: C_12  and  N_13 
REMARK    5  A    between atoms: N_13  and  N_14 
REMARK       I    between atoms: N_14  and  C_15 
REMARK    6  A    between atoms: C_15  and  C_16 
ROOT
HETATM    1  C   UNL     1      40.862 -13.600   3.202  1.00  0.00     0.117 C 
HETATM    2  C   UNL     1      39.914 -13.300   4.375  1.00  0.00     0.041 C 
HETATM    3  C   UNL     1      39.140 -12.076   3.913  1.00  0.00     0.003 C 
HETATM    4  C   UNL     1      40.167 -11.227   3.181  1.00  0.00     0.003 C 
HETATM    5  C   UNL     1      41.290 -12.179   2.762  1.00  0.00     0.041 C 
ENDROOT
BRANCH   1   6
HETATM    6  N   UNL     1      42.067 -14.347   3.596  1.00  0.00    -0.325 N 
HETATM    7  C   UNL     1      42.012 -15.497   4.334  1.00  0.00     0.317 C 
HETATM    8  N   UNL     1      43.262 -15.999   4.567  1.00  0.00    -0.339 N 
HETATM    9  O   UNL     1      40.971 -16.015   4.714  1.00  0.00    -0.247 OA
HETATM   10  H   UNL     1      43.963 -15.291   4.730  1.00  0.00     0.164 HD
HETATM   11  H   UNL     1      42.825 -14.341   2.927  1.00  0.00     0.165 HD
BRANCH   8  12
HETATM   12  C   UNL     1      43.391 -17.216   5.339  1.00  0.00     0.162 C 
BRANCH  12  13
HETATM   13  C   UNL     1      43.765 -18.412   4.497  1.00  0.00    -0.039 A 
HETATM   14  C   UNL     1      44.193 -19.620   5.069  1.00  0.00     0.027 A 
HETATM   15  C   UNL     1      44.550 -20.696   4.256  1.00  0.00     0.011 A 
HETATM   16  C   UNL     1      44.512 -20.581   2.869  1.00  0.00     0.019 A 
HETATM   17 BR   UNL     1      45.089 -22.327   5.046  1.00  0.00    -0.051 Br
HETATM   18  C   UNL     1      44.118 -19.377   2.289  1.00  0.00     0.002 A 
HETATM   19  C   UNL     1      43.749 -18.300   3.098  1.00  0.00     0.009 A 
ENDBRANCH  12  13
ENDBRANCH   8  12
ENDBRANCH   1   6
BRANCH   1  20
HETATM   20  C   UNL     1      40.144 -14.345   2.031  1.00  0.00     0.264 C 
HETATM   21  N   UNL     1      40.779 -14.264   0.806  1.00  0.00    -0.265 N 
HETATM   22  H   UNL     1      41.495 -13.546   0.630  1.00  0.00     0.190 HD
HETATM   23  O   UNL     1      39.065 -14.929   2.159  1.00  0.00    -0.269 OA
BRANCH  21  24
HETATM   24  N   UNL     1      40.124 -14.790  -0.313  1.00  0.00    -0.262 N 
HETATM   25  C   UNL     1      39.746 -13.947  -1.338  1.00  0.00     0.286 C 
HETATM   26  O   UNL     1      39.945 -12.734  -1.302  1.00  0.00    -0.264 OA
HETATM   27  H   UNL     1      39.962 -15.792  -0.319  1.00  0.00     0.190 HD
BRANCH  25  28
HETATM   28  C   UNL     1      39.098 -14.587  -2.463  1.00  0.00     0.102 A 
HETATM   29  N   UNL     1      39.679 -15.665  -3.100  1.00  0.00    -0.361 N 
HETATM   30  H   UNL     1      40.571 -16.061  -2.827  1.00  0.00     0.165 HD
HETATM   31  C   UNL     1      38.883 -16.100  -4.124  1.00  0.00     0.088 A 
HETATM   32  C   UNL     1      37.766 -15.297  -4.158  1.00  0.00     0.019 A 
HETATM   33  C   UNL     1      37.900 -14.345  -3.116  1.00  0.00     0.036 A 
ENDBRANCH  25  28
ENDBRANCH  21  24
ENDBRANCH   1  20
TORSDOF 6
ENDMDL
MODEL 5
REMARK VINA RESULT:      -7.9      4.167      5.889
REMARK  6 active torsions:
REMARK  status: ('A' for Active; 'I' for Inactive)
REMARK    1  A    between atoms: C_6  and  C_7 
REMARK    2  A    between atoms: C_7  and  N_8 
REMARK       I    between atoms: N_8  and  C_9 
REMARK       I    between atoms: C_9  and  N_10 
REMARK    3  A    between atoms: N_10  and  C_11 
REMARK    4  A    between atoms: C_11  and  C_12 
REMARK       I    between atoms: C_12  and  N_13 
REMARK    5  A    between atoms: N_13  and  N_14 
REMARK       I    between atoms: N_14  and  C_15 
REMARK    6  A    between atoms: C_15  and  C_16 
ROOT
HETATM    1  C   UNL     1      42.196 -16.459   4.447  1.00  0.00     0.117 C 
HETATM    2  C   UNL     1      41.530 -17.775   4.881  1.00  0.00     0.041 C 
HETATM    3  C   UNL     1      42.614 -18.486   5.675  1.00  0.00     0.003 C 
HETATM    4  C   UNL     1      43.900 -18.186   4.921  1.00  0.00     0.003 C 
HETATM    5  C   UNL     1      43.631 -16.922   4.101  1.00  0.00     0.041 C 
ENDROOT
BRANCH   1   6
HETATM    6  N   UNL     1      41.595 -15.866   3.241  1.00  0.00    -0.325 N 
HETATM    7  C   UNL     1      42.128 -14.777   2.611  1.00  0.00     0.317 C 
HETATM    8  N   UNL     1      41.389 -14.422   1.517  1.00  0.00    -0.339 N 
HETATM    9  O   UNL     1      43.150 -14.211   2.974  1.00  0.00    -0.247 OA
HETATM   10  H   UNL     1      40.394 -14.534   1.644  1.00  0.00     0.164 HD
HETATM   11  H   UNL     1      41.159 -16.519   2.604  1.00  0.00     0.165 HD
BRANCH   8  12
HETATM   12  C   UNL     1      41.810 -13.282   0.732  1.00  0.00     0.162 C 
BRANCH  12  13
HETATM   13  C   UNL     1      41.661 -13.503  -0.754  1.00  0.00    -0.039 A 
HETATM   14  C   UNL     1      41.965 -12.501  -1.688  1.00  0.00     0.027 A 
HETATM   15  C   UNL     1      41.794 -12.737  -3.054  1.00  0.00     0.011 A 
HETATM   16  C   UNL     1      41.297 -13.956  -3.507  1.00  0.00     0.019 A 
HETATM   17 BR   UNL     1      42.244 -11.388  -4.300  1.00  0.00    -0.051 Br
HETATM   18  C   UNL     1      40.962 -14.947  -2.586  1.00  0.00     0.002 A 
HETATM   19  C   UNL     1      41.141 -14.721  -1.220  1.00  0.00     0.009 A 
ENDBRANCH  12  13
ENDBRANCH   8  12
ENDBRANCH   1   6
BRANCH   1  20
HETATM   20  C   UNL     1      42.222 -15.398   5.594  1.00  0.00     0.264 C 
HETATM   21  N   UNL     1      43.473 -14.894   5.899  1.00  0.00    -0.265 N 
HETATM   22  H   UNL     1      44.326 -15.384   5.597  1.00  0.00     0.190 HD
HETATM   23  O   UNL     1      41.219 -15.055   6.223  1.00  0.00    -0.269 OA
BRANCH  21  24
HETATM   24  N   UNL     1      43.590 -14.044   7.005  1.00  0.00    -0.262 N 
HETATM   25  C   UNL     1      44.814 -13.485   7.307  1.00  0.00     0.286 C 
HETATM   26  O   UNL     1      45.827 -13.721   6.650  1.00  0.00    -0.264 OA
HETATM   27  H   UNL     1      42.744 -13.870   7.539  1.00  0.00     0.190 HD
BRANCH  25  28
HETATM   28  C   UNL     1      44.829 -12.602   8.453  1.00  0.00     0.102 A 
HETATM   29  N   UNL     1      43.658 -12.239   9.087  1.00  0.00    -0.361 N 
HETATM   30  H   UNL     1      42.743 -12.559   8.795  1.00  0.00     0.165 HD
HETATM   31  C   UNL     1      43.924 -11.407  10.140  1.00  0.00     0.088 A 
HETATM   32  C   UNL     1      45.286 -11.223  10.197  1.00  0.00     0.019 A 
HETATM   33  C   UNL     1      45.857 -11.972   9.137  1.00  0.00     0.036 A 
ENDBRANCH  25  28
ENDBRANCH  21  24
ENDBRANCH   1  20
TORSDOF 6
ENDMDL
MODEL 6
REMARK VINA RESULT:      -7.8      4.159      5.733
REMARK  6 active torsions:
REMARK  status: ('A' for Active; 'I' for Inactive)
REMARK    1  A    between atoms: C_6  and  C_7 
REMARK    2  A    between atoms: C_7  and  N_8 
REMARK       I    between atoms: N_8  and  C_9 
REMARK       I    between atoms: C_9  and  N_10 
REMARK    3  A    between atoms: N_10  and  C_11 
REMARK    4  A    between atoms: C_11  and  C_12 
REMARK       I    between atoms: C_12  and  N_13 
REMARK    5  A    between atoms: N_13  and  N_14 
REMARK       I    between atoms: N_14  and  C_15 
REMARK    6  A    between atoms: C_15  and  C_16 
ROOT
HETATM    1  C   UNL     1      42.269 -15.806   4.106  1.00  0.00     0.117 C 
HETATM    2  C   UNL     1      41.067 -16.766   4.109  1.00  0.00     0.041 C 
HETATM    3  C   UNL     1      41.482 -17.864   5.076  1.00  0.00     0.003 C 
HETATM    4  C   UNL     1      42.963 -18.074   4.805  1.00  0.00     0.003 C 
HETATM    5  C   UNL     1      43.466 -16.787   4.147  1.00  0.00     0.041 C 
ENDROOT
BRANCH   1   6
HETATM    6  N   UNL     1      42.372 -14.998   2.881  1.00  0.00    -0.325 N 
HETATM    7  C   UNL     1      41.289 -14.399   2.301  1.00  0.00     0.317 C 
HETATM    8  N   UNL     1      41.646 -13.705   1.178  1.00  0.00    -0.339 N 
HETATM    9  O   UNL     1      40.153 -14.461   2.749  1.00  0.00    -0.247 OA
HETATM   10  H   UNL     1      42.365 -14.156   0.631  1.00  0.00     0.164 HD
HETATM   11  H   UNL     1      43.224 -14.463   2.780  1.00  0.00     0.165 HD
BRANCH   8  12
HETATM   12  C   UNL     1      40.618 -13.009   0.433  1.00  0.00     0.162 C 
BRANCH  12  13
HETATM   13  C   UNL     1      40.493 -13.492  -0.991  1.00  0.00    -0.039 A 
HETATM   14  C   UNL     1      39.282 -13.975  -1.509  1.00  0.00     0.027 A 
HETATM   15  C   UNL     1      39.211 -14.432  -2.826  1.00  0.00     0.011 A 
HETATM   16  C   UNL     1      40.344 -14.440  -3.637  1.00  0.00     0.019 A 
HETATM   17 BR   UNL     1      37.562 -15.045  -3.518  1.00  0.00    -0.051 Br
HETATM   18  C   UNL     1      41.560 -13.992  -3.123  1.00  0.00     0.002 A 
HETATM   19  C   UNL     1      41.634 -13.523  -1.810  1.00  0.00     0.009 A 
ENDBRANCH  12  13
ENDBRANCH   8  12
ENDBRANCH   1   6
BRANCH   1  20
HETATM   20  C   UNL     1      42.285 -14.868   5.355  1.00  0.00     0.264 C 
HETATM   21  N   UNL     1      43.541 -14.470   5.774  1.00  0.00    -0.265 N 
HETATM   22  H   UNL     1      44.383 -14.976   5.469  1.00  0.00     0.190 HD
HETATM   23  O   UNL     1      41.267 -14.533   5.964  1.00  0.00    -0.269 OA
BRANCH  21  24
HETATM   24  N   UNL     1      43.638 -13.743   6.967  1.00  0.00    -0.262 N 
HETATM   25  C   UNL     1      44.881 -13.381   7.443  1.00  0.00     0.286 C 
HETATM   26  O   UNL     1      45.924 -13.693   6.869  1.00  0.00    -0.264 OA
HETATM   27  H   UNL     1      42.767 -13.504   7.429  1.00  0.00     0.190 HD
BRANCH  25  28
HETATM   28  C   UNL     1      44.879 -12.610   8.668  1.00  0.00     0.102 A 
HETATM   29  N   UNL     1      44.013 -12.916   9.698  1.00  0.00    -0.361 N 
HETATM   30  H   UNL     1      43.344 -13.675   9.659  1.00  0.00     0.165 HD
HETATM   31  C   UNL     1      44.198 -12.057  10.747  1.00  0.00     0.088 A 
HETATM   32  C   UNL     1      45.198 -11.179  10.400  1.00  0.00     0.019 A 
HETATM   33  C   UNL     1      45.627 -11.524   9.093  1.00  0.00     0.036 A 
ENDBRANCH  25  28
ENDBRANCH  21  24
ENDBRANCH   1  20
TORSDOF 6
ENDMDL
MODEL 7
REMARK VINA RESULT:      -7.8      4.026      7.489
REMARK  6 active torsions:
REMARK  status: ('A' for Active; 'I' for Inactive)
REMARK    1  A    between atoms: C_6  and  C_7 
REMARK    2  A    between atoms: C_7  and  N_8 
REMARK       I    between atoms: N_8  and  C_9 
REMARK       I    between atoms: C_9  and  N_10 
REMARK    3  A    between atoms: N_10  and  C_11 
REMARK    4  A    between atoms: C_11  and  C_12 
REMARK       I    between atoms: C_12  and  N_13 
REMARK    5  A    between atoms: N_13  and  N_14 
REMARK       I    between atoms: N_14  and  C_15 
REMARK    6  A    between atoms: C_15  and  C_16 
ROOT
HETATM    1  C   UNL     1      40.682 -13.152   5.093  1.00  0.00     0.117 C 
HETATM    2  C   UNL     1      39.340 -12.596   5.599  1.00  0.00     0.041 C 
HETATM    3  C   UNL     1      39.131 -11.341   4.767  1.00  0.00     0.003 C 
HETATM    4  C   UNL     1      40.517 -10.727   4.646  1.00  0.00     0.003 C 
HETATM    5  C   UNL     1      41.512 -11.862   4.895  1.00  0.00     0.041 C 
ENDROOT
BRANCH   1   6
HETATM    6  N   UNL     1      41.372 -14.004   6.076  1.00  0.00    -0.325 N 
HETATM    7  C   UNL     1      42.608 -14.541   5.846  1.00  0.00     0.317 C 
HETATM    8  N   UNL     1      43.031 -15.289   6.909  1.00  0.00    -0.339 N 
HETATM    9  O   UNL     1      43.255 -14.351   4.826  1.00  0.00    -0.247 OA
HETATM   10  H   UNL     1      42.294 -15.813   7.358  1.00  0.00     0.164 HD
HETATM   11  H   UNL     1      41.216 -13.767   7.046  1.00  0.00     0.165 HD
BRANCH   8  12
HETATM   12  C   UNL     1      44.323 -15.936   6.834  1.00  0.00     0.162 C 
BRANCH  12  13
HETATM   13  C   UNL     1      44.225 -17.424   6.605  1.00  0.00    -0.039 A 
HETATM   14  C   UNL     1      44.339 -17.989   5.325  1.00  0.00     0.027 A 
HETATM   15  C   UNL     1      44.221 -19.369   5.150  1.00  0.00     0.011 A 
HETATM   16  C   UNL     1      43.964 -20.202   6.236  1.00  0.00     0.019 A 
HETATM   17 BR   UNL     1      44.414 -20.114   3.423  1.00  0.00    -0.051 Br
HETATM   18  C   UNL     1      43.819 -19.650   7.507  1.00  0.00     0.002 A 
HETATM   19  C   UNL     1      43.946 -18.271   7.690  1.00  0.00     0.009 A 
ENDBRANCH  12  13
ENDBRANCH   8  12
ENDBRANCH   1   6
BRANCH   1  20
HETATM   20  C   UNL     1      40.536 -13.924   3.743  1.00  0.00     0.264 C 
HETATM   21  N   UNL     1      41.339 -13.467   2.716  1.00  0.00    -0.265 N 
HETATM   22  H   UNL     1      41.771 -12.534   2.759  1.00  0.00     0.190 HD
HETATM   23  O   UNL     1      39.735 -14.847   3.572  1.00  0.00    -0.269 OA
BRANCH  21  24
HETATM   24  N   UNL     1      41.161 -14.021   1.442  1.00  0.00    -0.262 N 
HETATM   25  C   UNL     1      41.781 -13.440   0.355  1.00  0.00     0.286 C 
HETATM   26  O   UNL     1      42.476 -12.430   0.454  1.00  0.00    -0.264 OA
HETATM   27  H   UNL     1      40.577 -14.849   1.382  1.00  0.00     0.190 HD
BRANCH  25  28
HETATM   28  C   UNL     1      41.558 -14.099  -0.914  1.00  0.00     0.102 A 
HETATM   29  N   UNL     1      41.953 -13.512  -2.099  1.00  0.00    -0.361 N 
HETATM   30  H   UNL     1      42.409 -12.609  -2.150  1.00  0.00     0.165 HD
HETATM   31  C   UNL     1      41.643 -14.320  -3.158  1.00  0.00     0.088 A 
HETATM   32  C   UNL     1      41.037 -15.451  -2.661  1.00  0.00     0.019 A 
HETATM   33  C   UNL     1      40.981 -15.314  -1.251  1.00  0.00     0.036 A 
ENDBRANCH  25  28
ENDBRANCH  21  24
ENDBRANCH   1  20
TORSDOF 6
ENDMDL
MODEL 8
REMARK VINA RESULT:      -7.8      3.878      9.231
REMARK  6 active torsions:
REMARK  status: ('A' for Active; 'I' for Inactive)
REMARK    1  A    between atoms: C_6  and  C_7 
REMARK    2  A    between atoms: C_7  and  N_8 
REMARK       I    between atoms: N_8  and  C_9 
REMARK       I    between atoms: C_9  and  N_10 
REMARK    3  A    between atoms: N_10  and  C_11 
REMARK    4  A    between atoms: C_11  and  C_12 
REMARK       I    between atoms: C_12  and  N_13 
REMARK    5  A    between atoms: N_13  and  N_14 
REMARK       I    between atoms: N_14  and  C_15 
REMARK    6  A    between atoms: C_15  and  C_16 
ROOT
HETATM    1  C   UNL     1      41.584 -13.883   4.799  1.00  0.00     0.117 C 
HETATM    2  C   UNL     1      40.153 -13.512   4.376  1.00  0.00     0.041 C 
HETATM    3  C   UNL     1      40.185 -13.613   2.860  1.00  0.00     0.003 C 
HETATM    4  C   UNL     1      41.547 -13.063   2.467  1.00  0.00     0.003 C 
HETATM    5  C   UNL     1      42.434 -13.189   3.707  1.00  0.00     0.041 C 
ENDROOT
BRANCH   1   6
HETATM    6  N   UNL     1      41.971 -13.334   6.109  1.00  0.00    -0.325 N 
HETATM    7  C   UNL     1      41.827 -12.012   6.425  1.00  0.00     0.317 C 
HETATM    8  N   UNL     1      42.255 -11.754   7.697  1.00  0.00    -0.339 N 
HETATM    9  O   UNL     1      41.353 -11.177   5.667  1.00  0.00    -0.247 OA
HETATM   10  H   UNL     1      43.071 -12.284   7.968  1.00  0.00     0.164 HD
HETATM   11  H   UNL     1      41.832 -13.949   6.899  1.00  0.00     0.165 HD
BRANCH   8  12
HETATM   12  C   UNL     1      42.178 -10.399   8.197  1.00  0.00     0.162 C 
BRANCH  12  13
HETATM   13  C   UNL     1      42.638 -10.271   9.629  1.00  0.00    -0.039 A 
HETATM   14  C   UNL     1      41.875  -9.603  10.598  1.00  0.00     0.027 A 
HETATM   15  C   UNL     1      42.345  -9.488  11.908  1.00  0.00     0.011 A 
HETATM   16  C   UNL     1      43.585 -10.012  12.266  1.00  0.00     0.019 A 
HETATM   17 BR   UNL     1      41.287  -8.616  13.209  1.00  0.00    -0.051 Br
HETATM   18  C   UNL     1      44.365 -10.651  11.304  1.00  0.00     0.002 A 
HETATM   19  C   UNL     1      43.896 -10.778   9.995  1.00  0.00     0.009 A 
ENDBRANCH  12  13
ENDBRANCH   8  12
ENDBRANCH   1   6
BRANCH   1  20
HETATM   20  C   UNL     1      41.827 -15.426   4.786  1.00  0.00     0.264 C 
HETATM   21  N   UNL     1      43.084 -15.819   4.364  1.00  0.00    -0.265 N 
HETATM   22  H   UNL     1      43.690 -15.173   3.840  1.00  0.00     0.190 HD
HETATM   23  O   UNL     1      40.961 -16.252   5.082  1.00  0.00    -0.269 OA
BRANCH  21  24
HETATM   24  N   UNL     1      43.326 -17.187   4.196  1.00  0.00    -0.262 N 
HETATM   25  C   UNL     1      43.734 -17.660   2.966  1.00  0.00     0.286 C 
HETATM   26  O   UNL     1      43.876 -16.924   1.991  1.00  0.00    -0.264 OA
HETATM   27  H   UNL     1      43.194 -17.778   5.011  1.00  0.00     0.190 HD
BRANCH  25  28
HETATM   28  C   UNL     1      43.983 -19.084   2.898  1.00  0.00     0.102 A 
HETATM   29  N   UNL     1      44.594 -19.750   3.941  1.00  0.00    -0.361 N 
HETATM   30  H   UNL     1      44.898 -19.294   4.792  1.00  0.00     0.165 HD
HETATM   31  C   UNL     1      44.716 -21.081   3.650  1.00  0.00     0.088 A 
HETATM   32  C   UNL     1      44.178 -21.290   2.401  1.00  0.00     0.019 A 
HETATM   33  C   UNL     1      43.718 -20.036   1.926  1.00  0.00     0.036 A 
ENDBRANCH  25  28
ENDBRANCH  21  24
ENDBRANCH   1  20
TORSDOF 6
ENDMDL
MODEL 9
REMARK VINA RESULT:      -7.6      1.787      2.309
REMARK  6 active torsions:
REMARK  status: ('A' for Active; 'I' for Inactive)
REMARK    1  A    between atoms: C_6  and  C_7 
REMARK    2  A    between atoms: C_7  and  N_8 
REMARK       I    between atoms: N_8  and  C_9 
REMARK       I    between atoms: C_9  and  N_10 
REMARK    3  A    between atoms: N_10  and  C_11 
REMARK    4  A    between atoms: C_11  and  C_12 
REMARK       I    between atoms: C_12  and  N_13 
REMARK    5  A    between atoms: N_13  and  N_14 
REMARK       I    between atoms: N_14  and  C_15 
REMARK    6  A    between atoms: C_15  and  C_16 
ROOT
HETATM    1  C   UNL     1      40.327 -12.857   4.367  1.00  0.00     0.117 C 
HETATM    2  C   UNL     1      41.482 -12.010   3.808  1.00  0.00     0.041 C 
HETATM    3  C   UNL     1      40.803 -10.729   3.350  1.00  0.00     0.003 C 
HETATM    4  C   UNL     1      39.483 -11.187   2.751  1.00  0.00     0.003 C 
HETATM    5  C   UNL     1      39.191 -12.561   3.358  1.00  0.00     0.041 C 
ENDROOT
BRANCH   1   6
HETATM    6  N   UNL     1      40.599 -14.304   4.350  1.00  0.00    -0.325 N 
HETATM    7  C   UNL     1      41.069 -14.952   3.243  1.00  0.00     0.317 C 
HETATM    8  N   UNL     1      41.241 -16.287   3.483  1.00  0.00    -0.339 N 
HETATM    9  O   UNL     1      41.324 -14.397   2.183  1.00  0.00    -0.247 OA
HETATM   10  H   UNL     1      40.532 -16.689   4.078  1.00  0.00     0.164 HD
HETATM   11  H   UNL     1      40.945 -14.694   5.217  1.00  0.00     0.165 HD
BRANCH   8  12
HETATM   12  C   UNL     1      41.733 -17.129   2.414  1.00  0.00     0.162 C 
BRANCH  12  13
HETATM   13  C   UNL     1      42.739 -18.151   2.883  1.00  0.00    -0.039 A 
HETATM   14  C   UNL     1      42.977 -19.340   2.177  1.00  0.00     0.027 A 
HETATM   15  C   UNL     1      43.902 -20.270   2.655  1.00  0.00     0.011 A 
HETATM   16  C   UNL     1      44.582 -20.046   3.849  1.00  0.00     0.019 A 
HETATM   17 BR   UNL     1      44.236 -21.849   1.670  1.00  0.00    -0.051 Br
HETATM   18  C   UNL     1      44.331 -18.883   4.575  1.00  0.00     0.002 A 
HETATM   19  C   UNL     1      43.415 -17.944   4.097  1.00  0.00     0.009 A 
ENDBRANCH  12  13
ENDBRANCH   8  12
ENDBRANCH   1   6
BRANCH   1  20
HETATM   20  C   UNL     1      39.910 -12.420   5.808  1.00  0.00     0.264 C 
HETATM   21  N   UNL     1      40.935 -11.922   6.590  1.00  0.00    -0.265 N 
HETATM   22  H   UNL     1      41.919 -12.095   6.342  1.00  0.00     0.190 HD
HETATM   23  O   UNL     1      38.766 -12.544   6.250  1.00  0.00    -0.269 OA
BRANCH  21  24
HETATM   24  N   UNL     1      40.663 -11.640   7.933  1.00  0.00    -0.262 N 
HETATM   25  C   UNL     1      41.531 -10.843   8.651  1.00  0.00     0.286 C 
HETATM   26  O   UNL     1      42.559 -10.380   8.161  1.00  0.00    -0.264 OA
HETATM   27  H   UNL     1      39.814 -12.039   8.321  1.00  0.00     0.190 HD
BRANCH  25  28
HETATM   28  C   UNL     1      41.151 -10.588  10.024  1.00  0.00     0.102 A 
HETATM   29  N   UNL     1      41.643 -11.364  11.054  1.00  0.00    -0.361 N 
HETATM   30  H   UNL     1      42.281 -12.139  10.914  1.00  0.00     0.165 HD
HETATM   31  C   UNL     1      41.150 -10.932  12.254  1.00  0.00     0.088 A 
HETATM   32  C   UNL     1      40.325  -9.859  12.008  1.00  0.00     0.019 A 
HETATM   33  C   UNL     1      40.323  -9.642  10.607  1.00  0.00     0.036 A 
ENDBRANCH  25  28
ENDBRANCH  21  24
ENDBRANCH   1  20
TORSDOF 6
ENDMDL
MODEL 10
REMARK VINA RESULT:      -7.6      3.634      6.070
REMARK  6 active torsions:
REMARK  status: ('A' for Active; 'I' for Inactive)
REMARK    1  A    between atoms: C_6  and  C_7 
REMARK    2  A    between atoms: C_7  and  N_8 
REMARK       I    between atoms: N_8  and  C_9 
REMARK       I    between atoms: C_9  and  N_10 
REMARK    3  A    between atoms: N_10  and  C_11 
REMARK    4  A    between atoms: C_11  and  C_12 
REMARK       I    between atoms: C_12  and  N_13 
REMARK    5  A    between atoms: N_13  and  N_14 
REMARK       I    between atoms: N_14  and  C_15 
REMARK    6  A    between atoms: C_15  and  C_16 
ROOT
HETATM    1  C   UNL     1      41.631 -16.728   4.410  1.00  0.00     0.117 C 
HETATM    2  C   UNL     1      41.465 -18.104   5.076  1.00  0.00     0.041 C 
HETATM    3  C   UNL     1      42.869 -18.452   5.545  1.00  0.00     0.003 C 
HETATM    4  C   UNL     1      43.779 -17.952   4.433  1.00  0.00     0.003 C 
HETATM    5  C   UNL     1      42.985 -16.885   3.677  1.00  0.00     0.041 C 
ENDROOT
BRANCH   1   6
HETATM    6  N   UNL     1      40.592 -16.430   3.411  1.00  0.00    -0.325 N 
HETATM    7  C   UNL     1      40.729 -15.440   2.478  1.00  0.00     0.317 C 
HETATM    8  N   UNL     1      39.631 -15.365   1.667  1.00  0.00    -0.339 N 
HETATM    9  O   UNL     1      41.720 -14.731   2.376  1.00  0.00    -0.247 OA
HETATM   10  H   UNL     1      38.758 -15.534   2.144  1.00  0.00     0.164 HD
HETATM   11  H   UNL     1      40.072 -17.227   3.070  1.00  0.00     0.165 HD
BRANCH   8  12
HETATM   12  C   UNL     1      39.605 -14.365   0.621  1.00  0.00     0.162 C 
BRANCH  12  13
HETATM   13  C   UNL     1      38.689 -13.208   0.934  1.00  0.00    -0.039 A 
HETATM   14  C   UNL     1      38.892 -12.379   2.048  1.00  0.00     0.027 A 
HETATM   15  C   UNL     1      38.009 -11.331   2.316  1.00  0.00     0.011 A 
HETATM   16  C   UNL     1      36.903 -11.108   1.500  1.00  0.00     0.019 A 
HETATM   17 BR   UNL     1      38.319 -10.203   3.801  1.00  0.00    -0.051 Br
HETATM   18  C   UNL     1      36.674 -11.944   0.408  1.00  0.00     0.002 A 
HETATM   19  C   UNL     1      37.559 -12.987   0.129  1.00  0.00     0.009 A 
ENDBRANCH  12  13
ENDBRANCH   8  12
ENDBRANCH   1   6
BRANCH   1  20
HETATM   20  C   UNL     1      41.702 -15.566   5.452  1.00  0.00     0.264 C 
HETATM   21  N   UNL     1      42.880 -14.843   5.446  1.00  0.00    -0.265 N 
HETATM   22  H   UNL     1      43.727 -15.220   4.999  1.00  0.00     0.190 HD
HETATM   23  O   UNL     1      40.803 -15.324   6.261  1.00  0.00    -0.269 OA
BRANCH  21  24
HETATM   24  N   UNL     1      43.068 -13.879   6.443  1.00  0.00    -0.262 N 
HETATM   25  C   UNL     1      44.288 -13.789   7.082  1.00  0.00     0.286 C 
HETATM   26  O   UNL     1      45.224 -14.544   6.824  1.00  0.00    -0.264 OA
HETATM   27  H   UNL     1      42.280 -13.272   6.646  1.00  0.00     0.190 HD
BRANCH  25  28
HETATM   28  C   UNL     1      44.393 -12.746   8.079  1.00  0.00     0.102 A 
HETATM   29  N   UNL     1      43.304 -11.965   8.408  1.00  0.00    -0.361 N 
HETATM   30  H   UNL     1      42.391 -12.070   7.982  1.00  0.00     0.165 HD
HETATM   31  C   UNL     1      43.644 -11.056   9.373  1.00  0.00     0.088 A 
HETATM   32  C   UNL     1      44.971 -11.245   9.680  1.00  0.00     0.019 A 
HETATM   33  C   UNL     1      45.444 -12.305   8.867  1.00  0.00     0.036 A 
ENDBRANCH  25  28
ENDBRANCH  21  24
ENDBRANCH   1  20
TORSDOF 6
ENDMDL
