MODEL 1
REMARK VINA RESULT:      -8.6      0.000      0.000
REMARK  8 active torsions:
REMARK  status: ('A' for Active; 'I' for Inactive)
REMARK    1  A    between atoms: C_4  and  N_5 
REMARK    2  A    between atoms: C_7  and  C_8 
REMARK    3  A    between atoms: C_8  and  N_9 
REMARK       I    between atoms: N_9  and  C_10 
REMARK       I    between atoms: C_10  and  N_11 
REMARK    4  A    between atoms: N_11  and  C_12 
REMARK    5  A    between atoms: C_12  and  C_13 
REMARK    6  A    between atoms: C_13  and  N_14 
REMARK       I    between atoms: N_14  and  C_15 
REMARK    7  A    between atoms: C_15  and  C_16 
REMARK    8  A    between atoms: C_17  and  O_18 
ROOT
HETATM    1  N   UNL     1      43.366 -15.032   6.902  1.00  0.00    -0.337 N 
HETATM    2  C   UNL     1      43.247 -13.963   6.067  1.00  0.00     0.316 C 
HETATM    3  N   UNL     1      42.069 -13.295   6.257  1.00  0.00    -0.342 N 
HETATM    4  O   UNL     1      44.092 -13.644   5.241  1.00  0.00    -0.248 OA
HETATM    5  H   UNL     1      42.809 -15.058   7.746  1.00  0.00     0.164 HD
HETATM    6  H   UNL     1      41.316 -13.817   6.680  1.00  0.00     0.164 HD
ENDROOT
BRANCH   1   7
HETATM    7  C   UNL     1      44.610 -15.764   6.971  1.00  0.00     0.185 C 
BRANCH   7   8
HETATM    8  C   UNL     1      44.350 -17.238   6.889  1.00  0.00     0.074 A 
HETATM    9  N   UNL     1      44.534 -17.929   5.753  1.00  0.00    -0.171 NA
HETATM   10  N   UNL     1      44.223 -19.217   6.065  1.00  0.00    -0.245 N 
HETATM   11  C   UNL     1      43.799 -19.320   7.373  1.00  0.00     0.121 A 
HETATM   12  C   UNL     1      43.878 -18.067   7.927  1.00  0.00     0.050 A 
BRANCH  10  13
HETATM   13  C   UNL     1      44.358 -20.257   5.102  1.00  0.00     0.058 A 
HETATM   14  C   UNL     1      44.301 -19.944   3.735  1.00  0.00     0.031 A 
HETATM   15  C   UNL     1      44.445 -20.948   2.775  1.00  0.00     0.002 A 
HETATM   16  C   UNL     1      44.644 -22.269   3.170  1.00  0.00     0.000 A 
HETATM   17  C   UNL     1      44.698 -22.590   4.525  1.00  0.00     0.002 A 
HETATM   18  C   UNL     1      44.557 -21.589   5.493  1.00  0.00     0.031 A 
ENDBRANCH  10  13
ENDBRANCH   7   8
ENDBRANCH   1   7
BRANCH   3  19
HETATM   19  C   UNL     1      41.700 -12.175   5.407  1.00  0.00     0.144 C 
BRANCH  19  20
HETATM   20  C   UNL     1      40.844 -12.607   4.210  1.00  0.00     0.142 C 
BRANCH  20  21
HETATM   21  N   UNL     1      41.495 -13.624   3.392  1.00  0.00    -0.355 N 
HETATM   22  C   UNL     1      41.231 -14.963   3.580  1.00  0.00     0.254 C 
HETATM   23  O   UNL     1      40.456 -15.374   4.441  1.00  0.00    -0.268 OA
HETATM   24  H   UNL     1      42.008 -13.303   2.585  1.00  0.00     0.162 HD
BRANCH  22  25
HETATM   25  C   UNL     1      41.897 -15.946   2.678  1.00  0.00     0.065 A 
HETATM   26  C   UNL     1      41.112 -16.864   1.960  1.00  0.00     0.081 A 
HETATM   27  C   UNL     1      41.701 -17.795   1.106  1.00  0.00     0.037 A 
HETATM   28  C   UNL     1      43.086 -17.834   0.970  1.00  0.00     0.003 A 
HETATM   29  C   UNL     1      43.882 -16.945   1.691  1.00  0.00     0.001 A 
HETATM   30  C   UNL     1      43.294 -16.006   2.546  1.00  0.00     0.020 A 
BRANCH  26  31
HETATM   31  O   UNL     1      39.744 -16.913   2.045  1.00  0.00    -0.360 OA
HETATM   32  H   UNL     1      39.443 -17.720   1.569  1.00  0.00     0.217 HD
ENDBRANCH  26  31
ENDBRANCH  22  25
ENDBRANCH  20  21
ENDBRANCH  19  20
ENDBRANCH   3  19
TORSDOF 8
ENDMDL
MODEL 2
REMARK VINA RESULT:      -8.5      4.806      7.496
REMARK  8 active torsions:
REMARK  status: ('A' for Active; 'I' for Inactive)
REMARK    1  A    between atoms: C_4  and  N_5 
REMARK    2  A    between atoms: C_7  and  C_8 
REMARK    3  A    between atoms: C_8  and  N_9 
REMARK       I    between atoms: N_9  and  C_10 
REMARK       I    between atoms: C_10  and  N_11 
REMARK    4  A    between atoms: N_11  and  C_12 
REMARK    5  A    between atoms: C_12  and  C_13 
REMARK    6  A    between atoms: C_13  and  N_14 
REMARK       I    between atoms: N_14  and  C_15 
REMARK    7  A    between atoms: C_15  and  C_16 
REMARK    8  A    between atoms: C_17  and  O_18 
ROOT
HETATM    1  N   UNL     1      43.310 -14.072   6.641  1.00  0.00    -0.337 N 
HETATM    2  C   UNL     1      44.501 -13.604   7.107  1.00  0.00     0.316 C 
HETATM    3  N   UNL     1      44.419 -13.216   8.416  1.00  0.00    -0.342 N 
HETATM    4  O   UNL     1      45.520 -13.536   6.433  1.00  0.00    -0.248 OA
HETATM    5  H   UNL     1      42.617 -14.393   7.303  1.00  0.00     0.164 HD
HETATM    6  H   UNL     1      43.501 -12.979   8.762  1.00  0.00     0.164 HD
ENDROOT
BRANCH   1   7
HETATM    7  C   UNL     1      43.234 -14.686   5.335  1.00  0.00     0.185 C 
BRANCH   7   8
HETATM    8  C   UNL     1      43.501 -16.157   5.436  1.00  0.00     0.074 A 
HETATM    9  N   UNL     1      43.484 -16.958   4.359  1.00  0.00    -0.171 NA
HETATM   10  N   UNL     1      43.788 -18.198   4.831  1.00  0.00    -0.245 N 
HETATM   11  C   UNL     1      43.943 -18.180   6.201  1.00  0.00     0.121 A 
HETATM   12  C   UNL     1      43.773 -16.882   6.614  1.00  0.00     0.050 A 
BRANCH  10  13
HETATM   13  C   UNL     1      43.915 -19.308   3.949  1.00  0.00     0.058 A 
HETATM   14  C   UNL     1      44.627 -20.443   4.365  1.00  0.00     0.031 A 
HETATM   15  C   UNL     1      44.751 -21.548   3.520  1.00  0.00     0.002 A 
HETATM   16  C   UNL     1      44.170 -21.527   2.254  1.00  0.00     0.000 A 
HETATM   17  C   UNL     1      43.464 -20.403   1.830  1.00  0.00     0.002 A 
HETATM   18  C   UNL     1      43.334 -19.293   2.673  1.00  0.00     0.031 A 
ENDBRANCH  10  13
ENDBRANCH   7   8
ENDBRANCH   1   7
BRANCH   3  19
HETATM   19  C   UNL     1      45.555 -12.602   9.085  1.00  0.00     0.144 C 
BRANCH  19  20
HETATM   20  C   UNL     1      45.363 -11.095   9.297  1.00  0.00     0.142 C 
BRANCH  20  21
HETATM   21  N   UNL     1      44.784 -10.781  10.598  1.00  0.00    -0.355 N 
HETATM   22  C   UNL     1      43.420 -10.673  10.761  1.00  0.00     0.254 C 
HETATM   23  O   UNL     1      42.625 -10.820   9.834  1.00  0.00    -0.268 OA
HETATM   24  H   UNL     1      45.402 -10.812  11.395  1.00  0.00     0.162 HD
BRANCH  22  25
HETATM   25  C   UNL     1      42.893 -10.394  12.128  1.00  0.00     0.065 A 
HETATM   26  C   UNL     1      41.648 -10.926  12.507  1.00  0.00     0.081 A 
HETATM   27  C   UNL     1      41.127 -10.688  13.778  1.00  0.00     0.037 A 
HETATM   28  C   UNL     1      41.834  -9.900  14.683  1.00  0.00     0.003 A 
HETATM   29  C   UNL     1      43.059  -9.348  14.315  1.00  0.00     0.001 A 
HETATM   30  C   UNL     1      43.588  -9.588  13.043  1.00  0.00     0.020 A 
BRANCH  26  31
HETATM   31  O   UNL     1      40.874 -11.696  11.678  1.00  0.00    -0.360 OA
HETATM   32  H   UNL     1      40.153 -12.090  12.221  1.00  0.00     0.217 HD
ENDBRANCH  26  31
ENDBRANCH  22  25
ENDBRANCH  20  21
ENDBRANCH  19  20
ENDBRANCH   3  19
TORSDOF 8
ENDMDL
MODEL 3
REMARK VINA RESULT:      -8.4      4.040      7.283
REMARK  8 active torsions:
REMARK  status: ('A' for Active; 'I' for Inactive)
REMARK    1  A    between atoms: C_4  and  N_5 
REMARK    2  A    between atoms: C_7  and  C_8 
REMARK    3  A    between atoms: C_8  and  N_9 
REMARK       I    between atoms: N_9  and  C_10 
REMARK       I    between atoms: C_10  and  N_11 
REMARK    4  A    between atoms: N_11  and  C_12 
REMARK    5  A    between atoms: C_12  and  C_13 
REMARK    6  A    between atoms: C_13  and  N_14 
REMARK       I    between atoms: N_14  and  C_15 
REMARK    7  A    between atoms: C_15  and  C_16 
REMARK    8  A    between atoms: C_17  and  O_18 
ROOT
HETATM    1  N   UNL     1      43.116 -14.404   4.032  1.00  0.00    -0.337 N 
HETATM    2  C   UNL     1      43.208 -14.563   5.381  1.00  0.00     0.316 C 
HETATM    3  N   UNL     1      44.385 -14.072   5.875  1.00  0.00    -0.342 N 
HETATM    4  O   UNL     1      42.342 -15.089   6.067  1.00  0.00    -0.248 OA
HETATM    5  H   UNL     1      43.692 -13.706   3.582  1.00  0.00     0.164 HD
HETATM    6  H   UNL     1      45.151 -13.993   5.223  1.00  0.00     0.164 HD
ENDROOT
BRANCH   1   7
HETATM    7  C   UNL     1      41.880 -14.706   3.348  1.00  0.00     0.185 C 
BRANCH   7   8
HETATM    8  C   UNL     1      41.959 -16.058   2.704  1.00  0.00     0.074 A 
HETATM    9  N   UNL     1      42.797 -17.008   3.150  1.00  0.00    -0.171 NA
HETATM   10  N   UNL     1      42.575 -18.084   2.345  1.00  0.00    -0.245 N 
HETATM   11  C   UNL     1      41.643 -17.790   1.372  1.00  0.00     0.121 A 
HETATM   12  C   UNL     1      41.226 -16.499   1.584  1.00  0.00     0.050 A 
BRANCH  10  13
HETATM   13  C   UNL     1      43.258 -19.314   2.562  1.00  0.00     0.058 A 
HETATM   14  C   UNL     1      44.076 -19.460   3.694  1.00  0.00     0.031 A 
HETATM   15  C   UNL     1      44.743 -20.663   3.932  1.00  0.00     0.002 A 
HETATM   16  C   UNL     1      44.602 -21.727   3.044  1.00  0.00     0.000 A 
HETATM   17  C   UNL     1      43.795 -21.591   1.916  1.00  0.00     0.002 A 
HETATM   18  C   UNL     1      43.122 -20.389   1.672  1.00  0.00     0.031 A 
ENDBRANCH  10  13
ENDBRANCH   7   8
ENDBRANCH   1   7
BRANCH   3  19
HETATM   19  C   UNL     1      44.725 -14.220   7.280  1.00  0.00     0.144 C 
BRANCH  19  20
HETATM   20  C   UNL     1      45.281 -12.925   7.886  1.00  0.00     0.142 C 
BRANCH  20  21
HETATM   21  N   UNL     1      44.551 -12.505   9.077  1.00  0.00    -0.355 N 
HETATM   22  C   UNL     1      44.892 -11.352   9.750  1.00  0.00     0.254 C 
HETATM   23  O   UNL     1      45.823 -10.629   9.401  1.00  0.00    -0.268 OA
HETATM   24  H   UNL     1      43.693 -12.995   9.285  1.00  0.00     0.162 HD
BRANCH  22  25
HETATM   25  C   UNL     1      44.074 -10.958  10.933  1.00  0.00     0.065 A 
HETATM   26  C   UNL     1      43.699 -11.938  11.868  1.00  0.00     0.081 A 
HETATM   27  C   UNL     1      42.938 -11.605  12.987  1.00  0.00     0.037 A 
HETATM   28  C   UNL     1      42.526 -10.289  13.180  1.00  0.00     0.003 A 
HETATM   29  C   UNL     1      42.871  -9.308  12.251  1.00  0.00     0.001 A 
HETATM   30  C   UNL     1      43.639  -9.638  11.129  1.00  0.00     0.020 A 
BRANCH  26  31
HETATM   31  O   UNL     1      44.042 -13.261  11.751  1.00  0.00    -0.360 OA
HETATM   32  H   UNL     1      43.649 -13.599  10.914  1.00  0.00     0.217 HD
ENDBRANCH  26  31
ENDBRANCH  22  25
ENDBRANCH  20  21
ENDBRANCH  19  20
ENDBRANCH   3  19
TORSDOF 8
ENDMDL
MODEL 4
REMARK VINA RESULT:      -8.3      3.117      6.675
REMARK  8 active torsions:
REMARK  status: ('A' for Active; 'I' for Inactive)
REMARK    1  A    between atoms: C_4  and  N_5 
REMARK    2  A    between atoms: C_7  and  C_8 
REMARK    3  A    between atoms: C_8  and  N_9 
REMARK       I    between atoms: N_9  and  C_10 
REMARK       I    between atoms: C_10  and  N_11 
REMARK    4  A    between atoms: N_11  and  C_12 
REMARK    5  A    between atoms: C_12  and  C_13 
REMARK    6  A    between atoms: C_13  and  N_14 
REMARK       I    between atoms: N_14  and  C_15 
REMARK    7  A    between atoms: C_15  and  C_16 
REMARK    8  A    between atoms: C_17  and  O_18 
ROOT
HETATM    1  N   UNL     1      40.794 -16.209   5.221  1.00  0.00    -0.337 N 
HETATM    2  C   UNL     1      41.874 -16.150   6.048  1.00  0.00     0.316 C 
HETATM    3  N   UNL     1      42.028 -17.301   6.770  1.00  0.00    -0.342 N 
HETATM    4  O   UNL     1      42.614 -15.179   6.138  1.00  0.00    -0.248 OA
HETATM    5  H   UNL     1      40.425 -17.114   4.963  1.00  0.00     0.164 HD
HETATM    6  H   UNL     1      41.205 -17.872   6.893  1.00  0.00     0.164 HD
ENDROOT
BRANCH   1   7
HETATM    7  C   UNL     1      40.561 -15.159   4.256  1.00  0.00     0.185 C 
BRANCH   7   8
HETATM    8  C   UNL     1      40.789 -15.672   2.866  1.00  0.00     0.074 A 
HETATM    9  N   UNL     1      40.839 -14.851   1.805  1.00  0.00    -0.171 NA
HETATM   10  N   UNL     1      41.078 -15.662   0.738  1.00  0.00    -0.245 N 
HETATM   11  C   UNL     1      41.125 -16.985   1.123  1.00  0.00     0.121 A 
HETATM   12  C   UNL     1      40.950 -17.020   2.484  1.00  0.00     0.050 A 
BRANCH  10  13
HETATM   13  C   UNL     1      41.251 -15.122  -0.568  1.00  0.00     0.058 A 
HETATM   14  C   UNL     1      40.961 -15.917  -1.688  1.00  0.00     0.031 A 
HETATM   15  C   UNL     1      41.111 -15.401  -2.977  1.00  0.00     0.002 A 
HETATM   16  C   UNL     1      41.552 -14.093  -3.159  1.00  0.00     0.000 A 
HETATM   17  C   UNL     1      41.845 -13.297  -2.053  1.00  0.00     0.002 A 
HETATM   18  C   UNL     1      41.696 -13.806  -0.759  1.00  0.00     0.031 A 
ENDBRANCH  10  13
ENDBRANCH   7   8
ENDBRANCH   1   7
BRANCH   3  19
HETATM   19  C   UNL     1      43.067 -17.416   7.780  1.00  0.00     0.144 C 
BRANCH  19  20
HETATM   20  C   UNL     1      43.745 -18.792   7.766  1.00  0.00     0.142 C 
BRANCH  20  21
HETATM   21  N   UNL     1      43.599 -19.476   6.487  1.00  0.00    -0.355 N 
HETATM   22  C   UNL     1      44.505 -19.280   5.468  1.00  0.00     0.254 C 
HETATM   23  O   UNL     1      45.465 -18.519   5.569  1.00  0.00    -0.268 OA
HETATM   24  H   UNL     1      42.914 -20.216   6.439  1.00  0.00     0.162 HD
BRANCH  22  25
HETATM   25  C   UNL     1      44.320 -20.046   4.202  1.00  0.00     0.065 A 
HETATM   26  C   UNL     1      44.670 -21.407   4.164  1.00  0.00     0.081 A 
HETATM   27  C   UNL     1      44.508 -22.154   2.998  1.00  0.00     0.037 A 
HETATM   28  C   UNL     1      44.009 -21.548   1.848  1.00  0.00     0.003 A 
HETATM   29  C   UNL     1      43.676 -20.195   1.863  1.00  0.00     0.001 A 
HETATM   30  C   UNL     1      43.833 -19.442   3.032  1.00  0.00     0.020 A 
BRANCH  26  31
HETATM   31  O   UNL     1      45.186 -22.082   5.240  1.00  0.00    -0.360 OA
HETATM   32  H   UNL     1      44.430 -22.406   5.781  1.00  0.00     0.217 HD
ENDBRANCH  26  31
ENDBRANCH  22  25
ENDBRANCH  20  21
ENDBRANCH  19  20
ENDBRANCH   3  19
TORSDOF 8
ENDMDL
MODEL 5
REMARK VINA RESULT:      -8.2      3.730      7.444
REMARK  8 active torsions:
REMARK  status: ('A' for Active; 'I' for Inactive)
REMARK    1  A    between atoms: C_4  and  N_5 
REMARK    2  A    between atoms: C_7  and  C_8 
REMARK    3  A    between atoms: C_8  and  N_9 
REMARK       I    between atoms: N_9  and  C_10 
REMARK       I    between atoms: C_10  and  N_11 
REMARK    4  A    between atoms: N_11  and  C_12 
REMARK    5  A    between atoms: C_12  and  C_13 
REMARK    6  A    between atoms: C_13  and  N_14 
REMARK       I    between atoms: N_14  and  C_15 
REMARK    7  A    between atoms: C_15  and  C_16 
REMARK    8  A    between atoms: C_17  and  O_18 
ROOT
HETATM    1  N   UNL     1      43.785 -14.071   5.994  1.00  0.00    -0.337 N 
HETATM    2  C   UNL     1      42.847 -15.016   5.714  1.00  0.00     0.316 C 
HETATM    3  N   UNL     1      42.014 -14.626   4.703  1.00  0.00    -0.342 N 
HETATM    4  O   UNL     1      42.757 -16.085   6.303  1.00  0.00    -0.248 OA
HETATM    5  H   UNL     1      44.005 -13.376   5.293  1.00  0.00     0.164 HD
HETATM    6  H   UNL     1      41.939 -13.633   4.536  1.00  0.00     0.164 HD
ENDROOT
BRANCH   1   7
HETATM    7  C   UNL     1      44.859 -14.364   6.916  1.00  0.00     0.185 C 
BRANCH   7   8
HETATM    8  C   UNL     1      45.086 -13.203   7.836  1.00  0.00     0.074 A 
HETATM    9  N   UNL     1      44.085 -12.645   8.535  1.00  0.00    -0.171 NA
HETATM   10  N   UNL     1      44.667 -11.651   9.261  1.00  0.00    -0.245 N 
HETATM   11  C   UNL     1      46.014 -11.557   8.978  1.00  0.00     0.121 A 
HETATM   12  C   UNL     1      46.311 -12.546   8.073  1.00  0.00     0.050 A 
BRANCH  10  13
HETATM   13  C   UNL     1      43.906 -10.869  10.174  1.00  0.00     0.058 A 
HETATM   14  C   UNL     1      44.403 -10.639  11.467  1.00  0.00     0.031 A 
HETATM   15  C   UNL     1      43.678  -9.862  12.374  1.00  0.00     0.002 A 
HETATM   16  C   UNL     1      42.454  -9.312  11.999  1.00  0.00     0.000 A 
HETATM   17  C   UNL     1      41.952  -9.537  10.719  1.00  0.00     0.002 A 
HETATM   18  C   UNL     1      42.673 -10.313   9.805  1.00  0.00     0.031 A 
ENDBRANCH  10  13
ENDBRANCH   7   8
ENDBRANCH   1   7
BRANCH   3  19
HETATM   19  C   UNL     1      40.884 -15.449   4.305  1.00  0.00     0.144 C 
BRANCH  19  20
HETATM   20  C   UNL     1      41.063 -16.049   2.905  1.00  0.00     0.142 C 
BRANCH  20  21
HETATM   21  N   UNL     1      41.657 -17.381   2.937  1.00  0.00    -0.355 N 
HETATM   22  C   UNL     1      43.023 -17.552   2.884  1.00  0.00     0.254 C 
HETATM   23  O   UNL     1      43.808 -16.609   2.794  1.00  0.00    -0.268 OA
HETATM   24  H   UNL     1      41.046 -18.150   3.167  1.00  0.00     0.162 HD
BRANCH  22  25
HETATM   25  C   UNL     1      43.565 -18.939   2.968  1.00  0.00     0.065 A 
HETATM   26  C   UNL     1      44.288 -19.328   4.108  1.00  0.00     0.081 A 
HETATM   27  C   UNL     1      44.806 -20.617   4.221  1.00  0.00     0.037 A 
HETATM   28  C   UNL     1      44.624 -21.532   3.187  1.00  0.00     0.003 A 
HETATM   29  C   UNL     1      43.927 -21.156   2.040  1.00  0.00     0.001 A 
HETATM   30  C   UNL     1      43.401 -19.864   1.925  1.00  0.00     0.020 A 
BRANCH  26  31
HETATM   31  O   UNL     1      44.535 -18.490   5.165  1.00  0.00    -0.360 OA
HETATM   32  H   UNL     1      45.370 -18.786   5.594  1.00  0.00     0.217 HD
ENDBRANCH  26  31
ENDBRANCH  22  25
ENDBRANCH  20  21
ENDBRANCH  19  20
ENDBRANCH   3  19
TORSDOF 8
ENDMDL
MODEL 6
REMARK VINA RESULT:      -8.2      4.150      6.984
REMARK  8 active torsions:
REMARK  status: ('A' for Active; 'I' for Inactive)
REMARK    1  A    between atoms: C_4  and  N_5 
REMARK    2  A    between atoms: C_7  and  C_8 
REMARK    3  A    between atoms: C_8  and  N_9 
REMARK       I    between atoms: N_9  and  C_10 
REMARK       I    between atoms: C_10  and  N_11 
REMARK    4  A    between atoms: N_11  and  C_12 
REMARK    5  A    between atoms: C_12  and  C_13 
REMARK    6  A    between atoms: C_13  and  N_14 
REMARK       I    between atoms: N_14  and  C_15 
REMARK    7  A    between atoms: C_15  and  C_16 
REMARK    8  A    between atoms: C_17  and  O_18 
ROOT
HETATM    1  N   UNL     1      41.142 -14.690   6.239  1.00  0.00    -0.337 N 
HETATM    2  C   UNL     1      40.518 -13.496   6.041  1.00  0.00     0.316 C 
HETATM    3  N   UNL     1      41.193 -12.463   6.629  1.00  0.00    -0.342 N 
HETATM    4  O   UNL     1      39.474 -13.367   5.416  1.00  0.00    -0.248 OA
HETATM    5  H   UNL     1      42.125 -14.694   6.476  1.00  0.00     0.164 HD
HETATM    6  H   UNL     1      41.812 -12.701   7.390  1.00  0.00     0.164 HD
ENDROOT
BRANCH   1   7
HETATM    7  C   UNL     1      40.676 -15.875   5.556  1.00  0.00     0.185 C 
BRANCH   7   8
HETATM    8  C   UNL     1      41.761 -16.432   4.685  1.00  0.00     0.074 A 
HETATM    9  N   UNL     1      41.996 -17.752   4.600  1.00  0.00    -0.171 NA
HETATM   10  N   UNL     1      43.022 -17.875   3.713  1.00  0.00    -0.245 N 
HETATM   11  C   UNL     1      43.457 -16.638   3.287  1.00  0.00     0.121 A 
HETATM   12  C   UNL     1      42.661 -15.695   3.889  1.00  0.00     0.050 A 
BRANCH  10  13
HETATM   13  C   UNL     1      43.509 -19.156   3.329  1.00  0.00     0.058 A 
HETATM   14  C   UNL     1      44.377 -19.850   4.187  1.00  0.00     0.031 A 
HETATM   15  C   UNL     1      44.855 -21.114   3.835  1.00  0.00     0.002 A 
HETATM   16  C   UNL     1      44.473 -21.693   2.627  1.00  0.00     0.000 A 
HETATM   17  C   UNL     1      43.614 -21.011   1.768  1.00  0.00     0.002 A 
HETATM   18  C   UNL     1      43.130 -19.745   2.115  1.00  0.00     0.031 A 
ENDBRANCH  10  13
ENDBRANCH   7   8
ENDBRANCH   1   7
BRANCH   3  19
HETATM   19  C   UNL     1      40.652 -11.113   6.616  1.00  0.00     0.144 C 
BRANCH  19  20
HETATM   20  C   UNL     1      41.618 -10.091   7.228  1.00  0.00     0.142 C 
BRANCH  20  21
HETATM   21  N   UNL     1      41.603 -10.109   8.686  1.00  0.00    -0.355 N 
HETATM   22  C   UNL     1      42.704 -10.525   9.403  1.00  0.00     0.254 C 
HETATM   23  O   UNL     1      43.741 -10.910   8.866  1.00  0.00    -0.268 OA
HETATM   24  H   UNL     1      40.827  -9.653   9.143  1.00  0.00     0.162 HD
BRANCH  22  25
HETATM   25  C   UNL     1      42.637 -10.475  10.892  1.00  0.00     0.065 A 
HETATM   26  C   UNL     1      41.556 -11.083  11.553  1.00  0.00     0.081 A 
HETATM   27  C   UNL     1      41.462 -11.059  12.943  1.00  0.00     0.037 A 
HETATM   28  C   UNL     1      42.440 -10.411  13.694  1.00  0.00     0.003 A 
HETATM   29  C   UNL     1      43.508  -9.784  13.053  1.00  0.00     0.001 A 
HETATM   30  C   UNL     1      43.607  -9.811  11.658  1.00  0.00     0.020 A 
BRANCH  26  31
HETATM   31  O   UNL     1      40.538 -11.726  10.896  1.00  0.00    -0.360 OA
HETATM   32  H   UNL     1      40.827 -11.875   9.967  1.00  0.00     0.217 HD
ENDBRANCH  26  31
ENDBRANCH  22  25
ENDBRANCH  20  21
ENDBRANCH  19  20
ENDBRANCH   3  19
TORSDOF 8
ENDMDL
MODEL 7
REMARK VINA RESULT:      -8.0      4.515      8.369
REMARK  8 active torsions:
REMARK  status: ('A' for Active; 'I' for Inactive)
REMARK    1  A    between atoms: C_4  and  N_5 
REMARK    2  A    between atoms: C_7  and  C_8 
REMARK    3  A    between atoms: C_8  and  N_9 
REMARK       I    between atoms: N_9  and  C_10 
REMARK       I    between atoms: C_10  and  N_11 
REMARK    4  A    between atoms: N_11  and  C_12 
REMARK    5  A    between atoms: C_12  and  C_13 
REMARK    6  A    between atoms: C_13  and  N_14 
REMARK       I    between atoms: N_14  and  C_15 
REMARK    7  A    between atoms: C_15  and  C_16 
REMARK    8  A    between atoms: C_17  and  O_18 
ROOT
HETATM    1  N   UNL     1      39.606 -12.923   7.387  1.00  0.00    -0.337 N 
HETATM    2  C   UNL     1      40.185 -13.397   6.250  1.00  0.00     0.316 C 
HETATM    3  N   UNL     1      40.068 -14.755   6.145  1.00  0.00    -0.342 N 
HETATM    4  O   UNL     1      40.749 -12.690   5.425  1.00  0.00    -0.248 OA
HETATM    5  H   UNL     1      38.906 -13.486   7.851  1.00  0.00     0.164 HD
HETATM    6  H   UNL     1      39.919 -15.264   7.003  1.00  0.00     0.164 HD
ENDROOT
BRANCH   1   7
HETATM    7  C   UNL     1      39.477 -11.498   7.597  1.00  0.00     0.185 C 
BRANCH   7   8
HETATM    8  C   UNL     1      40.595 -10.998   8.460  1.00  0.00     0.074 A 
HETATM    9  N   UNL     1      40.484 -10.926   9.796  1.00  0.00    -0.171 NA
HETATM   10  N   UNL     1      41.684 -10.454  10.230  1.00  0.00    -0.245 N 
HETATM   11  C   UNL     1      42.521 -10.183   9.168  1.00  0.00     0.121 A 
HETATM   12  C   UNL     1      41.851 -10.530   8.021  1.00  0.00     0.050 A 
BRANCH  10  13
HETATM   13  C   UNL     1      41.953 -10.300  11.619  1.00  0.00     0.058 A 
HETATM   14  C   UNL     1      43.152  -9.695  12.028  1.00  0.00     0.031 A 
HETATM   15  C   UNL     1      43.427  -9.522  13.386  1.00  0.00     0.002 A 
HETATM   16  C   UNL     1      42.513  -9.952  14.345  1.00  0.00     0.000 A 
HETATM   17  C   UNL     1      41.321 -10.557  13.949  1.00  0.00     0.002 A 
HETATM   18  C   UNL     1      41.038 -10.731  12.590  1.00  0.00     0.031 A 
ENDBRANCH  10  13
ENDBRANCH   7   8
ENDBRANCH   1   7
BRANCH   3  19
HETATM   19  C   UNL     1      40.696 -15.476   5.050  1.00  0.00     0.144 C 
BRANCH  19  20
HETATM   20  C   UNL     1      42.167 -15.804   5.334  1.00  0.00     0.142 C 
BRANCH  20  21
HETATM   21  N   UNL     1      42.538 -17.144   4.895  1.00  0.00    -0.355 N 
HETATM   22  C   UNL     1      43.219 -17.342   3.714  1.00  0.00     0.254 C 
HETATM   23  O   UNL     1      43.537 -16.419   2.966  1.00  0.00    -0.268 OA
HETATM   24  H   UNL     1      42.427 -17.893   5.563  1.00  0.00     0.162 HD
BRANCH  22  25
HETATM   25  C   UNL     1      43.607 -18.735   3.348  1.00  0.00     0.065 A 
HETATM   26  C   UNL     1      44.462 -19.457   4.197  1.00  0.00     0.081 A 
HETATM   27  C   UNL     1      44.842 -20.762   3.888  1.00  0.00     0.037 A 
HETATM   28  C   UNL     1      44.387 -21.359   2.715  1.00  0.00     0.003 A 
HETATM   29  C   UNL     1      43.556 -20.649   1.850  1.00  0.00     0.001 A 
HETATM   30  C   UNL     1      43.168 -19.341   2.160  1.00  0.00     0.020 A 
BRANCH  26  31
HETATM   31  O   UNL     1      44.974 -18.946   5.362  1.00  0.00    -0.360 OA
HETATM   32  H   UNL     1      45.478 -19.664   5.809  1.00  0.00     0.217 HD
ENDBRANCH  26  31
ENDBRANCH  22  25
ENDBRANCH  20  21
ENDBRANCH  19  20
ENDBRANCH   3  19
TORSDOF 8
ENDMDL
MODEL 8
REMARK VINA RESULT:      -8.0      3.487      6.211
REMARK  8 active torsions:
REMARK  status: ('A' for Active; 'I' for Inactive)
REMARK    1  A    between atoms: C_4  and  N_5 
REMARK    2  A    between atoms: C_7  and  C_8 
REMARK    3  A    between atoms: C_8  and  N_9 
REMARK       I    between atoms: N_9  and  C_10 
REMARK       I    between atoms: C_10  and  N_11 
REMARK    4  A    between atoms: N_11  and  C_12 
REMARK    5  A    between atoms: C_12  and  C_13 
REMARK    6  A    between atoms: C_13  and  N_14 
REMARK       I    between atoms: N_14  and  C_15 
REMARK    7  A    between atoms: C_15  and  C_16 
REMARK    8  A    between atoms: C_17  and  O_18 
ROOT
HETATM    1  N   UNL     1      42.192 -14.598   6.120  1.00  0.00    -0.337 N 
HETATM    2  C   UNL     1      41.462 -13.502   5.774  1.00  0.00     0.316 C 
HETATM    3  N   UNL     1      40.339 -13.372   6.544  1.00  0.00    -0.342 N 
HETATM    4  O   UNL     1      41.772 -12.730   4.876  1.00  0.00    -0.248 OA
HETATM    5  H   UNL     1      42.064 -15.000   7.039  1.00  0.00     0.164 HD
HETATM    6  H   UNL     1      39.995 -14.210   6.988  1.00  0.00     0.164 HD
ENDROOT
BRANCH   1   7
HETATM    7  C   UNL     1      43.496 -14.814   5.538  1.00  0.00     0.185 C 
BRANCH   7   8
HETATM    8  C   UNL     1      43.832 -16.275   5.545  1.00  0.00     0.074 A 
HETATM    9  N   UNL     1      43.616 -17.059   4.476  1.00  0.00    -0.171 NA
HETATM   10  N   UNL     1      44.056 -18.293   4.843  1.00  0.00    -0.245 N 
HETATM   11  C   UNL     1      44.496 -18.292   6.150  1.00  0.00     0.121 A 
HETATM   12  C   UNL     1      44.370 -17.008   6.622  1.00  0.00     0.050 A 
BRANCH  10  13
HETATM   13  C   UNL     1      44.035 -19.382   3.927  1.00  0.00     0.058 A 
HETATM   14  C   UNL     1      43.333 -19.252   2.717  1.00  0.00     0.031 A 
HETATM   15  C   UNL     1      43.312 -20.304   1.799  1.00  0.00     0.002 A 
HETATM   16  C   UNL     1      43.985 -21.490   2.079  1.00  0.00     0.000 A 
HETATM   17  C   UNL     1      44.681 -21.629   3.278  1.00  0.00     0.002 A 
HETATM   18  C   UNL     1      44.709 -20.579   4.203  1.00  0.00     0.031 A 
ENDBRANCH  10  13
ENDBRANCH   7   8
ENDBRANCH   1   7
BRANCH   3  19
HETATM   19  C   UNL     1      39.371 -12.319   6.282  1.00  0.00     0.144 C 
BRANCH  19  20
HETATM   20  C   UNL     1      39.749 -10.997   6.961  1.00  0.00     0.142 C 
BRANCH  20  21
HETATM   21  N   UNL     1      40.356 -11.194   8.273  1.00  0.00    -0.355 N 
HETATM   22  C   UNL     1      41.528 -10.556   8.616  1.00  0.00     0.254 C 
HETATM   23  O   UNL     1      42.128  -9.807   7.847  1.00  0.00    -0.268 OA
HETATM   24  H   UNL     1      39.803 -11.674   8.966  1.00  0.00     0.162 HD
BRANCH  22  25
HETATM   25  C   UNL     1      42.070 -10.766   9.990  1.00  0.00     0.065 A 
HETATM   26  C   UNL     1      43.461 -10.821  10.180  1.00  0.00     0.081 A 
HETATM   27  C   UNL     1      44.002 -11.014  11.450  1.00  0.00     0.037 A 
HETATM   28  C   UNL     1      43.159 -11.171  12.547  1.00  0.00     0.003 A 
HETATM   29  C   UNL     1      41.777 -11.141  12.373  1.00  0.00     0.001 A 
HETATM   30  C   UNL     1      41.230 -10.943  11.101  1.00  0.00     0.020 A 
BRANCH  26  31
HETATM   31  O   UNL     1      44.366 -10.695   9.157  1.00  0.00    -0.360 OA
HETATM   32  H   UNL     1      45.210 -10.365   9.543  1.00  0.00     0.217 HD
ENDBRANCH  26  31
ENDBRANCH  22  25
ENDBRANCH  20  21
ENDBRANCH  19  20
ENDBRANCH   3  19
TORSDOF 8
ENDMDL
MODEL 9
REMARK VINA RESULT:      -7.8      3.569      6.617
REMARK  8 active torsions:
REMARK  status: ('A' for Active; 'I' for Inactive)
REMARK    1  A    between atoms: C_4  and  N_5 
REMARK    2  A    between atoms: C_7  and  C_8 
REMARK    3  A    between atoms: C_8  and  N_9 
REMARK       I    between atoms: N_9  and  C_10 
REMARK       I    between atoms: C_10  and  N_11 
REMARK    4  A    between atoms: N_11  and  C_12 
REMARK    5  A    between atoms: C_12  and  C_13 
REMARK    6  A    between atoms: C_13  and  N_14 
REMARK       I    between atoms: N_14  and  C_15 
REMARK    7  A    between atoms: C_15  and  C_16 
REMARK    8  A    between atoms: C_17  and  O_18 
ROOT
HETATM    1  N   UNL     1      42.256 -14.509   5.128  1.00  0.00    -0.337 N 
HETATM    2  C   UNL     1      41.236 -13.607   5.154  1.00  0.00     0.316 C 
HETATM    3  N   UNL     1      40.710 -13.467   6.408  1.00  0.00    -0.342 N 
HETATM    4  O   UNL     1      40.836 -13.000   4.169  1.00  0.00    -0.248 OA
HETATM    5  H   UNL     1      42.735 -14.730   5.990  1.00  0.00     0.164 HD
HETATM    6  H   UNL     1      40.852 -14.235   7.047  1.00  0.00     0.164 HD
ENDROOT
BRANCH   1   7
HETATM    7  C   UNL     1      43.050 -14.672   3.931  1.00  0.00     0.185 C 
BRANCH   7   8
HETATM    8  C   UNL     1      42.770 -16.003   3.301  1.00  0.00     0.074 A 
HETATM    9  N   UNL     1      43.547 -17.074   3.528  1.00  0.00    -0.171 NA
HETATM   10  N   UNL     1      42.978 -18.085   2.816  1.00  0.00    -0.245 N 
HETATM   11  C   UNL     1      41.884 -17.636   2.107  1.00  0.00     0.121 A 
HETATM   12  C   UNL     1      41.723 -16.305   2.405  1.00  0.00     0.050 A 
BRANCH  10  13
HETATM   13  C   UNL     1      43.510 -19.405   2.864  1.00  0.00     0.058 A 
HETATM   14  C   UNL     1      43.255 -20.291   1.805  1.00  0.00     0.031 A 
HETATM   15  C   UNL     1      43.780 -21.585   1.827  1.00  0.00     0.002 A 
HETATM   16  C   UNL     1      44.557 -22.005   2.903  1.00  0.00     0.000 A 
HETATM   17  C   UNL     1      44.813 -21.134   3.960  1.00  0.00     0.002 A 
HETATM   18  C   UNL     1      44.293 -19.835   3.944  1.00  0.00     0.031 A 
ENDBRANCH  10  13
ENDBRANCH   7   8
ENDBRANCH   1   7
BRANCH   3  19
HETATM   19  C   UNL     1      39.552 -12.619   6.642  1.00  0.00     0.144 C 
BRANCH  19  20
HETATM   20  C   UNL     1      39.945 -11.190   7.037  1.00  0.00     0.142 C 
BRANCH  20  21
HETATM   21  N   UNL     1      40.652 -11.134   8.311  1.00  0.00    -0.355 N 
HETATM   22  C   UNL     1      41.745 -10.314   8.482  1.00  0.00     0.254 C 
HETATM   23  O   UNL     1      42.191  -9.603   7.583  1.00  0.00    -0.268 OA
HETATM   24  H   UNL     1      40.212 -11.585   9.099  1.00  0.00     0.162 HD
BRANCH  22  25
HETATM   25  C   UNL     1      42.393 -10.272   9.825  1.00  0.00     0.065 A 
HETATM   26  C   UNL     1      43.737 -10.661   9.953  1.00  0.00     0.081 A 
HETATM   27  C   UNL     1      44.374 -10.631  11.192  1.00  0.00     0.037 A 
HETATM   28  C   UNL     1      43.673 -10.228  12.325  1.00  0.00     0.003 A 
HETATM   29  C   UNL     1      42.333  -9.859  12.219  1.00  0.00     0.001 A 
HETATM   30  C   UNL     1      41.691  -9.883  10.977  1.00  0.00     0.020 A 
BRANCH  26  31
HETATM   31  O   UNL     1      44.500 -11.090   8.898  1.00  0.00    -0.360 OA
HETATM   32  H   UNL     1      44.524 -12.074   8.926  1.00  0.00     0.217 HD
ENDBRANCH  26  31
ENDBRANCH  22  25
ENDBRANCH  20  21
ENDBRANCH  19  20
ENDBRANCH   3  19
TORSDOF 8
ENDMDL
MODEL 10
REMARK VINA RESULT:      -7.7      1.844      2.364
REMARK  8 active torsions:
REMARK  status: ('A' for Active; 'I' for Inactive)
REMARK    1  A    between atoms: C_4  and  N_5 
REMARK    2  A    between atoms: C_7  and  C_8 
REMARK    3  A    between atoms: C_8  and  N_9 
REMARK       I    between atoms: N_9  and  C_10 
REMARK       I    between atoms: C_10  and  N_11 
REMARK    4  A    between atoms: N_11  and  C_12 
REMARK    5  A    between atoms: C_12  and  C_13 
REMARK    6  A    between atoms: C_13  and  N_14 
REMARK       I    between atoms: N_14  and  C_15 
REMARK    7  A    between atoms: C_15  and  C_16 
REMARK    8  A    between atoms: C_17  and  O_18 
ROOT
HETATM    1  N   UNL     1      41.595 -13.912   5.864  1.00  0.00    -0.337 N 
HETATM    2  C   UNL     1      41.101 -12.721   5.428  1.00  0.00     0.316 C 
HETATM    3  N   UNL     1      39.736 -12.732   5.348  1.00  0.00    -0.342 N 
HETATM    4  O   UNL     1      41.799 -11.758   5.138  1.00  0.00    -0.248 OA
HETATM    5  H   UNL     1      40.985 -14.538   6.374  1.00  0.00     0.164 HD
HETATM    6  H   UNL     1      39.296 -13.636   5.261  1.00  0.00     0.164 HD
ENDROOT
BRANCH   1   7
HETATM    7  C   UNL     1      43.000 -14.046   6.176  1.00  0.00     0.185 C 
BRANCH   7   8
HETATM    8  C   UNL     1      43.385 -15.493   6.226  1.00  0.00     0.074 A 
HETATM    9  N   UNL     1      43.479 -16.242   5.115  1.00  0.00    -0.171 NA
HETATM   10  N   UNL     1      43.866 -17.474   5.547  1.00  0.00    -0.245 N 
HETATM   11  C   UNL     1      43.963 -17.507   6.922  1.00  0.00     0.121 A 
HETATM   12  C   UNL     1      43.667 -16.248   7.383  1.00  0.00     0.050 A 
BRANCH  10  13
HETATM   13  C   UNL     1      44.122 -18.527   4.625  1.00  0.00     0.058 A 
HETATM   14  C   UNL     1      43.729 -18.382   3.285  1.00  0.00     0.031 A 
HETATM   15  C   UNL     1      43.984 -19.398   2.361  1.00  0.00     0.002 A 
HETATM   16  C   UNL     1      44.629 -20.564   2.766  1.00  0.00     0.000 A 
HETATM   17  C   UNL     1      45.020 -20.718   4.094  1.00  0.00     0.002 A 
HETATM   18  C   UNL     1      44.770 -19.704   5.025  1.00  0.00     0.031 A 
ENDBRANCH  10  13
ENDBRANCH   7   8
ENDBRANCH   1   7
BRANCH   3  19
HETATM   19  C   UNL     1      39.010 -11.590   4.819  1.00  0.00     0.144 C 
BRANCH  19  20
HETATM   20  C   UNL     1      38.740 -11.715   3.314  1.00  0.00     0.142 C 
BRANCH  20  21
HETATM   21  N   UNL     1      39.104 -13.025   2.786  1.00  0.00    -0.355 N 
HETATM   22  C   UNL     1      40.249 -13.197   2.040  1.00  0.00     0.254 C 
HETATM   23  O   UNL     1      41.011 -12.271   1.768  1.00  0.00    -0.268 OA
HETATM   24  H   UNL     1      38.581 -13.818   3.127  1.00  0.00     0.162 HD
BRANCH  22  25
HETATM   25  C   UNL     1      40.585 -14.572   1.570  1.00  0.00     0.065 A 
HETATM   26  C   UNL     1      40.415 -15.659   2.444  1.00  0.00     0.081 A 
HETATM   27  C   UNL     1      40.716 -16.958   2.037  1.00  0.00     0.037 A 
HETATM   28  C   UNL     1      41.207 -17.187   0.754  1.00  0.00     0.003 A 
HETATM   29  C   UNL     1      41.401 -16.118  -0.118  1.00  0.00     0.001 A 
HETATM   30  C   UNL     1      41.096 -14.814   0.285  1.00  0.00     0.020 A 
BRANCH  26  31
HETATM   31  O   UNL     1      39.956 -15.527   3.729  1.00  0.00    -0.360 OA
HETATM   32  H   UNL     1      39.508 -16.368   3.976  1.00  0.00     0.217 HD
ENDBRANCH  26  31
ENDBRANCH  22  25
ENDBRANCH  20  21
ENDBRANCH  19  20
ENDBRANCH   3  19
TORSDOF 8
ENDMDL
