MODEL 1
REMARK VINA RESULT:      -9.5      0.000      0.000
REMARK  6 active torsions:
REMARK  status: ('A' for Active; 'I' for Inactive)
REMARK    1  A    between atoms: C_4  and  C_5 
REMARK    2  A    between atoms: C_5  and  C_6 
REMARK    3  A    between atoms: C_10  and  C_11 
REMARK    4  A    between atoms: C_10  and  C_15 
REMARK    5  A    between atoms: N_19  and  C_20 
REMARK    6  A    between atoms: C_20  and  C_21 
ROOT
HETATM    1  C   UNL     1      43.153 -17.427   2.745  1.00  0.00     0.084 C 
HETATM    2  N   UNL     1      42.186 -16.782   2.129  1.00  0.00    -0.331 N 
HETATM    3  C   UNL     1      41.386 -15.852   2.753  1.00  0.00     0.128 C 
HETATM    4  C   UNL     1      41.514 -15.668   4.075  1.00  0.00     0.100 C 
HETATM    5  C   UNL     1      42.475 -16.433   4.953  1.00  0.00     0.264 C 
HETATM    6  N   UNL     1      40.473 -15.127   2.003  1.00  0.00    -0.278 N 
HETATM    7  C   UNL     1      39.586 -14.238   2.592  1.00  0.00     0.331 C 
HETATM    8  O   UNL     1      38.759 -13.575   1.977  1.00  0.00    -0.246 OA
HETATM    9  N   UNL     1      39.690 -14.107   3.944  1.00  0.00    -0.275 N 
HETATM   10  C   UNL     1      40.642 -14.679   4.716  1.00  0.00     0.262 C 
HETATM   11  O   UNL     1      40.796 -14.405   5.895  1.00  0.00    -0.267 OA
HETATM   12  N   UNL     1      43.381 -17.269   4.031  1.00  0.00    -0.351 N 
HETATM   13  H   UNL     1      44.160 -17.777   4.463  1.00  0.00     0.162 HD
HETATM   14  H   UNL     1      42.016 -17.022   1.150  1.00  0.00     0.168 HD
HETATM   15  H   UNL     1      39.083 -13.418   4.374  1.00  0.00     0.173 HD
ENDROOT
BRANCH   5  16
HETATM   16  C   UNL     1      41.760 -17.414   5.887  1.00  0.00     0.426 C 
HETATM   17  F   UNL     1      40.695 -17.952   5.232  1.00  0.00    -0.168 F 
HETATM   18  F   UNL     1      42.575 -18.452   6.192  1.00  0.00    -0.168 F 
HETATM   19  F   UNL     1      41.299 -16.889   7.028  1.00  0.00    -0.168 F 
ENDBRANCH   5  16
BRANCH   5  20
HETATM   20  C   UNL     1      43.400 -15.596   5.844  1.00  0.00     0.426 C 
HETATM   21  F   UNL     1      43.807 -14.489   5.175  1.00  0.00    -0.168 F 
HETATM   22  F   UNL     1      42.907 -15.226   7.029  1.00  0.00    -0.168 F 
HETATM   23  F   UNL     1      44.531 -16.318   6.091  1.00  0.00    -0.168 F 
ENDBRANCH   5  20
BRANCH   1  24
HETATM   24  C   UNL     1      44.025 -18.352   1.961  1.00  0.00     0.114 C 
BRANCH  24  25
HETATM   25  C   UNL     1      44.172 -19.742   2.535  1.00  0.00    -0.051 A 
HETATM   26  C   UNL     1      43.897 -20.849   1.715  1.00  0.00     0.007 A 
HETATM   27  C   UNL     1      44.088 -22.150   2.185  1.00  0.00     0.001 A 
HETATM   28  C   UNL     1      44.563 -22.361   3.475  1.00  0.00     0.000 A 
HETATM   29  C   UNL     1      44.850 -21.275   4.295  1.00  0.00     0.001 A 
HETATM   30  C   UNL     1      44.663 -19.972   3.828  1.00  0.00     0.007 A 
ENDBRANCH  24  25
ENDBRANCH   1  24
BRANCH   6  31
HETATM   31  C   UNL     1      40.398 -15.237   0.541  1.00  0.00     0.200 C 
BRANCH  31  32
HETATM   32  C   UNL     1      41.192 -14.148  -0.084  1.00  0.00     0.070 A 
HETATM   33  O   UNL     1      41.385 -14.240  -1.436  1.00  0.00    -0.325 OA
HETATM   34  C   UNL     1      42.119 -13.155  -1.801  1.00  0.00     0.142 A 
HETATM   35  C   UNL     1      42.394 -12.370  -0.706  1.00  0.00     0.027 A 
HETATM   36  C   UNL     1      41.795 -13.009   0.405  1.00  0.00     0.036 A 
ENDBRANCH  31  32
ENDBRANCH   6  31
TORSDOF 6
ENDMDL
MODEL 2
REMARK VINA RESULT:      -8.7      3.074      5.594
REMARK  6 active torsions:
REMARK  status: ('A' for Active; 'I' for Inactive)
REMARK    1  A    between atoms: C_4  and  C_5 
REMARK    2  A    between atoms: C_5  and  C_6 
REMARK    3  A    between atoms: C_10  and  C_11 
REMARK    4  A    between atoms: C_10  and  C_15 
REMARK    5  A    between atoms: N_19  and  C_20 
REMARK    6  A    between atoms: C_20  and  C_21 
ROOT
HETATM    1  C   UNL     1      40.962 -16.535   1.767  1.00  0.00     0.084 C 
HETATM    2  N   UNL     1      40.899 -16.190   3.035  1.00  0.00    -0.331 N 
HETATM    3  C   UNL     1      40.428 -14.968   3.458  1.00  0.00     0.128 C 
HETATM    4  C   UNL     1      40.123 -14.037   2.543  1.00  0.00     0.100 C 
HETATM    5  C   UNL     1      40.278 -14.224   1.053  1.00  0.00     0.264 C 
HETATM    6  N   UNL     1      40.278 -14.731   4.816  1.00  0.00    -0.278 N 
HETATM    7  C   UNL     1      39.886 -13.492   5.302  1.00  0.00     0.331 C 
HETATM    8  O   UNL     1      39.741 -13.227   6.490  1.00  0.00    -0.246 OA
HETATM    9  N   UNL     1      39.637 -12.539   4.360  1.00  0.00    -0.275 N 
HETATM   10  C   UNL     1      39.634 -12.740   3.023  1.00  0.00     0.262 C 
HETATM   11  O   UNL     1      39.246 -11.903   2.225  1.00  0.00    -0.267 OA
HETATM   12  N   UNL     1      40.633 -15.701   0.804  1.00  0.00    -0.351 N 
HETATM   13  H   UNL     1      40.678 -16.022  -0.168  1.00  0.00     0.162 HD
HETATM   14  H   UNL     1      41.251 -16.863   3.719  1.00  0.00     0.168 HD
HETATM   15  H   UNL     1      39.298 -11.648   4.705  1.00  0.00     0.173 HD
ENDROOT
BRANCH   5  16
HETATM   16  C   UNL     1      41.420 -13.384   0.473  1.00  0.00     0.426 C 
HETATM   17  F   UNL     1      42.393 -13.251   1.416  1.00  0.00    -0.168 F 
HETATM   18  F   UNL     1      41.996 -14.029  -0.569  1.00  0.00    -0.168 F 
HETATM   19  F   UNL     1      41.083 -12.152   0.075  1.00  0.00    -0.168 F 
ENDBRANCH   5  16
BRANCH   5  20
HETATM   20  C   UNL     1      39.046 -13.914   0.195  1.00  0.00     0.426 C 
HETATM   21  F   UNL     1      37.936 -14.434   0.775  1.00  0.00    -0.168 F 
HETATM   22  F   UNL     1      38.823 -12.626  -0.081  1.00  0.00    -0.168 F 
HETATM   23  F   UNL     1      39.178 -14.559  -0.999  1.00  0.00    -0.168 F 
ENDBRANCH   5  20
BRANCH   1  24
HETATM   24  C   UNL     1      41.403 -17.917   1.410  1.00  0.00     0.114 C 
BRANCH  24  25
HETATM   25  C   UNL     1      42.500 -18.487   2.279  1.00  0.00    -0.051 A 
HETATM   26  C   UNL     1      42.486 -18.217   3.658  1.00  0.00     0.007 A 
HETATM   27  C   UNL     1      43.440 -18.782   4.506  1.00  0.00     0.001 A 
HETATM   28  C   UNL     1      44.415 -19.631   3.990  1.00  0.00     0.000 A 
HETATM   29  C   UNL     1      44.435 -19.917   2.629  1.00  0.00     0.001 A 
HETATM   30  C   UNL     1      43.481 -19.356   1.777  1.00  0.00     0.007 A 
ENDBRANCH  24  25
ENDBRANCH   1  24
BRANCH   6  31
HETATM   31  C   UNL     1      40.501 -15.774   5.823  1.00  0.00     0.200 C 
BRANCH  31  32
HETATM   32  C   UNL     1      41.926 -15.769   6.243  1.00  0.00     0.070 A 
HETATM   33  O   UNL     1      42.279 -16.686   7.196  1.00  0.00    -0.325 OA
HETATM   34  C   UNL     1      43.609 -16.518   7.426  1.00  0.00     0.142 A 
HETATM   35  C   UNL     1      44.111 -15.514   6.632  1.00  0.00     0.027 A 
HETATM   36  C   UNL     1      43.026 -15.028   5.866  1.00  0.00     0.036 A 
ENDBRANCH  31  32
ENDBRANCH   6  31
TORSDOF 6
ENDMDL
MODEL 3
REMARK VINA RESULT:      -8.7      2.811      4.237
REMARK  6 active torsions:
REMARK  status: ('A' for Active; 'I' for Inactive)
REMARK    1  A    between atoms: C_4  and  C_5 
REMARK    2  A    between atoms: C_5  and  C_6 
REMARK    3  A    between atoms: C_10  and  C_11 
REMARK    4  A    between atoms: C_10  and  C_15 
REMARK    5  A    between atoms: N_19  and  C_20 
REMARK    6  A    between atoms: C_20  and  C_21 
ROOT
HETATM    1  C   UNL     1      41.093 -15.771   5.675  1.00  0.00     0.084 C 
HETATM    2  N   UNL     1      40.764 -16.046   4.431  1.00  0.00    -0.331 N 
HETATM    3  C   UNL     1      40.545 -15.076   3.480  1.00  0.00     0.128 C 
HETATM    4  C   UNL     1      40.556 -13.788   3.851  1.00  0.00     0.100 C 
HETATM    5  C   UNL     1      40.774 -13.311   5.267  1.00  0.00     0.264 C 
HETATM    6  N   UNL     1      40.325 -15.452   2.164  1.00  0.00    -0.278 N 
HETATM    7  C   UNL     1      40.019 -14.523   1.180  1.00  0.00     0.331 C 
HETATM    8  O   UNL     1      39.812 -14.801   0.005  1.00  0.00    -0.246 OA
HETATM    9  N   UNL     1      39.976 -13.223   1.587  1.00  0.00    -0.275 N 
HETATM   10  C   UNL     1      40.310 -12.776   2.819  1.00  0.00     0.262 C 
HETATM   11  O   UNL     1      40.415 -11.591   3.091  1.00  0.00    -0.267 OA
HETATM   12  N   UNL     1      41.176 -14.533   6.112  1.00  0.00    -0.351 N 
HETATM   13  H   UNL     1      41.457 -14.368   7.084  1.00  0.00     0.162 HD
HETATM   14  H   UNL     1      40.636 -17.031   4.190  1.00  0.00     0.168 HD
HETATM   15  H   UNL     1      39.807 -12.534   0.863  1.00  0.00     0.173 HD
ENDROOT
BRANCH   5  16
HETATM   16  C   UNL     1      39.501 -12.733   5.893  1.00  0.00     0.426 C 
HETATM   17  F   UNL     1      38.510 -13.663   5.817  1.00  0.00    -0.168 F 
HETATM   18  F   UNL     1      39.691 -12.495   7.212  1.00  0.00    -0.168 F 
HETATM   19  F   UNL     1      39.038 -11.614   5.323  1.00  0.00    -0.168 F 
ENDBRANCH   5  16
BRANCH   5  20
HETATM   20  C   UNL     1      41.865 -12.253   5.471  1.00  0.00     0.426 C 
HETATM   21  F   UNL     1      42.841 -12.412   4.544  1.00  0.00    -0.168 F 
HETATM   22  F   UNL     1      41.465 -10.979   5.459  1.00  0.00    -0.168 F 
HETATM   23  F   UNL     1      42.459 -12.473   6.678  1.00  0.00    -0.168 F 
ENDBRANCH   5  20
BRANCH   1  24
HETATM   24  C   UNL     1      41.397 -16.894   6.613  1.00  0.00     0.114 C 
BRANCH  24  25
HETATM   25  C   UNL     1      42.696 -17.618   6.350  1.00  0.00    -0.051 A 
HETATM   26  C   UNL     1      43.900 -17.030   6.772  1.00  0.00     0.007 A 
HETATM   27  C   UNL     1      45.116 -17.698   6.612  1.00  0.00     0.001 A 
HETATM   28  C   UNL     1      45.144 -18.965   6.038  1.00  0.00     0.000 A 
HETATM   29  C   UNL     1      43.959 -19.565   5.625  1.00  0.00     0.001 A 
HETATM   30  C   UNL     1      42.740 -18.902   5.785  1.00  0.00     0.007 A 
ENDBRANCH  24  25
ENDBRANCH   1  24
BRANCH   6  31
HETATM   31  C   UNL     1      40.420 -16.848   1.722  1.00  0.00     0.200 C 
BRANCH  31  32
HETATM   32  C   UNL     1      41.836 -17.292   1.767  1.00  0.00     0.070 A 
HETATM   33  O   UNL     1      42.755 -16.443   1.211  1.00  0.00    -0.325 OA
HETATM   34  C   UNL     1      43.972 -17.029   1.365  1.00  0.00     0.142 A 
HETATM   35  C   UNL     1      43.848 -18.235   2.013  1.00  0.00     0.027 A 
HETATM   36  C   UNL     1      42.468 -18.407   2.275  1.00  0.00     0.036 A 
ENDBRANCH  31  32
ENDBRANCH   6  31
TORSDOF 6
ENDMDL
MODEL 4
REMARK VINA RESULT:      -8.7      3.475      6.602
REMARK  6 active torsions:
REMARK  status: ('A' for Active; 'I' for Inactive)
REMARK    1  A    between atoms: C_4  and  C_5 
REMARK    2  A    between atoms: C_5  and  C_6 
REMARK    3  A    between atoms: C_10  and  C_11 
REMARK    4  A    between atoms: C_10  and  C_15 
REMARK    5  A    between atoms: N_19  and  C_20 
REMARK    6  A    between atoms: C_20  and  C_21 
ROOT
HETATM    1  C   UNL     1      44.495 -14.315   6.689  1.00  0.00     0.084 C 
HETATM    2  N   UNL     1      43.571 -13.669   6.011  1.00  0.00    -0.331 N 
HETATM    3  C   UNL     1      42.417 -14.266   5.556  1.00  0.00     0.128 C 
HETATM    4  C   UNL     1      42.268 -15.590   5.707  1.00  0.00     0.100 C 
HETATM    5  C   UNL     1      43.300 -16.498   6.334  1.00  0.00     0.264 C 
HETATM    6  N   UNL     1      41.439 -13.487   4.959  1.00  0.00    -0.278 N 
HETATM    7  C   UNL     1      40.294 -14.047   4.410  1.00  0.00     0.331 C 
HETATM    8  O   UNL     1      39.400 -13.407   3.869  1.00  0.00    -0.246 OA
HETATM    9  N   UNL     1      40.186 -15.401   4.521  1.00  0.00    -0.275 N 
HETATM   10  C   UNL     1      41.034 -16.202   5.205  1.00  0.00     0.262 C 
HETATM   11  O   UNL     1      40.811 -17.383   5.415  1.00  0.00    -0.267 OA
HETATM   12  N   UNL     1      44.405 -15.606   6.927  1.00  0.00    -0.351 N 
HETATM   13  H   UNL     1      45.139 -16.061   7.478  1.00  0.00     0.162 HD
HETATM   14  H   UNL     1      43.754 -12.687   5.793  1.00  0.00     0.168 HD
HETATM   15  H   UNL     1      39.327 -15.810   4.171  1.00  0.00     0.173 HD
ENDROOT
BRANCH   5  16
HETATM   16  C   UNL     1      43.969 -17.418   5.308  1.00  0.00     0.426 C 
HETATM   17  F   UNL     1      44.113 -16.742   4.136  1.00  0.00    -0.168 F 
HETATM   18  F   UNL     1      45.221 -17.739   5.711  1.00  0.00    -0.168 F 
HETATM   19  F   UNL     1      43.309 -18.550   5.035  1.00  0.00    -0.168 F 
ENDBRANCH   5  16
BRANCH   5  20
HETATM   20  C   UNL     1      42.810 -17.409   7.466  1.00  0.00     0.426 C 
HETATM   21  F   UNL     1      41.487 -17.205   7.683  1.00  0.00    -0.168 F 
HETATM   22  F   UNL     1      43.023 -18.718   7.308  1.00  0.00    -0.168 F 
HETATM   23  F   UNL     1      43.438 -17.040   8.619  1.00  0.00    -0.168 F 
ENDBRANCH   5  20
BRANCH   1  24
HETATM   24  C   UNL     1      45.671 -13.559   7.217  1.00  0.00     0.114 C 
BRANCH  24  25
HETATM   25  C   UNL     1      45.384 -12.670   8.404  1.00  0.00    -0.051 A 
HETATM   26  C   UNL     1      44.348 -13.024   9.284  1.00  0.00     0.007 A 
HETATM   27  C   UNL     1      44.097 -12.268  10.431  1.00  0.00     0.001 A 
HETATM   28  C   UNL     1      44.883 -11.156  10.719  1.00  0.00     0.000 A 
HETATM   29  C   UNL     1      45.920 -10.800   9.862  1.00  0.00     0.001 A 
HETATM   30  C   UNL     1      46.176 -11.555   8.715  1.00  0.00     0.007 A 
ENDBRANCH  24  25
ENDBRANCH   1  24
BRANCH   6  31
HETATM   31  C   UNL     1      41.537 -12.025   4.886  1.00  0.00     0.200 C 
BRANCH  31  32
HETATM   32  C   UNL     1      41.093 -11.429   6.171  1.00  0.00     0.070 A 
HETATM   33  O   UNL     1      42.074 -11.177   7.092  1.00  0.00    -0.325 OA
HETATM   34  C   UNL     1      41.462 -10.632   8.177  1.00  0.00     0.142 A 
HETATM   35  C   UNL     1      40.108 -10.526   7.963  1.00  0.00     0.027 A 
HETATM   36  C   UNL     1      39.867 -11.040   6.667  1.00  0.00     0.036 A 
ENDBRANCH  31  32
ENDBRANCH   6  31
TORSDOF 6
ENDMDL
MODEL 5
REMARK VINA RESULT:      -8.6      1.346      1.589
REMARK  6 active torsions:
REMARK  status: ('A' for Active; 'I' for Inactive)
REMARK    1  A    between atoms: C_4  and  C_5 
REMARK    2  A    between atoms: C_5  and  C_6 
REMARK    3  A    between atoms: C_10  and  C_11 
REMARK    4  A    between atoms: C_10  and  C_15 
REMARK    5  A    between atoms: N_19  and  C_20 
REMARK    6  A    between atoms: C_20  and  C_21 
ROOT
HETATM    1  C   UNL     1      43.437 -16.890   2.710  1.00  0.00     0.084 C 
HETATM    2  N   UNL     1      42.903 -15.796   2.210  1.00  0.00    -0.331 N 
HETATM    3  C   UNL     1      42.411 -14.776   2.991  1.00  0.00     0.128 C 
HETATM    4  C   UNL     1      42.365 -14.939   4.321  1.00  0.00     0.100 C 
HETATM    5  C   UNL     1      42.804 -16.192   5.041  1.00  0.00     0.264 C 
HETATM    6  N   UNL     1      41.979 -13.605   2.386  1.00  0.00    -0.278 N 
HETATM    7  C   UNL     1      41.398 -12.578   3.116  1.00  0.00     0.331 C 
HETATM    8  O   UNL     1      40.998 -11.525   2.632  1.00  0.00    -0.246 OA
HETATM    9  N   UNL     1      41.306 -12.785   4.459  1.00  0.00    -0.275 N 
HETATM   10  C   UNL     1      41.826 -13.840   5.127  1.00  0.00     0.262 C 
HETATM   11  O   UNL     1      41.862 -13.903   6.345  1.00  0.00    -0.267 OA
HETATM   12  N   UNL     1      43.480 -17.109   4.006  1.00  0.00    -0.351 N 
HETATM   13  H   UNL     1      43.926 -17.966   4.350  1.00  0.00     0.162 HD
HETATM   14  H   UNL     1      42.830 -15.737   1.192  1.00  0.00     0.168 HD
HETATM   15  H   UNL     1      40.933 -12.016   5.005  1.00  0.00     0.173 HD
ENDROOT
BRANCH   5  16
HETATM   16  C   UNL     1      41.624 -16.972   5.628  1.00  0.00     0.426 C 
HETATM   17  F   UNL     1      40.654 -17.086   4.681  1.00  0.00    -0.168 F 
HETATM   18  F   UNL     1      42.001 -18.237   5.931  1.00  0.00    -0.168 F 
HETATM   19  F   UNL     1      41.058 -16.428   6.712  1.00  0.00    -0.168 F 
ENDBRANCH   5  16
BRANCH   5  20
HETATM   20  C   UNL     1      43.803 -16.005   6.188  1.00  0.00     0.426 C 
HETATM   21  F   UNL     1      44.558 -14.900   5.968  1.00  0.00    -0.168 F 
HETATM   22  F   UNL     1      43.287 -15.934   7.418  1.00  0.00    -0.168 F 
HETATM   23  F   UNL     1      44.671 -17.056   6.181  1.00  0.00    -0.168 F 
ENDBRANCH   5  20
BRANCH   1  24
HETATM   24  C   UNL     1      44.026 -17.902   1.782  1.00  0.00     0.114 C 
BRANCH  24  25
HETATM   25  C   UNL     1      44.101 -19.309   2.327  1.00  0.00    -0.051 A 
HETATM   26  C   UNL     1      43.612 -20.368   1.545  1.00  0.00     0.007 A 
HETATM   27  C   UNL     1      43.726 -21.690   1.981  1.00  0.00     0.001 A 
HETATM   28  C   UNL     1      44.338 -21.971   3.199  1.00  0.00     0.000 A 
HETATM   29  C   UNL     1      44.836 -20.933   3.980  1.00  0.00     0.001 A 
HETATM   30  C   UNL     1      44.727 -19.610   3.546  1.00  0.00     0.007 A 
ENDBRANCH  24  25
ENDBRANCH   1  24
BRANCH   6  31
HETATM   31  C   UNL     1      42.125 -13.367   0.946  1.00  0.00     0.200 C 
BRANCH  31  32
HETATM   32  C   UNL     1      40.807 -13.513   0.278  1.00  0.00     0.070 A 
HETATM   33  O   UNL     1      40.541 -12.631  -0.735  1.00  0.00    -0.325 OA
HETATM   34  C   UNL     1      39.305 -12.941  -1.209  1.00  0.00     0.142 A 
HETATM   35  C   UNL     1      38.779 -14.008  -0.520  1.00  0.00     0.027 A 
HETATM   36  C   UNL     1      39.748 -14.380   0.442  1.00  0.00     0.036 A 
ENDBRANCH  31  32
ENDBRANCH   6  31
TORSDOF 6
ENDMDL
MODEL 6
REMARK VINA RESULT:      -8.4      2.049      2.731
REMARK  6 active torsions:
REMARK  status: ('A' for Active; 'I' for Inactive)
REMARK    1  A    between atoms: C_4  and  C_5 
REMARK    2  A    between atoms: C_5  and  C_6 
REMARK    3  A    between atoms: C_10  and  C_11 
REMARK    4  A    between atoms: C_10  and  C_15 
REMARK    5  A    between atoms: N_19  and  C_20 
REMARK    6  A    between atoms: C_20  and  C_21 
ROOT
HETATM    1  C   UNL     1      41.852 -16.602   2.357  1.00  0.00     0.084 C 
HETATM    2  N   UNL     1      41.744 -15.661   1.444  1.00  0.00    -0.331 N 
HETATM    3  C   UNL     1      41.814 -14.318   1.738  1.00  0.00     0.128 C 
HETATM    4  C   UNL     1      41.883 -13.936   3.021  1.00  0.00     0.100 C 
HETATM    5  C   UNL     1      41.870 -14.886   4.195  1.00  0.00     0.264 C 
HETATM    6  N   UNL     1      41.815 -13.395   0.703  1.00  0.00    -0.278 N 
HETATM    7  C   UNL     1      41.802 -12.029   0.944  1.00  0.00     0.331 C 
HETATM    8  O   UNL     1      41.799 -11.171   0.068  1.00  0.00    -0.246 OA
HETATM    9  N   UNL     1      41.813 -11.659   2.255  1.00  0.00    -0.275 N 
HETATM   10  C   UNL     1      41.946 -12.499   3.306  1.00  0.00     0.262 C 
HETATM   11  O   UNL     1      42.115 -12.112   4.450  1.00  0.00    -0.267 OA
HETATM   12  N   UNL     1      41.974 -16.317   3.635  1.00  0.00    -0.351 N 
HETATM   13  H   UNL     1      42.077 -17.083   4.307  1.00  0.00     0.162 HD
HETATM   14  H   UNL     1      41.566 -15.962   0.484  1.00  0.00     0.168 HD
HETATM   15  H   UNL     1      41.858 -10.662   2.437  1.00  0.00     0.173 HD
ENDROOT
BRANCH   5  16
HETATM   16  C   UNL     1      40.565 -14.812   4.993  1.00  0.00     0.426 C 
HETATM   17  F   UNL     1      39.522 -14.703   4.126  1.00  0.00    -0.168 F 
HETATM   18  F   UNL     1      40.365 -15.964   5.676  1.00  0.00    -0.168 F 
HETATM   19  F   UNL     1      40.474 -13.790   5.852  1.00  0.00    -0.168 F 
ENDBRANCH   5  16
BRANCH   5  20
HETATM   20  C   UNL     1      43.002 -14.726   5.216  1.00  0.00     0.426 C 
HETATM   21  F   UNL     1      43.331 -15.935   5.734  1.00  0.00    -0.168 F 
HETATM   22  F   UNL     1      44.115 -14.130   4.779  1.00  0.00    -0.168 F 
HETATM   23  F   UNL     1      42.539 -13.986   6.262  1.00  0.00    -0.168 F 
ENDBRANCH   5  20
BRANCH   1  24
HETATM   24  C   UNL     1      41.853 -18.034   1.929  1.00  0.00     0.114 C 
BRANCH  24  25
HETATM   25  C   UNL     1      42.953 -18.882   2.522  1.00  0.00    -0.051 A 
HETATM   26  C   UNL     1      43.422 -18.584   3.812  1.00  0.00     0.007 A 
HETATM   27  C   UNL     1      44.387 -19.386   4.424  1.00  0.00     0.001 A 
HETATM   28  C   UNL     1      44.890 -20.501   3.759  1.00  0.00     0.000 A 
HETATM   29  C   UNL     1      44.428 -20.815   2.485  1.00  0.00     0.001 A 
HETATM   30  C   UNL     1      43.460 -20.017   1.870  1.00  0.00     0.007 A 
ENDBRANCH  24  25
ENDBRANCH   1  24
BRANCH   6  31
HETATM   31  C   UNL     1      41.852 -13.799  -0.707  1.00  0.00     0.200 C 
BRANCH  31  32
HETATM   32  C   UNL     1      40.487 -13.723  -1.286  1.00  0.00     0.070 A 
HETATM   33  O   UNL     1      40.396 -13.218  -2.555  1.00  0.00    -0.325 OA
HETATM   34  C   UNL     1      39.078 -13.244  -2.892  1.00  0.00     0.142 A 
HETATM   35  C   UNL     1      38.328 -13.761  -1.862  1.00  0.00     0.027 A 
HETATM   36  C   UNL     1      39.236 -14.072  -0.823  1.00  0.00     0.036 A 
ENDBRANCH  31  32
ENDBRANCH   6  31
TORSDOF 6
ENDMDL
MODEL 7
REMARK VINA RESULT:      -8.4      3.074      5.543
REMARK  6 active torsions:
REMARK  status: ('A' for Active; 'I' for Inactive)
REMARK    1  A    between atoms: C_4  and  C_5 
REMARK    2  A    between atoms: C_5  and  C_6 
REMARK    3  A    between atoms: C_10  and  C_11 
REMARK    4  A    between atoms: C_10  and  C_15 
REMARK    5  A    between atoms: N_19  and  C_20 
REMARK    6  A    between atoms: C_20  and  C_21 
ROOT
HETATM    1  C   UNL     1      40.993 -15.751   5.272  1.00  0.00     0.084 C 
HETATM    2  N   UNL     1      40.459 -14.610   5.653  1.00  0.00    -0.331 N 
HETATM    3  C   UNL     1      39.965 -13.680   4.768  1.00  0.00     0.128 C 
HETATM    4  C   UNL     1      40.129 -13.882   3.453  1.00  0.00     0.100 C 
HETATM    5  C   UNL     1      40.848 -15.069   2.857  1.00  0.00     0.264 C 
HETATM    6  N   UNL     1      39.307 -12.561   5.255  1.00  0.00    -0.278 N 
HETATM    7  C   UNL     1      38.861 -11.552   4.414  1.00  0.00     0.331 C 
HETATM    8  O   UNL     1      38.278 -10.542   4.791  1.00  0.00    -0.246 OA
HETATM    9  N   UNL     1      39.089 -11.746   3.085  1.00  0.00    -0.275 N 
HETATM   10  C   UNL     1      39.601 -12.869   2.533  1.00  0.00     0.262 C 
HETATM   11  O   UNL     1      39.636 -13.064   1.329  1.00  0.00    -0.267 OA
HETATM   12  N   UNL     1      41.146 -16.054   4.002  1.00  0.00    -0.351 N 
HETATM   13  H   UNL     1      41.547 -16.964   3.753  1.00  0.00     0.162 HD
HETATM   14  H   UNL     1      40.452 -14.411   6.656  1.00  0.00     0.168 HD
HETATM   15  H   UNL     1      38.717 -11.039   2.460  1.00  0.00     0.173 HD
ENDROOT
BRANCH   5  16
HETATM   16  C   UNL     1      42.193 -14.686   2.234  1.00  0.00     0.426 C 
HETATM   17  F   UNL     1      42.775 -13.721   2.997  1.00  0.00    -0.168 F 
HETATM   18  F   UNL     1      43.040 -15.742   2.256  1.00  0.00    -0.168 F 
HETATM   19  F   UNL     1      42.134 -14.218   0.982  1.00  0.00    -0.168 F 
ENDBRANCH   5  16
BRANCH   5  20
HETATM   20  C   UNL     1      40.090 -15.856   1.782  1.00  0.00     0.426 C 
HETATM   21  F   UNL     1      38.755 -15.772   2.001  1.00  0.00    -0.168 F 
HETATM   22  F   UNL     1      40.338 -15.517   0.513  1.00  0.00    -0.168 F 
HETATM   23  F   UNL     1      40.405 -17.176   1.909  1.00  0.00    -0.168 F 
ENDBRANCH   5  20
BRANCH   1  24
HETATM   24  C   UNL     1      41.420 -16.736   6.311  1.00  0.00     0.114 C 
BRANCH  24  25
HETATM   25  C   UNL     1      42.711 -17.465   6.015  1.00  0.00    -0.051 A 
HETATM   26  C   UNL     1      43.879 -17.081   6.693  1.00  0.00     0.007 A 
HETATM   27  C   UNL     1      45.076 -17.775   6.500  1.00  0.00     0.001 A 
HETATM   28  C   UNL     1      45.118 -18.865   5.637  1.00  0.00     0.000 A 
HETATM   29  C   UNL     1      43.966 -19.264   4.967  1.00  0.00     0.001 A 
HETATM   30  C   UNL     1      42.766 -18.575   5.158  1.00  0.00     0.007 A 
ENDBRANCH  24  25
ENDBRANCH   1  24
BRANCH   6  31
HETATM   31  C   UNL     1      39.022 -12.379   6.683  1.00  0.00     0.200 C 
BRANCH  31  32
HETATM   32  C   UNL     1      40.003 -11.434   7.274  1.00  0.00     0.070 A 
HETATM   33  O   UNL     1      41.323 -11.695   7.020  1.00  0.00    -0.325 OA
HETATM   34  C   UNL     1      42.040 -10.719   7.637  1.00  0.00     0.142 A 
HETATM   35  C   UNL     1      41.202  -9.836   8.276  1.00  0.00     0.027 A 
HETATM   36  C   UNL     1      39.884 -10.296   8.042  1.00  0.00     0.036 A 
ENDBRANCH  31  32
ENDBRANCH   6  31
TORSDOF 6
ENDMDL
MODEL 8
REMARK VINA RESULT:      -8.3      1.435      1.799
REMARK  6 active torsions:
REMARK  status: ('A' for Active; 'I' for Inactive)
REMARK    1  A    between atoms: C_4  and  C_5 
REMARK    2  A    between atoms: C_5  and  C_6 
REMARK    3  A    between atoms: C_10  and  C_11 
REMARK    4  A    between atoms: C_10  and  C_15 
REMARK    5  A    between atoms: N_19  and  C_20 
REMARK    6  A    between atoms: C_20  and  C_21 
ROOT
HETATM    1  C   UNL     1      43.047 -16.151   2.338  1.00  0.00     0.084 C 
HETATM    2  N   UNL     1      42.141 -15.764   1.466  1.00  0.00    -0.331 N 
HETATM    3  C   UNL     1      41.133 -14.879   1.772  1.00  0.00     0.128 C 
HETATM    4  C   UNL     1      40.989 -14.471   3.042  1.00  0.00     0.100 C 
HETATM    5  C   UNL     1      41.856 -14.934   4.188  1.00  0.00     0.264 C 
HETATM    6  N   UNL     1      40.295 -14.427   0.764  1.00  0.00    -0.278 N 
HETATM    7  C   UNL     1      39.213 -13.600   1.030  1.00  0.00     0.331 C 
HETATM    8  O   UNL     1      38.441 -13.175   0.178  1.00  0.00    -0.246 OA
HETATM    9  N   UNL     1      39.048 -13.243   2.334  1.00  0.00    -0.275 N 
HETATM   10  C   UNL     1      39.901 -13.536   3.342  1.00  0.00     0.262 C 
HETATM   11  O   UNL     1      39.799 -13.059   4.460  1.00  0.00    -0.267 OA
HETATM   12  N   UNL     1      43.012 -15.759   3.593  1.00  0.00    -0.351 N 
HETATM   13  H   UNL     1      43.752 -16.069   4.231  1.00  0.00     0.162 HD
HETATM   14  H   UNL     1      42.186 -16.178   0.533  1.00  0.00     0.168 HD
HETATM   15  H   UNL     1      38.292 -12.594   2.527  1.00  0.00     0.173 HD
ENDROOT
BRANCH   5  16
HETATM   16  C   UNL     1      41.104 -15.852   5.157  1.00  0.00     0.426 C 
HETATM   17  F   UNL     1      40.844 -17.034   4.534  1.00  0.00    -0.168 F 
HETATM   18  F   UNL     1      41.884 -16.154   6.221  1.00  0.00    -0.168 F 
HETATM   19  F   UNL     1      39.937 -15.377   5.608  1.00  0.00    -0.168 F 
ENDBRANCH   5  16
BRANCH   5  20
HETATM   20  C   UNL     1      42.492 -13.838   5.050  1.00  0.00     0.426 C 
HETATM   21  F   UNL     1      43.668 -14.277   5.563  1.00  0.00    -0.168 F 
HETATM   22  F   UNL     1      42.697 -12.659   4.454  1.00  0.00    -0.168 F 
HETATM   23  F   UNL     1      41.682 -13.606   6.122  1.00  0.00    -0.168 F 
ENDBRANCH   5  20
BRANCH   1  24
HETATM   24  C   UNL     1      44.155 -17.045   1.887  1.00  0.00     0.114 C 
BRANCH  24  25
HETATM   25  C   UNL     1      44.069 -18.473   2.374  1.00  0.00    -0.051 A 
HETATM   26  C   UNL     1      43.600 -19.464   1.496  1.00  0.00     0.007 A 
HETATM   27  C   UNL     1      43.571 -20.805   1.883  1.00  0.00     0.001 A 
HETATM   28  C   UNL     1      44.019 -21.175   3.147  1.00  0.00     0.000 A 
HETATM   29  C   UNL     1      44.496 -20.206   4.024  1.00  0.00     0.001 A 
HETATM   30  C   UNL     1      44.529 -18.864   3.640  1.00  0.00     0.007 A 
ENDBRANCH  24  25
ENDBRANCH   1  24
BRANCH   6  31
HETATM   31  C   UNL     1      40.507 -14.776  -0.645  1.00  0.00     0.200 C 
BRANCH  31  32
HETATM   32  C   UNL     1      41.401 -13.775  -1.280  1.00  0.00     0.070 A 
HETATM   33  O   UNL     1      41.521 -13.849  -2.642  1.00  0.00    -0.325 OA
HETATM   34  C   UNL     1      42.367 -12.851  -3.014  1.00  0.00     0.142 A 
HETATM   35  C   UNL     1      42.784 -12.138  -1.915  1.00  0.00     0.027 A 
HETATM   36  C   UNL     1      42.161 -12.733  -0.792  1.00  0.00     0.036 A 
ENDBRANCH  31  32
ENDBRANCH   6  31
TORSDOF 6
ENDMDL
MODEL 9
REMARK VINA RESULT:      -8.3      2.987      5.540
REMARK  6 active torsions:
REMARK  status: ('A' for Active; 'I' for Inactive)
REMARK    1  A    between atoms: C_4  and  C_5 
REMARK    2  A    between atoms: C_5  and  C_6 
REMARK    3  A    between atoms: C_10  and  C_11 
REMARK    4  A    between atoms: C_10  and  C_15 
REMARK    5  A    between atoms: N_19  and  C_20 
REMARK    6  A    between atoms: C_20  and  C_21 
ROOT
HETATM    1  C   UNL     1      43.152 -15.764   1.960  1.00  0.00     0.084 C 
HETATM    2  N   UNL     1      43.365 -15.168   3.113  1.00  0.00    -0.331 N 
HETATM    3  C   UNL     1      42.543 -14.185   3.615  1.00  0.00     0.128 C 
HETATM    4  C   UNL     1      41.539 -13.726   2.854  1.00  0.00     0.100 C 
HETATM    5  C   UNL     1      41.248 -14.203   1.451  1.00  0.00     0.264 C 
HETATM    6  N   UNL     1      42.769 -13.697   4.893  1.00  0.00    -0.278 N 
HETATM    7  C   UNL     1      42.023 -12.650   5.417  1.00  0.00     0.331 C 
HETATM    8  O   UNL     1      42.183 -12.179   6.537  1.00  0.00    -0.246 OA
HETATM    9  N   UNL     1      41.045 -12.157   4.607  1.00  0.00    -0.275 N 
HETATM   10  C   UNL     1      40.685 -12.672   3.409  1.00  0.00     0.262 C 
HETATM   11  O   UNL     1      39.699 -12.301   2.794  1.00  0.00    -0.267 OA
HETATM   12  N   UNL     1      42.159 -15.412   1.172  1.00  0.00    -0.351 N 
HETATM   13  H   UNL     1      42.019 -15.920   0.293  1.00  0.00     0.162 HD
HETATM   14  H   UNL     1      44.206 -15.439   3.629  1.00  0.00     0.168 HD
HETATM   15  H   UNL     1      40.461 -11.430   5.004  1.00  0.00     0.173 HD
ENDROOT
BRANCH   5  16
HETATM   16  C   UNL     1      41.574 -13.144   0.394  1.00  0.00     0.426 C 
HETATM   17  F   UNL     1      42.110 -13.758  -0.696  1.00  0.00    -0.168 F 
HETATM   18  F   UNL     1      40.439 -12.543  -0.036  1.00  0.00    -0.168 F 
HETATM   19  F   UNL     1      42.435 -12.195   0.778  1.00  0.00    -0.168 F 
ENDBRANCH   5  16
BRANCH   5  20
HETATM   20  C   UNL     1      39.811 -14.657   1.168  1.00  0.00     0.426 C 
HETATM   21  F   UNL     1      39.365 -15.437   2.184  1.00  0.00    -0.168 F 
HETATM   22  F   UNL     1      38.917 -13.690   0.946  1.00  0.00    -0.168 F 
HETATM   23  F   UNL     1      39.819 -15.454   0.062  1.00  0.00    -0.168 F 
ENDBRANCH   5  20
BRANCH   1  24
HETATM   24  C   UNL     1      44.050 -16.882   1.542  1.00  0.00     0.114 C 
BRANCH  24  25
HETATM   25  C   UNL     1      44.029 -18.096   2.441  1.00  0.00    -0.051 A 
HETATM   26  C   UNL     1      44.089 -19.374   1.860  1.00  0.00     0.007 A 
HETATM   27  C   UNL     1      44.143 -20.519   2.658  1.00  0.00     0.001 A 
HETATM   28  C   UNL     1      44.147 -20.402   4.045  1.00  0.00     0.000 A 
HETATM   29  C   UNL     1      44.098 -19.142   4.635  1.00  0.00     0.001 A 
HETATM   30  C   UNL     1      44.047 -17.995   3.840  1.00  0.00     0.007 A 
ENDBRANCH  24  25
ENDBRANCH   1  24
BRANCH   6  31
HETATM   31  C   UNL     1      43.792 -14.264   5.779  1.00  0.00     0.200 C 
BRANCH  31  32
HETATM   32  C   UNL     1      43.257 -15.476   6.450  1.00  0.00     0.070 A 
HETATM   33  O   UNL     1      44.065 -16.051   7.393  1.00  0.00    -0.325 OA
HETATM   34  C   UNL     1      43.391 -17.126   7.882  1.00  0.00     0.142 A 
HETATM   35  C   UNL     1      42.165 -17.244   7.272  1.00  0.00     0.027 A 
HETATM   36  C   UNL     1      42.075 -16.178   6.345  1.00  0.00     0.036 A 
ENDBRANCH  31  32
ENDBRANCH   6  31
TORSDOF 6
ENDMDL
MODEL 10
REMARK VINA RESULT:      -8.3      2.681      5.372
REMARK  6 active torsions:
REMARK  status: ('A' for Active; 'I' for Inactive)
REMARK    1  A    between atoms: C_4  and  C_5 
REMARK    2  A    between atoms: C_5  and  C_6 
REMARK    3  A    between atoms: C_10  and  C_11 
REMARK    4  A    between atoms: C_10  and  C_15 
REMARK    5  A    between atoms: N_19  and  C_20 
REMARK    6  A    between atoms: C_20  and  C_21 
ROOT
HETATM    1  C   UNL     1      42.614 -17.168   1.814  1.00  0.00     0.084 C 
HETATM    2  N   UNL     1      42.393 -17.452   3.079  1.00  0.00    -0.331 N 
HETATM    3  C   UNL     1      41.559 -16.708   3.882  1.00  0.00     0.128 C 
HETATM    4  C   UNL     1      41.030 -15.576   3.397  1.00  0.00     0.100 C 
HETATM    5  C   UNL     1      41.301 -15.033   2.014  1.00  0.00     0.264 C 
HETATM    6  N   UNL     1      41.283 -17.147   5.167  1.00  0.00    -0.278 N 
HETATM    7  C   UNL     1      40.516 -16.396   6.047  1.00  0.00     0.331 C 
HETATM    8  O   UNL     1      40.245 -16.735   7.193  1.00  0.00    -0.246 OA
HETATM    9  N   UNL     1      40.035 -15.220   5.556  1.00  0.00    -0.275 N 
HETATM   10  C   UNL     1      40.154 -14.797   4.277  1.00  0.00     0.262 C 
HETATM   11  O   UNL     1      39.569 -13.818   3.843  1.00  0.00    -0.267 OA
HETATM   12  N   UNL     1      42.094 -16.103   1.242  1.00  0.00    -0.351 N 
HETATM   13  H   UNL     1      42.277 -15.935   0.248  1.00  0.00     0.162 HD
HETATM   14  H   UNL     1      42.899 -18.248   3.473  1.00  0.00     0.168 HD
HETATM   15  H   UNL     1      39.430 -14.692   6.174  1.00  0.00     0.173 HD
ENDROOT
BRANCH   5  16
HETATM   16  C   UNL     1      42.165 -13.768   2.040  1.00  0.00     0.426 C 
HETATM   17  F   UNL     1      43.369 -14.067   2.600  1.00  0.00    -0.168 F 
HETATM   18  F   UNL     1      42.431 -13.354   0.779  1.00  0.00    -0.168 F 
HETATM   19  F   UNL     1      41.654 -12.739   2.725  1.00  0.00    -0.168 F 
ENDBRANCH   5  16
BRANCH   5  20
HETATM   20  C   UNL     1      40.074 -14.692   1.161  1.00  0.00     0.426 C 
HETATM   21  F   UNL     1      39.706 -13.404   1.376  1.00  0.00    -0.168 F 
HETATM   22  F   UNL     1      40.191 -14.891  -0.155  1.00  0.00    -0.168 F 
HETATM   23  F   UNL     1      39.026 -15.453   1.587  1.00  0.00    -0.168 F 
ENDBRANCH   5  20
BRANCH   1  24
HETATM   24  C   UNL     1      43.465 -18.087   1.000  1.00  0.00     0.114 C 
BRANCH  24  25
HETATM   25  C   UNL     1      43.857 -19.377   1.683  1.00  0.00    -0.051 A 
HETATM   26  C   UNL     1      44.723 -19.325   2.788  1.00  0.00     0.007 A 
HETATM   27  C   UNL     1      45.053 -20.485   3.491  1.00  0.00     0.001 A 
HETATM   28  C   UNL     1      44.515 -21.710   3.105  1.00  0.00     0.000 A 
HETATM   29  C   UNL     1      43.648 -21.775   2.020  1.00  0.00     0.001 A 
HETATM   30  C   UNL     1      43.313 -20.616   1.315  1.00  0.00     0.007 A 
ENDBRANCH  24  25
ENDBRANCH   1  24
BRANCH   6  31
HETATM   31  C   UNL     1      41.763 -18.438   5.674  1.00  0.00     0.200 C 
BRANCH  31  32
HETATM   32  C   UNL     1      43.097 -18.264   6.303  1.00  0.00     0.070 A 
HETATM   33  O   UNL     1      43.253 -18.808   7.550  1.00  0.00    -0.325 OA
HETATM   34  C   UNL     1      44.532 -18.546   7.933  1.00  0.00     0.142 A 
HETATM   35  C   UNL     1      45.195 -17.849   6.951  1.00  0.00     0.027 A 
HETATM   36  C   UNL     1      44.270 -17.666   5.896  1.00  0.00     0.036 A 
ENDBRANCH  31  32
ENDBRANCH   6  31
TORSDOF 6
ENDMDL
