MODEL 1
REMARK VINA RESULT:      -9.7      0.000      0.000
REMARK  6 active torsions:
REMARK  status: ('A' for Active; 'I' for Inactive)
REMARK    1  A    between atoms: C_4  and  C_5 
REMARK    2  A    between atoms: N_7  and  C_8 
REMARK    3  A    between atoms: C_19  and  N_20 
REMARK       I    between atoms: N_20  and  C_21 
REMARK    4  A    between atoms: C_21  and  C_22 
REMARK    5  A    between atoms: C_25  and  S_26 
REMARK    6  A    between atoms: S_26  and  N_27 
ROOT
HETATM    1  C   UNL     1      44.146 -13.405   7.659  1.00  0.00     0.115 A 
HETATM    2  N   UNL     1      44.510 -14.647   7.319  1.00  0.00    -0.148 NA
HETATM    3  N   UNL     1      43.816 -14.890   6.164  1.00  0.00    -0.044 N 
HETATM    4  C   UNL     1      43.043 -13.806   5.771  1.00  0.00     0.152 A 
HETATM    5  C   UNL     1      43.228 -12.850   6.746  1.00  0.00     0.087 A 
ENDROOT
BRANCH   4   6
HETATM    6  N   UNL     1      42.292 -13.795   4.601  1.00  0.00    -0.307 N 
HETATM    7  C   UNL     1      40.930 -14.032   4.598  1.00  0.00     0.257 C 
HETATM    8  O   UNL     1      40.274 -14.465   5.539  1.00  0.00    -0.267 OA
HETATM    9  H   UNL     1      42.791 -13.652   3.723  1.00  0.00     0.170 HD
BRANCH   7  10
HETATM   10  C   UNL     1      40.219 -13.739   3.323  1.00  0.00     0.032 A 
HETATM   11  C   UNL     1      39.514 -14.735   2.631  1.00  0.00     0.018 A 
HETATM   12  C   UNL     1      39.005 -14.469   1.356  1.00  0.00     0.026 A 
HETATM   13  C   UNL     1      39.195 -13.207   0.780  1.00  0.00     0.079 A 
HETATM   14  C   UNL     1      39.874 -12.202   1.474  1.00  0.00     0.026 A 
HETATM   15  C   UNL     1      40.387 -12.472   2.744  1.00  0.00     0.018 A 
BRANCH  13  16
HETATM   16  S   UNL     1      38.717 -12.945  -0.915  1.00  0.00     0.260 S 
HETATM   17  O   UNL     1      37.844 -14.031  -1.309  1.00  0.00    -0.200 OA
HETATM   18  O   UNL     1      38.281 -11.569  -1.012  1.00  0.00    -0.200 OA
BRANCH  16  19
HETATM   19  N   UNL     1      40.184 -13.100  -1.766  1.00  0.00    -0.307 N 
HETATM   20  C   UNL     1      41.243 -13.963  -1.183  1.00  0.00     0.135 C 
HETATM   21  C   UNL     1      41.047 -15.436  -1.528  1.00  0.00     0.021 C 
HETATM   22  C   UNL     1      40.861 -15.654  -3.027  1.00  0.00     0.003 C 
HETATM   23  C   UNL     1      39.771 -14.746  -3.583  1.00  0.00     0.021 C 
HETATM   24  C   UNL     1      40.048 -13.288  -3.235  1.00  0.00     0.135 C 
ENDBRANCH  16  19
ENDBRANCH  13  16
ENDBRANCH   7  10
ENDBRANCH   4   6
BRANCH   3  25
HETATM   25  C   UNL     1      43.933 -16.150   5.545  1.00  0.00     0.732 A 
HETATM   26  N   UNL     1      43.742 -16.349   4.278  1.00  0.00    -0.067 NA
HETATM   27  C   UNL     1      43.858 -17.655   3.849  1.00  0.00     0.065 A 
HETATM   28  C   UNL     1      44.160 -18.695   4.653  1.00  0.00     0.036 A 
HETATM   29  C   UNL     1      43.608 -17.865   2.372  1.00  0.00     0.060 C 
HETATM   30  C   UNL     1      44.242 -20.124   4.202  1.00  0.00     0.046 C 
HETATM   31  C   UNL     1      44.403 -18.419   6.089  1.00  0.00     0.268 A 
HETATM   32  C   UNL     1      43.633 -20.344   2.817  1.00  0.00     0.005 C 
HETATM   33  C   UNL     1      44.051 -19.237   1.857  1.00  0.00     0.006 C 
HETATM   34  O   UNL     1      44.707 -19.299   6.885  1.00  0.00    -0.267 OA
HETATM   35  N   UNL     1      44.260 -17.119   6.451  1.00  0.00    -0.152 N 
HETATM   36  H   UNL     1      44.396 -16.862   7.424  1.00  0.00     0.188 HD
ENDBRANCH   3  25
BRANCH   1  37
HETATM   37  C   UNL     1      44.679 -12.704   8.864  1.00  0.00     0.105 A 
HETATM   38  O   UNL     1      44.303 -12.983  10.149  1.00  0.00    -0.320 OA
HETATM   39  C   UNL     1      44.987 -12.140  10.964  1.00  0.00     0.142 A 
HETATM   40  C   UNL     1      45.803 -11.316  10.228  1.00  0.00     0.027 A 
HETATM   41  C   UNL     1      45.606 -11.679   8.873  1.00  0.00     0.041 A 
ENDBRANCH   1  37
TORSDOF 6
ENDMDL
MODEL 2
REMARK VINA RESULT:      -9.7      1.378      1.729
REMARK  6 active torsions:
REMARK  status: ('A' for Active; 'I' for Inactive)
REMARK    1  A    between atoms: C_4  and  C_5 
REMARK    2  A    between atoms: N_7  and  C_8 
REMARK    3  A    between atoms: C_19  and  N_20 
REMARK       I    between atoms: N_20  and  C_21 
REMARK    4  A    between atoms: C_21  and  C_22 
REMARK    5  A    between atoms: C_25  and  S_26 
REMARK    6  A    between atoms: S_26  and  N_27 
ROOT
HETATM    1  C   UNL     1      44.326 -13.817   7.676  1.00  0.00     0.115 A 
HETATM    2  N   UNL     1      44.627 -15.120   7.661  1.00  0.00    -0.148 NA
HETATM    3  N   UNL     1      44.077 -15.573   6.493  1.00  0.00    -0.044 N 
HETATM    4  C   UNL     1      43.457 -14.562   5.771  1.00  0.00     0.152 A 
HETATM    5  C   UNL     1      43.589 -13.427   6.541  1.00  0.00     0.087 A 
ENDROOT
BRANCH   4   6
HETATM    6  N   UNL     1      42.874 -14.767   4.525  1.00  0.00    -0.307 N 
HETATM    7  C   UNL     1      41.518 -14.997   4.377  1.00  0.00     0.257 C 
HETATM    8  O   UNL     1      40.728 -15.244   5.280  1.00  0.00    -0.267 OA
HETATM    9  H   UNL     1      43.491 -14.793   3.715  1.00  0.00     0.170 HD
BRANCH   7  10
HETATM   10  C   UNL     1      40.997 -14.945   2.983  1.00  0.00     0.032 A 
HETATM   11  C   UNL     1      41.652 -15.602   1.930  1.00  0.00     0.018 A 
HETATM   12  C   UNL     1      41.235 -15.393   0.611  1.00  0.00     0.026 A 
HETATM   13  C   UNL     1      40.160 -14.534   0.350  1.00  0.00     0.079 A 
HETATM   14  C   UNL     1      39.487 -13.896   1.395  1.00  0.00     0.026 A 
HETATM   15  C   UNL     1      39.910 -14.101   2.710  1.00  0.00     0.018 A 
BRANCH  13  16
HETATM   16  S   UNL     1      39.769 -14.124  -1.338  1.00  0.00     0.260 S 
HETATM   17  O   UNL     1      40.503 -15.023  -2.202  1.00  0.00    -0.200 OA
HETATM   18  O   UNL     1      38.326 -14.033  -1.415  1.00  0.00    -0.200 OA
BRANCH  16  19
HETATM   19  N   UNL     1      40.411 -12.557  -1.521  1.00  0.00    -0.307 N 
HETATM   20  C   UNL     1      41.867 -12.368  -1.295  1.00  0.00     0.135 C 
HETATM   21  C   UNL     1      42.695 -12.703  -2.532  1.00  0.00     0.021 C 
HETATM   22  C   UNL     1      42.187 -11.979  -3.775  1.00  0.00     0.003 C 
HETATM   23  C   UNL     1      40.690 -12.196  -3.965  1.00  0.00     0.021 C 
HETATM   24  C   UNL     1      39.922 -11.807  -2.708  1.00  0.00     0.135 C 
ENDBRANCH  16  19
ENDBRANCH  13  16
ENDBRANCH   7  10
ENDBRANCH   4   6
BRANCH   3  25
HETATM   25  C   UNL     1      44.170 -16.942   6.175  1.00  0.00     0.732 A 
HETATM   26  N   UNL     1      44.300 -17.393   4.966  1.00  0.00    -0.067 NA
HETATM   27  C   UNL     1      44.335 -18.765   4.835  1.00  0.00     0.065 A 
HETATM   28  C   UNL     1      44.254 -19.629   5.867  1.00  0.00     0.036 A 
HETATM   29  C   UNL     1      44.464 -19.266   3.413  1.00  0.00     0.060 C 
HETATM   30  C   UNL     1      44.243 -21.124   5.728  1.00  0.00     0.046 C 
HETATM   31  C   UNL     1      44.139 -19.073   7.236  1.00  0.00     0.268 A 
HETATM   32  C   UNL     1      44.005 -21.583   4.289  1.00  0.00     0.005 C 
HETATM   33  C   UNL     1      44.824 -20.751   3.309  1.00  0.00     0.006 C 
HETATM   34  O   UNL     1      44.084 -19.783   8.232  1.00  0.00    -0.267 OA
HETATM   35  N   UNL     1      44.095 -17.718   7.298  1.00  0.00    -0.152 N 
HETATM   36  H   UNL     1      44.000 -17.269   8.204  1.00  0.00     0.188 HD
ENDBRANCH   3  25
BRANCH   1  37
HETATM   37  C   UNL     1      44.749 -12.897   8.773  1.00  0.00     0.105 A 
HETATM   38  O   UNL     1      44.341 -13.009  10.074  1.00  0.00    -0.320 OA
HETATM   39  C   UNL     1      44.920 -11.998  10.769  1.00  0.00     0.142 A 
HETATM   40  C   UNL     1      45.699 -11.227   9.940  1.00  0.00     0.027 A 
HETATM   41  C   UNL     1      45.590 -11.807   8.652  1.00  0.00     0.041 A 
ENDBRANCH   1  37
TORSDOF 6
ENDMDL
MODEL 3
REMARK VINA RESULT:      -9.7      3.359      9.005
REMARK  6 active torsions:
REMARK  status: ('A' for Active; 'I' for Inactive)
REMARK    1  A    between atoms: C_4  and  C_5 
REMARK    2  A    between atoms: N_7  and  C_8 
REMARK    3  A    between atoms: C_19  and  N_20 
REMARK       I    between atoms: N_20  and  C_21 
REMARK    4  A    between atoms: C_21  and  C_22 
REMARK    5  A    between atoms: C_25  and  S_26 
REMARK    6  A    between atoms: S_26  and  N_27 
ROOT
HETATM    1  C   UNL     1      41.745 -14.281   0.468  1.00  0.00     0.115 A 
HETATM    2  N   UNL     1      42.091 -15.372   1.161  1.00  0.00    -0.148 NA
HETATM    3  N   UNL     1      42.136 -14.938   2.459  1.00  0.00    -0.044 N 
HETATM    4  C   UNL     1      41.801 -13.597   2.582  1.00  0.00     0.152 A 
HETATM    5  C   UNL     1      41.573 -13.155   1.296  1.00  0.00     0.087 A 
ENDROOT
BRANCH   4   6
HETATM    6  N   UNL     1      41.724 -12.944   3.807  1.00  0.00    -0.307 N 
HETATM    7  C   UNL     1      40.515 -12.662   4.416  1.00  0.00     0.257 C 
HETATM    8  O   UNL     1      39.409 -12.754   3.895  1.00  0.00    -0.267 OA
HETATM    9  H   UNL     1      42.598 -12.629   4.229  1.00  0.00     0.170 HD
BRANCH   7  10
HETATM   10  C   UNL     1      40.589 -12.194   5.828  1.00  0.00     0.032 A 
HETATM   11  C   UNL     1      39.482 -12.273   6.685  1.00  0.00     0.018 A 
HETATM   12  C   UNL     1      39.533 -11.671   7.947  1.00  0.00     0.026 A 
HETATM   13  C   UNL     1      40.694 -10.998   8.349  1.00  0.00     0.079 A 
HETATM   14  C   UNL     1      41.809 -10.936   7.511  1.00  0.00     0.026 A 
HETATM   15  C   UNL     1      41.753 -11.533   6.249  1.00  0.00     0.018 A 
BRANCH  13  16
HETATM   16  S   UNL     1      40.675 -10.071   9.869  1.00  0.00     0.260 S 
HETATM   17  O   UNL     1      41.489  -8.888   9.685  1.00  0.00    -0.200 OA
HETATM   18  O   UNL     1      39.288  -9.963  10.269  1.00  0.00    -0.200 OA
BRANCH  16  19
HETATM   19  N   UNL     1      41.468 -11.102  10.969  1.00  0.00    -0.307 N 
HETATM   20  C   UNL     1      42.945 -11.227  10.870  1.00  0.00     0.135 C 
HETATM   21  C   UNL     1      43.673 -10.107  11.608  1.00  0.00     0.021 C 
HETATM   22  C   UNL     1      43.184  -9.955  13.045  1.00  0.00     0.003 C 
HETATM   23  C   UNL     1      41.665  -9.835  13.099  1.00  0.00     0.021 C 
HETATM   24  C   UNL     1      41.003 -11.003  12.378  1.00  0.00     0.135 C 
ENDBRANCH  16  19
ENDBRANCH  13  16
ENDBRANCH   7  10
ENDBRANCH   4   6
BRANCH   3  25
HETATM   25  C   UNL     1      42.520 -15.840   3.471  1.00  0.00     0.732 A 
HETATM   26  N   UNL     1      42.692 -15.498   4.711  1.00  0.00    -0.067 NA
HETATM   27  C   UNL     1      43.108 -16.503   5.560  1.00  0.00     0.065 A 
HETATM   28  C   UNL     1      43.327 -17.777   5.179  1.00  0.00     0.036 A 
HETATM   29  C   UNL     1      43.324 -16.074   6.994  1.00  0.00     0.060 C 
HETATM   30  C   UNL     1      43.825 -18.864   6.087  1.00  0.00     0.046 C 
HETATM   31  C   UNL     1      43.087 -18.133   3.760  1.00  0.00     0.268 A 
HETATM   32  C   UNL     1      44.376 -18.325   7.408  1.00  0.00     0.005 C 
HETATM   33  C   UNL     1      43.466 -17.242   7.975  1.00  0.00     0.006 C 
HETATM   34  O   UNL     1      43.237 -19.271   3.333  1.00  0.00    -0.267 OA
HETATM   35  N   UNL     1      42.693 -17.100   2.973  1.00  0.00    -0.152 N 
HETATM   36  H   UNL     1      42.527 -17.269   1.985  1.00  0.00     0.188 HD
ENDBRANCH   3  25
BRANCH   1  37
HETATM   37  C   UNL     1      41.553 -14.286  -1.012  1.00  0.00     0.105 A 
HETATM   38  O   UNL     1      41.963 -13.282  -1.847  1.00  0.00    -0.320 OA
HETATM   39  C   UNL     1      41.609 -13.635  -3.109  1.00  0.00     0.142 A 
HETATM   40  C   UNL     1      40.974 -14.852  -3.109  1.00  0.00     0.027 A 
HETATM   41  C   UNL     1      40.938 -15.274  -1.756  1.00  0.00     0.041 A 
ENDBRANCH   1  37
TORSDOF 6
ENDMDL
MODEL 4
REMARK VINA RESULT:      -9.6      2.585      6.263
REMARK  6 active torsions:
REMARK  status: ('A' for Active; 'I' for Inactive)
REMARK    1  A    between atoms: C_4  and  C_5 
REMARK    2  A    between atoms: N_7  and  C_8 
REMARK    3  A    between atoms: C_19  and  N_20 
REMARK       I    between atoms: N_20  and  C_21 
REMARK    4  A    between atoms: C_21  and  C_22 
REMARK    5  A    between atoms: C_25  and  S_26 
REMARK    6  A    between atoms: S_26  and  N_27 
ROOT
HETATM    1  C   UNL     1      43.789 -19.204   3.512  1.00  0.00     0.115 A 
HETATM    2  N   UNL     1      43.428 -18.257   4.385  1.00  0.00    -0.148 NA
HETATM    3  N   UNL     1      43.024 -17.216   3.593  1.00  0.00    -0.044 N 
HETATM    4  C   UNL     1      43.110 -17.514   2.240  1.00  0.00     0.152 A 
HETATM    5  C   UNL     1      43.630 -18.788   2.177  1.00  0.00     0.087 A 
ENDROOT
BRANCH   4   6
HETATM    6  N   UNL     1      42.704 -16.634   1.242  1.00  0.00    -0.307 N 
HETATM    7  C   UNL     1      41.452 -16.707   0.661  1.00  0.00     0.257 C 
HETATM    8  O   UNL     1      40.653 -17.628   0.788  1.00  0.00    -0.267 OA
HETATM    9  H   UNL     1      43.386 -15.952   0.910  1.00  0.00     0.170 HD
BRANCH   7  10
HETATM   10  C   UNL     1      41.064 -15.556  -0.201  1.00  0.00     0.032 A 
HETATM   11  C   UNL     1      41.188 -15.612  -1.597  1.00  0.00     0.018 A 
HETATM   12  C   UNL     1      40.979 -14.459  -2.362  1.00  0.00     0.026 A 
HETATM   13  C   UNL     1      40.639 -13.257  -1.728  1.00  0.00     0.079 A 
HETATM   14  C   UNL     1      40.490 -13.200  -0.340  1.00  0.00     0.026 A 
HETATM   15  C   UNL     1      40.705 -14.351   0.421  1.00  0.00     0.018 A 
BRANCH  13  16
HETATM   16  S   UNL     1      40.571 -11.760  -2.689  1.00  0.00     0.260 S 
HETATM   17  O   UNL     1      39.943 -12.067  -3.957  1.00  0.00    -0.200 OA
HETATM   18  O   UNL     1      40.028 -10.738  -1.820  1.00  0.00    -0.200 OA
BRANCH  16  19
HETATM   19  N   UNL     1      42.211 -11.400  -2.975  1.00  0.00    -0.307 N 
HETATM   20  C   UNL     1      42.535 -10.143  -3.696  1.00  0.00     0.135 C 
HETATM   21  C   UNL     1      42.574  -8.933  -2.768  1.00  0.00     0.021 C 
HETATM   22  C   UNL     1      43.469  -9.170  -1.555  1.00  0.00     0.003 C 
HETATM   23  C   UNL     1      43.104 -10.471  -0.848  1.00  0.00     0.021 C 
HETATM   24  C   UNL     1      43.122 -11.641  -1.824  1.00  0.00     0.135 C 
ENDBRANCH  16  19
ENDBRANCH  13  16
ENDBRANCH   7  10
ENDBRANCH   4   6
BRANCH   3  25
HETATM   25  C   UNL     1      42.612 -16.012   4.199  1.00  0.00     0.732 A 
HETATM   26  N   UNL     1      41.520 -15.386   3.883  1.00  0.00    -0.067 NA
HETATM   27  C   UNL     1      41.293 -14.200   4.550  1.00  0.00     0.065 A 
HETATM   28  C   UNL     1      42.115 -13.685   5.486  1.00  0.00     0.036 A 
HETATM   29  C   UNL     1      40.026 -13.477   4.147  1.00  0.00     0.060 C 
HETATM   30  C   UNL     1      41.898 -12.372   6.180  1.00  0.00     0.046 C 
HETATM   31  C   UNL     1      43.335 -14.448   5.841  1.00  0.00     0.268 A 
HETATM   32  C   UNL     1      40.833 -11.511   5.499  1.00  0.00     0.005 C 
HETATM   33  C   UNL     1      39.624 -12.352   5.105  1.00  0.00     0.006 C 
HETATM   34  O   UNL     1      44.124 -14.067   6.696  1.00  0.00    -0.267 OA
HETATM   35  N   UNL     1      43.510 -15.598   5.141  1.00  0.00    -0.152 N 
HETATM   36  H   UNL     1      44.334 -16.163   5.322  1.00  0.00     0.188 HD
ENDBRANCH   3  25
BRANCH   1  37
HETATM   37  C   UNL     1      44.287 -20.548   3.931  1.00  0.00     0.105 A 
HETATM   38  O   UNL     1      44.370 -21.634   3.103  1.00  0.00    -0.320 OA
HETATM   39  C   UNL     1      44.854 -22.667   3.837  1.00  0.00     0.142 A 
HETATM   40  C   UNL     1      45.089 -22.271   5.131  1.00  0.00     0.027 A 
HETATM   41  C   UNL     1      44.724 -20.903   5.194  1.00  0.00     0.041 A 
ENDBRANCH   1  37
TORSDOF 6
ENDMDL
MODEL 5
REMARK VINA RESULT:      -9.5      3.667      9.031
REMARK  6 active torsions:
REMARK  status: ('A' for Active; 'I' for Inactive)
REMARK    1  A    between atoms: C_4  and  C_5 
REMARK    2  A    between atoms: N_7  and  C_8 
REMARK    3  A    between atoms: C_19  and  N_20 
REMARK       I    between atoms: N_20  and  C_21 
REMARK    4  A    between atoms: C_21  and  C_22 
REMARK    5  A    between atoms: C_25  and  S_26 
REMARK    6  A    between atoms: S_26  and  N_27 
ROOT
HETATM    1  C   UNL     1      42.530 -18.326   2.761  1.00  0.00     0.115 A 
HETATM    2  N   UNL     1      42.055 -17.634   1.719  1.00  0.00    -0.148 NA
HETATM    3  N   UNL     1      41.476 -16.533   2.291  1.00  0.00    -0.044 N 
HETATM    4  C   UNL     1      41.606 -16.522   3.672  1.00  0.00     0.152 A 
HETATM    5  C   UNL     1      42.262 -17.692   3.989  1.00  0.00     0.087 A 
ENDROOT
BRANCH   4   6
HETATM    6  N   UNL     1      41.146 -15.479   4.469  1.00  0.00    -0.307 N 
HETATM    7  C   UNL     1      41.941 -14.396   4.794  1.00  0.00     0.257 C 
HETATM    8  O   UNL     1      43.151 -14.311   4.612  1.00  0.00    -0.267 OA
HETATM    9  H   UNL     1      40.206 -15.560   4.855  1.00  0.00     0.170 HD
BRANCH   7  10
HETATM   10  C   UNL     1      41.246 -13.245   5.434  1.00  0.00     0.032 A 
HETATM   11  C   UNL     1      41.820 -11.965   5.462  1.00  0.00     0.018 A 
HETATM   12  C   UNL     1      41.222 -10.950   6.216  1.00  0.00     0.026 A 
HETATM   13  C   UNL     1      40.050 -11.215   6.933  1.00  0.00     0.079 A 
HETATM   14  C   UNL     1      39.458 -12.481   6.891  1.00  0.00     0.026 A 
HETATM   15  C   UNL     1      40.060 -13.494   6.142  1.00  0.00     0.018 A 
BRANCH  13  16
HETATM   16  S   UNL     1      39.412  -9.977   8.042  1.00  0.00     0.260 S 
HETATM   17  O   UNL     1      39.067  -8.808   7.262  1.00  0.00    -0.200 OA
HETATM   18  O   UNL     1      38.424 -10.635   8.871  1.00  0.00    -0.200 OA
BRANCH  16  19
HETATM   19  N   UNL     1      40.755  -9.594   9.018  1.00  0.00    -0.307 N 
HETATM   20  C   UNL     1      40.719  -8.325   9.789  1.00  0.00     0.135 C 
HETATM   21  C   UNL     1      39.973  -8.470  11.113  1.00  0.00     0.021 C 
HETATM   22  C   UNL     1      40.486  -9.650  11.933  1.00  0.00     0.003 C 
HETATM   23  C   UNL     1      40.510 -10.928  11.102  1.00  0.00     0.021 C 
HETATM   24  C   UNL     1      41.302 -10.723   9.816  1.00  0.00     0.135 C 
ENDBRANCH  16  19
ENDBRANCH  13  16
ENDBRANCH   7  10
ENDBRANCH   4   6
BRANCH   3  25
HETATM   25  C   UNL     1      40.825 -15.594   1.466  1.00  0.00     0.732 A 
HETATM   26  N   UNL     1      39.600 -15.208   1.645  1.00  0.00    -0.067 NA
HETATM   27  C   UNL     1      39.110 -14.311   0.718  1.00  0.00     0.065 A 
HETATM   28  C   UNL     1      39.821 -13.828  -0.321  1.00  0.00     0.036 A 
HETATM   29  C   UNL     1      37.672 -13.895   0.933  1.00  0.00     0.060 C 
HETATM   30  C   UNL     1      39.280 -12.890  -1.361  1.00  0.00     0.046 C 
HETATM   31  C   UNL     1      41.228 -14.269  -0.470  1.00  0.00     0.268 A 
HETATM   32  C   UNL     1      37.754 -12.784  -1.326  1.00  0.00     0.005 C 
HETATM   33  C   UNL     1      37.249 -12.676   0.108  1.00  0.00     0.006 C 
HETATM   34  O   UNL     1      41.954 -13.862  -1.369  1.00  0.00    -0.267 OA
HETATM   35  N   UNL     1      41.646 -15.161   0.464  1.00  0.00    -0.152 N 
HETATM   36  H   UNL     1      42.596 -15.519   0.412  1.00  0.00     0.188 HD
ENDBRANCH   3  25
BRANCH   1  37
HETATM   37  C   UNL     1      43.271 -19.613   2.612  1.00  0.00     0.105 A 
HETATM   38  O   UNL     1      42.946 -20.591   1.711  1.00  0.00    -0.320 OA
HETATM   39  C   UNL     1      43.832 -21.605   1.877  1.00  0.00     0.142 A 
HETATM   40  C   UNL     1      44.729 -21.304   2.873  1.00  0.00     0.027 A 
HETATM   41  C   UNL     1      44.368 -20.018   3.347  1.00  0.00     0.041 A 
ENDBRANCH   1  37
TORSDOF 6
ENDMDL
MODEL 6
REMARK VINA RESULT:      -9.2      2.595      6.270
REMARK  6 active torsions:
REMARK  status: ('A' for Active; 'I' for Inactive)
REMARK    1  A    between atoms: C_4  and  C_5 
REMARK    2  A    between atoms: N_7  and  C_8 
REMARK    3  A    between atoms: C_19  and  N_20 
REMARK       I    between atoms: N_20  and  C_21 
REMARK    4  A    between atoms: C_21  and  C_22 
REMARK    5  A    between atoms: C_25  and  S_26 
REMARK    6  A    between atoms: S_26  and  N_27 
ROOT
HETATM    1  C   UNL     1      43.887 -19.245   3.333  1.00  0.00     0.115 A 
HETATM    2  N   UNL     1      43.448 -18.319   4.193  1.00  0.00    -0.148 NA
HETATM    3  N   UNL     1      43.123 -17.256   3.394  1.00  0.00    -0.044 N 
HETATM    4  C   UNL     1      43.334 -17.519   2.048  1.00  0.00     0.152 A 
HETATM    5  C   UNL     1      43.855 -18.794   1.999  1.00  0.00     0.087 A 
ENDROOT
BRANCH   4   6
HETATM    6  N   UNL     1      43.026 -16.611   1.040  1.00  0.00    -0.307 N 
HETATM    7  C   UNL     1      41.767 -16.541   0.473  1.00  0.00     0.257 C 
HETATM    8  O   UNL     1      40.864 -17.357   0.622  1.00  0.00    -0.267 OA
HETATM    9  H   UNL     1      43.780 -16.021   0.690  1.00  0.00     0.170 HD
BRANCH   7  10
HETATM   10  C   UNL     1      41.511 -15.365  -0.404  1.00  0.00     0.032 A 
HETATM   11  C   UNL     1      41.538 -14.055   0.099  1.00  0.00     0.018 A 
HETATM   12  C   UNL     1      41.127 -12.990  -0.708  1.00  0.00     0.026 A 
HETATM   13  C   UNL     1      40.697 -13.236  -2.018  1.00  0.00     0.079 A 
HETATM   14  C   UNL     1      40.690 -14.534  -2.534  1.00  0.00     0.026 A 
HETATM   15  C   UNL     1      41.095 -15.597  -1.723  1.00  0.00     0.018 A 
BRANCH  13  16
HETATM   16  S   UNL     1      39.991 -11.903  -2.964  1.00  0.00     0.260 S 
HETATM   17  O   UNL     1      40.039 -10.703  -2.156  1.00  0.00    -0.200 OA
HETATM   18  O   UNL     1      40.619 -11.946  -4.268  1.00  0.00    -0.200 OA
BRANCH  16  19
HETATM   19  N   UNL     1      38.361 -12.366  -3.142  1.00  0.00    -0.307 N 
HETATM   20  C   UNL     1      37.619 -12.791  -1.928  1.00  0.00     0.135 C 
HETATM   21  C   UNL     1      37.054 -11.607  -1.148  1.00  0.00     0.021 C 
HETATM   22  C   UNL     1      36.248 -10.666  -2.039  1.00  0.00     0.003 C 
HETATM   23  C   UNL     1      37.046 -10.260  -3.274  1.00  0.00     0.021 C 
HETATM   24  C   UNL     1      37.547 -11.489  -4.024  1.00  0.00     0.135 C 
ENDBRANCH  16  19
ENDBRANCH  13  16
ENDBRANCH   7  10
ENDBRANCH   4   6
BRANCH   3  25
HETATM   25  C   UNL     1      42.659 -16.067   3.990  1.00  0.00     0.732 A 
HETATM   26  N   UNL     1      41.559 -15.471   3.645  1.00  0.00    -0.067 NA
HETATM   27  C   UNL     1      41.279 -14.294   4.307  1.00  0.00     0.065 A 
HETATM   28  C   UNL     1      42.059 -13.758   5.267  1.00  0.00     0.036 A 
HETATM   29  C   UNL     1      40.004 -13.607   3.871  1.00  0.00     0.060 C 
HETATM   30  C   UNL     1      41.785 -12.453   5.958  1.00  0.00     0.046 C 
HETATM   31  C   UNL     1      43.290 -14.487   5.655  1.00  0.00     0.268 A 
HETATM   32  C   UNL     1      40.715 -11.622   5.249  1.00  0.00     0.005 C 
HETATM   33  C   UNL     1      39.543 -12.496   4.819  1.00  0.00     0.006 C 
HETATM   34  O   UNL     1      44.043 -14.086   6.534  1.00  0.00    -0.267 OA
HETATM   35  N   UNL     1      43.518 -15.629   4.959  1.00  0.00    -0.152 N 
HETATM   36  H   UNL     1      44.353 -16.171   5.161  1.00  0.00     0.188 HD
ENDBRANCH   3  25
BRANCH   1  37
HETATM   37  C   UNL     1      44.340 -20.602   3.761  1.00  0.00     0.105 A 
HETATM   38  O   UNL     1      44.779 -20.908   5.020  1.00  0.00    -0.320 OA
HETATM   39  C   UNL     1      45.111 -22.223   5.025  1.00  0.00     0.142 A 
HETATM   40  C   UNL     1      44.896 -22.780   3.788  1.00  0.00     0.027 A 
HETATM   41  C   UNL     1      44.398 -21.734   2.971  1.00  0.00     0.041 A 
ENDBRANCH   1  37
TORSDOF 6
ENDMDL
MODEL 7
REMARK VINA RESULT:      -9.1      1.435      2.158
REMARK  6 active torsions:
REMARK  status: ('A' for Active; 'I' for Inactive)
REMARK    1  A    between atoms: C_4  and  C_5 
REMARK    2  A    between atoms: N_7  and  C_8 
REMARK    3  A    between atoms: C_19  and  N_20 
REMARK       I    between atoms: N_20  and  C_21 
REMARK    4  A    between atoms: C_21  and  C_22 
REMARK    5  A    between atoms: C_25  and  S_26 
REMARK    6  A    between atoms: S_26  and  N_27 
ROOT
HETATM    1  C   UNL     1      44.254 -13.688   7.640  1.00  0.00     0.115 A 
HETATM    2  N   UNL     1      44.514 -15.000   7.588  1.00  0.00    -0.148 NA
HETATM    3  N   UNL     1      43.887 -15.415   6.444  1.00  0.00    -0.044 N 
HETATM    4  C   UNL     1      43.261 -14.374   5.773  1.00  0.00     0.152 A 
HETATM    5  C   UNL     1      43.468 -13.257   6.553  1.00  0.00     0.087 A 
ENDROOT
BRANCH   4   6
HETATM    6  N   UNL     1      42.605 -14.540   4.558  1.00  0.00    -0.307 N 
HETATM    7  C   UNL     1      41.228 -14.627   4.471  1.00  0.00     0.257 C 
HETATM    8  O   UNL     1      40.456 -14.772   5.412  1.00  0.00    -0.267 OA
HETATM    9  H   UNL     1      43.181 -14.648   3.723  1.00  0.00     0.170 HD
BRANCH   7  10
HETATM   10  C   UNL     1      40.655 -14.547   3.099  1.00  0.00     0.032 A 
HETATM   11  C   UNL     1      41.171 -15.313   2.043  1.00  0.00     0.018 A 
HETATM   12  C   UNL     1      40.725 -15.089   0.736  1.00  0.00     0.026 A 
HETATM   13  C   UNL     1      39.759 -14.105   0.491  1.00  0.00     0.079 A 
HETATM   14  C   UNL     1      39.222 -13.355   1.541  1.00  0.00     0.026 A 
HETATM   15  C   UNL     1      39.674 -13.577   2.844  1.00  0.00     0.018 A 
BRANCH  13  16
HETATM   16  S   UNL     1      39.347 -13.695  -1.192  1.00  0.00     0.260 S 
HETATM   17  O   UNL     1      39.899 -14.719  -2.053  1.00  0.00    -0.200 OA
HETATM   18  O   UNL     1      37.931 -13.396  -1.208  1.00  0.00    -0.200 OA
BRANCH  16  19
HETATM   19  N   UNL     1      40.200 -12.246  -1.464  1.00  0.00    -0.307 N 
HETATM   20  C   UNL     1      41.671 -12.252  -1.259  1.00  0.00     0.135 C 
HETATM   21  C   UNL     1      42.426 -12.765  -2.481  1.00  0.00     0.021 C 
HETATM   22  C   UNL     1      42.007 -12.043  -3.758  1.00  0.00     0.003 C 
HETATM   23  C   UNL     1      40.492 -12.057  -3.926  1.00  0.00     0.021 C 
HETATM   24  C   UNL     1      39.804 -11.498  -2.686  1.00  0.00     0.135 C 
ENDBRANCH  16  19
ENDBRANCH  13  16
ENDBRANCH   7  10
ENDBRANCH   4   6
BRANCH   3  25
HETATM   25  C   UNL     1      43.922 -16.781   6.100  1.00  0.00     0.732 A 
HETATM   26  N   UNL     1      43.866 -17.743   6.969  1.00  0.00    -0.067 NA
HETATM   27  C   UNL     1      43.954 -19.021   6.458  1.00  0.00     0.065 A 
HETATM   28  C   UNL     1      44.079 -19.309   5.147  1.00  0.00     0.036 A 
HETATM   29  C   UNL     1      43.911 -20.124   7.493  1.00  0.00     0.060 C 
HETATM   30  C   UNL     1      44.223 -20.695   4.589  1.00  0.00     0.046 C 
HETATM   31  C   UNL     1      44.106 -18.182   4.184  1.00  0.00     0.268 A 
HETATM   32  C   UNL     1      44.542 -21.735   5.663  1.00  0.00     0.005 C 
HETATM   33  C   UNL     1      43.683 -21.519   6.903  1.00  0.00     0.006 C 
HETATM   34  O   UNL     1      44.192 -18.352   2.975  1.00  0.00    -0.267 OA
HETATM   35  N   UNL     1      44.030 -16.950   4.749  1.00  0.00    -0.152 N 
HETATM   36  H   UNL     1      44.059 -16.131   4.148  1.00  0.00     0.188 HD
ENDBRANCH   3  25
BRANCH   1  37
HETATM   37  C   UNL     1      44.762 -12.801   8.727  1.00  0.00     0.105 A 
HETATM   38  O   UNL     1      44.390 -12.898  10.040  1.00  0.00    -0.320 OA
HETATM   39  C   UNL     1      45.047 -11.925  10.720  1.00  0.00     0.142 A 
HETATM   40  C   UNL     1      45.842 -11.195   9.870  1.00  0.00     0.027 A 
HETATM   41  C   UNL     1      45.660 -11.760   8.583  1.00  0.00     0.041 A 
ENDBRANCH   1  37
TORSDOF 6
ENDMDL
MODEL 8
REMARK VINA RESULT:      -8.6      1.930      2.709
REMARK  6 active torsions:
REMARK  status: ('A' for Active; 'I' for Inactive)
REMARK    1  A    between atoms: C_4  and  C_5 
REMARK    2  A    between atoms: N_7  and  C_8 
REMARK    3  A    between atoms: C_19  and  N_20 
REMARK       I    between atoms: N_20  and  C_21 
REMARK    4  A    between atoms: C_21  and  C_22 
REMARK    5  A    between atoms: C_25  and  S_26 
REMARK    6  A    between atoms: S_26  and  N_27 
ROOT
HETATM    1  C   UNL     1      44.008 -13.209   7.743  1.00  0.00     0.115 A 
HETATM    2  N   UNL     1      44.354 -14.418   7.285  1.00  0.00    -0.148 NA
HETATM    3  N   UNL     1      43.641 -14.547   6.124  1.00  0.00    -0.044 N 
HETATM    4  C   UNL     1      42.873 -13.425   5.845  1.00  0.00     0.152 A 
HETATM    5  C   UNL     1      43.082 -12.565   6.900  1.00  0.00     0.087 A 
ENDROOT
BRANCH   4   6
HETATM    6  N   UNL     1      42.105 -13.299   4.692  1.00  0.00    -0.307 N 
HETATM    7  C   UNL     1      40.752 -13.579   4.675  1.00  0.00     0.257 C 
HETATM    8  O   UNL     1      40.123 -14.143   5.564  1.00  0.00    -0.267 OA
HETATM    9  H   UNL     1      42.587 -13.037   3.832  1.00  0.00     0.170 HD
BRANCH   7  10
HETATM   10  C   UNL     1      40.014 -13.160   3.452  1.00  0.00     0.032 A 
HETATM   11  C   UNL     1      39.418 -14.099   2.597  1.00  0.00     0.018 A 
HETATM   12  C   UNL     1      38.883 -13.686   1.372  1.00  0.00     0.026 A 
HETATM   13  C   UNL     1      38.939 -12.335   1.010  1.00  0.00     0.079 A 
HETATM   14  C   UNL     1      39.508 -11.390   1.867  1.00  0.00     0.026 A 
HETATM   15  C   UNL     1      40.047 -11.806   3.087  1.00  0.00     0.018 A 
BRANCH  13  16
HETATM   16  S   UNL     1      38.436 -11.855  -0.629  1.00  0.00     0.260 S 
HETATM   17  O   UNL     1      39.614 -11.433  -1.356  1.00  0.00    -0.200 OA
HETATM   18  O   UNL     1      37.596 -12.922  -1.131  1.00  0.00    -0.200 OA
BRANCH  16  19
HETATM   19  N   UNL     1      37.454 -10.490  -0.356  1.00  0.00    -0.307 N 
HETATM   20  C   UNL     1      36.805  -9.850  -1.528  1.00  0.00     0.135 C 
HETATM   21  C   UNL     1      35.500 -10.538  -1.917  1.00  0.00     0.021 C 
HETATM   22  C   UNL     1      34.558 -10.695  -0.727  1.00  0.00     0.003 C 
HETATM   23  C   UNL     1      35.266 -11.350   0.453  1.00  0.00     0.021 C 
HETATM   24  C   UNL     1      36.539 -10.591   0.811  1.00  0.00     0.135 C 
ENDBRANCH  16  19
ENDBRANCH  13  16
ENDBRANCH   7  10
ENDBRANCH   4   6
BRANCH   3  25
HETATM   25  C   UNL     1      43.736 -15.746   5.390  1.00  0.00     0.732 A 
HETATM   26  N   UNL     1      43.451 -15.841   4.128  1.00  0.00    -0.067 NA
HETATM   27  C   UNL     1      43.562 -17.101   3.579  1.00  0.00     0.065 A 
HETATM   28  C   UNL     1      43.947 -18.197   4.263  1.00  0.00     0.036 A 
HETATM   29  C   UNL     1      43.203 -17.190   2.112  1.00  0.00     0.060 C 
HETATM   30  C   UNL     1      44.024 -19.580   3.685  1.00  0.00     0.046 C 
HETATM   31  C   UNL     1      44.295 -18.039   5.696  1.00  0.00     0.268 A 
HETATM   32  C   UNL     1      43.314 -19.697   2.335  1.00  0.00     0.005 C 
HETATM   33  C   UNL     1      43.634 -18.500   1.447  1.00  0.00     0.006 C 
HETATM   34  O   UNL     1      44.678 -18.975   6.387  1.00  0.00    -0.267 OA
HETATM   35  N   UNL     1      44.153 -16.780   6.180  1.00  0.00    -0.152 N 
HETATM   36  H   UNL     1      44.358 -16.603   7.159  1.00  0.00     0.188 HD
ENDBRANCH   3  25
BRANCH   1  37
HETATM   37  C   UNL     1      44.564 -12.626   9.000  1.00  0.00     0.105 A 
HETATM   38  O   UNL     1      44.474 -13.216  10.231  1.00  0.00    -0.320 OA
HETATM   39  C   UNL     1      45.082 -12.391  11.121  1.00  0.00     0.142 A 
HETATM   40  C   UNL     1      45.567 -11.273  10.488  1.00  0.00     0.027 A 
HETATM   41  C   UNL     1      45.234 -11.423   9.119  1.00  0.00     0.041 A 
ENDBRANCH   1  37
TORSDOF 6
ENDMDL
MODEL 9
REMARK VINA RESULT:      -8.6      3.510      8.824
REMARK  6 active torsions:
REMARK  status: ('A' for Active; 'I' for Inactive)
REMARK    1  A    between atoms: C_4  and  C_5 
REMARK    2  A    between atoms: N_7  and  C_8 
REMARK    3  A    between atoms: C_19  and  N_20 
REMARK       I    between atoms: N_20  and  C_21 
REMARK    4  A    between atoms: C_21  and  C_22 
REMARK    5  A    between atoms: C_25  and  S_26 
REMARK    6  A    between atoms: S_26  and  N_27 
ROOT
HETATM    1  C   UNL     1      42.751 -18.209   2.672  1.00  0.00     0.115 A 
HETATM    2  N   UNL     1      42.228 -17.667   1.566  1.00  0.00    -0.148 NA
HETATM    3  N   UNL     1      41.733 -16.464   1.991  1.00  0.00    -0.044 N 
HETATM    4  C   UNL     1      41.962 -16.243   3.342  1.00  0.00     0.152 A 
HETATM    5  C   UNL     1      42.595 -17.378   3.798  1.00  0.00     0.087 A 
ENDROOT
BRANCH   4   6
HETATM    6  N   UNL     1      41.599 -15.067   3.990  1.00  0.00    -0.307 N 
HETATM    7  C   UNL     1      40.840 -15.067   5.145  1.00  0.00     0.257 C 
HETATM    8  O   UNL     1      40.243 -16.031   5.613  1.00  0.00    -0.267 OA
HETATM    9  H   UNL     1      41.871 -14.186   3.554  1.00  0.00     0.170 HD
BRANCH   7  10
HETATM   10  C   UNL     1      40.744 -13.766   5.864  1.00  0.00     0.032 A 
HETATM   11  C   UNL     1      39.532 -13.316   6.406  1.00  0.00     0.018 A 
HETATM   12  C   UNL     1      39.438 -12.019   6.921  1.00  0.00     0.026 A 
HETATM   13  C   UNL     1      40.559 -11.180   6.899  1.00  0.00     0.079 A 
HETATM   14  C   UNL     1      41.777 -11.630   6.383  1.00  0.00     0.026 A 
HETATM   15  C   UNL     1      41.866 -12.923   5.864  1.00  0.00     0.018 A 
BRANCH  13  16
HETATM   16  S   UNL     1      40.375  -9.473   7.374  1.00  0.00     0.260 S 
HETATM   17  O   UNL     1      41.085  -8.659   6.411  1.00  0.00    -0.200 OA
HETATM   18  O   UNL     1      38.964  -9.266   7.624  1.00  0.00    -0.200 OA
BRANCH  16  19
HETATM   19  N   UNL     1      41.198  -9.388   8.863  1.00  0.00    -0.307 N 
HETATM   20  C   UNL     1      40.969  -8.197   9.720  1.00  0.00     0.135 C 
HETATM   21  C   UNL     1      39.715  -8.332  10.579  1.00  0.00     0.021 C 
HETATM   22  C   UNL     1      39.694  -9.641  11.362  1.00  0.00     0.003 C 
HETATM   23  C   UNL     1      39.937 -10.834  10.444  1.00  0.00     0.021 C 
HETATM   24  C   UNL     1      41.223 -10.651   9.646  1.00  0.00     0.135 C 
ENDBRANCH  16  19
ENDBRANCH  13  16
ENDBRANCH   7  10
ENDBRANCH   4   6
BRANCH   3  25
HETATM   25  C   UNL     1      41.061 -15.635   1.071  1.00  0.00     0.732 A 
HETATM   26  N   UNL     1      41.613 -15.154  -0.000  1.00  0.00    -0.067 NA
HETATM   27  C   UNL     1      40.819 -14.328  -0.767  1.00  0.00     0.065 A 
HETATM   28  C   UNL     1      39.541 -14.015  -0.474  1.00  0.00     0.036 A 
HETATM   29  C   UNL     1      41.493 -13.761  -1.997  1.00  0.00     0.060 C 
HETATM   30  C   UNL     1      38.686 -13.079  -1.279  1.00  0.00     0.046 C 
HETATM   31  C   UNL     1      38.937 -14.613   0.741  1.00  0.00     0.268 A 
HETATM   32  C   UNL     1      39.495 -12.253  -2.280  1.00  0.00     0.005 C 
HETATM   33  C   UNL     1      40.524 -13.121  -2.996  1.00  0.00     0.006 C 
HETATM   34  O   UNL     1      37.776 -14.403   1.069  1.00  0.00    -0.267 OA
HETATM   35  N   UNL     1      39.772 -15.405   1.460  1.00  0.00    -0.152 N 
HETATM   36  H   UNL     1      39.429 -15.833   2.315  1.00  0.00     0.188 HD
ENDBRANCH   3  25
BRANCH   1  37
HETATM   37  C   UNL     1      43.430 -19.538   2.683  1.00  0.00     0.105 A 
HETATM   38  O   UNL     1      44.309 -19.949   3.649  1.00  0.00    -0.320 OA
HETATM   39  C   UNL     1      44.722 -21.197   3.316  1.00  0.00     0.142 A 
HETATM   40  C   UNL     1      44.127 -21.607   2.148  1.00  0.00     0.027 A 
HETATM   41  C   UNL     1      43.292 -20.538   1.739  1.00  0.00     0.041 A 
ENDBRANCH   1  37
TORSDOF 6
ENDMDL
MODEL 10
REMARK VINA RESULT:      -8.5      3.515      9.837
REMARK  6 active torsions:
REMARK  status: ('A' for Active; 'I' for Inactive)
REMARK    1  A    between atoms: C_4  and  C_5 
REMARK    2  A    between atoms: N_7  and  C_8 
REMARK    3  A    between atoms: C_19  and  N_20 
REMARK       I    between atoms: N_20  and  C_21 
REMARK    4  A    between atoms: C_21  and  C_22 
REMARK    5  A    between atoms: C_25  and  S_26 
REMARK    6  A    between atoms: S_26  and  N_27 
ROOT
HETATM    1  C   UNL     1      38.185 -12.659  -1.733  1.00  0.00     0.115 A 
HETATM    2  N   UNL     1      38.238 -12.015  -0.561  1.00  0.00    -0.148 NA
HETATM    3  N   UNL     1      38.818 -12.920   0.286  1.00  0.00    -0.044 N 
HETATM    4  C   UNL     1      39.147 -14.109  -0.350  1.00  0.00     0.152 A 
HETATM    5  C   UNL     1      38.716 -13.960  -1.651  1.00  0.00     0.087 A 
ENDROOT
BRANCH   4   6
HETATM    6  N   UNL     1      39.796 -15.158   0.291  1.00  0.00    -0.307 N 
HETATM    7  C   UNL     1      41.175 -15.253   0.337  1.00  0.00     0.257 C 
HETATM    8  O   UNL     1      41.964 -14.581  -0.318  1.00  0.00    -0.267 OA
HETATM    9  H   UNL     1      39.217 -15.896   0.691  1.00  0.00     0.170 HD
BRANCH   7  10
HETATM   10  C   UNL     1      41.728 -16.278   1.265  1.00  0.00     0.032 A 
HETATM   11  C   UNL     1      40.936 -16.871   2.259  1.00  0.00     0.018 A 
HETATM   12  C   UNL     1      41.526 -17.699   3.219  1.00  0.00     0.026 A 
HETATM   13  C   UNL     1      42.905 -17.938   3.177  1.00  0.00     0.079 A 
HETATM   14  C   UNL     1      43.697 -17.370   2.175  1.00  0.00     0.026 A 
HETATM   15  C   UNL     1      43.106 -16.539   1.221  1.00  0.00     0.018 A 
BRANCH  13  16
HETATM   16  S   UNL     1      43.672 -18.828   4.514  1.00  0.00     0.260 S 
HETATM   17  O   UNL     1      42.628 -19.461   5.291  1.00  0.00    -0.200 OA
HETATM   18  O   UNL     1      44.740 -19.611   3.929  1.00  0.00    -0.200 OA
BRANCH  16  19
HETATM   19  N   UNL     1      44.372 -17.595   5.458  1.00  0.00    -0.307 N 
HETATM   20  C   UNL     1      43.562 -16.381   5.735  1.00  0.00     0.135 C 
HETATM   21  C   UNL     1      42.623 -16.568   6.923  1.00  0.00     0.021 C 
HETATM   22  C   UNL     1      43.356 -17.088   8.156  1.00  0.00     0.003 C 
HETATM   23  C   UNL     1      44.177 -18.329   7.826  1.00  0.00     0.021 C 
HETATM   24  C   UNL     1      45.118 -18.061   6.657  1.00  0.00     0.135 C 
ENDBRANCH  16  19
ENDBRANCH  13  16
ENDBRANCH   7  10
ENDBRANCH   4   6
BRANCH   3  25
HETATM   25  C   UNL     1      38.989 -12.579   1.643  1.00  0.00     0.732 A 
HETATM   26  N   UNL     1      39.679 -13.288   2.481  1.00  0.00    -0.067 NA
HETATM   27  C   UNL     1      39.707 -12.826   3.781  1.00  0.00     0.065 A 
HETATM   28  C   UNL     1      39.082 -11.709   4.203  1.00  0.00     0.036 A 
HETATM   29  C   UNL     1      40.498 -13.683   4.744  1.00  0.00     0.060 C 
HETATM   30  C   UNL     1      39.068 -11.226   5.625  1.00  0.00     0.046 C 
HETATM   31  C   UNL     1      38.331 -10.909   3.206  1.00  0.00     0.268 A 
HETATM   32  C   UNL     1      39.552 -12.287   6.614  1.00  0.00     0.005 C 
HETATM   33  C   UNL     1      40.789 -13.002   6.084  1.00  0.00     0.006 C 
HETATM   34  O   UNL     1      37.755  -9.868   3.497  1.00  0.00    -0.267 OA
HETATM   35  N   UNL     1      38.330 -11.422   1.950  1.00  0.00    -0.152 N 
HETATM   36  H   UNL     1      37.821 -10.934   1.219  1.00  0.00     0.188 HD
ENDBRANCH   3  25
BRANCH   1  37
HETATM   37  C   UNL     1      37.636 -12.040  -2.975  1.00  0.00     0.105 A 
HETATM   38  O   UNL     1      37.893 -10.758  -3.379  1.00  0.00    -0.320 OA
HETATM   39  C   UNL     1      37.217 -10.555  -4.538  1.00  0.00     0.142 A 
HETATM   40  C   UNL     1      36.523 -11.685  -4.896  1.00  0.00     0.027 A 
HETATM   41  C   UNL     1      36.793 -12.645  -3.889  1.00  0.00     0.041 A 
ENDBRANCH   1  37
TORSDOF 6
ENDMDL
