MODEL 1
REMARK VINA RESULT:      -7.4      0.000      0.000
REMARK  7 active torsions:
REMARK  status: ('A' for Active; 'I' for Inactive)
REMARK    1  A    between atoms: O_2  and  C_3 
REMARK    2  A    between atoms: C_4  and  O_5 
REMARK    3  A    between atoms: O_5  and  C_6 
REMARK       I    between atoms: C_6  and  N_7 
REMARK    4  A    between atoms: C_14  and  O_15 
REMARK    5  A    between atoms: C_18  and  C_19 
REMARK    6  A    between atoms: C_23  and  N_24 
REMARK    7  A    between atoms: C_31  and  C_32 
ROOT
HETATM    1  C   UNL     1      40.334 -11.346   5.543  1.00  0.00     0.105 C 
HETATM    2  C   UNL     1      40.489 -10.821   6.970  1.00  0.00     0.067 C 
HETATM    3  C   UNL     1      39.654 -11.497   8.044  1.00  0.00     0.020 C 
HETATM    4  N   UNL     1      38.962 -12.057   8.937  1.00  0.00    -0.096 N 
HETATM    5  C   UNL     1      41.173  -9.686   7.278  1.00  0.00     0.139 C 
HETATM    6  O   UNL     1      41.771  -8.891   6.281  1.00  0.00    -0.279 OA
HETATM    7  C   UNL     1      41.468  -9.207   5.027  1.00  0.00     0.175 A 
HETATM    8  C   UNL     1      40.784 -10.307   4.573  1.00  0.00     0.040 A 
HETATM    9  N   UNL     1      41.801  -8.472   3.940  1.00  0.00    -0.256 N 
HETATM   10  H   UNL     1      42.319  -7.599   3.904  1.00  0.00     0.191 HD
HETATM   11  N   UNL     1      41.353  -9.012   2.791  1.00  0.00    -0.172 NA
HETATM   12  C   UNL     1      40.693 -10.125   3.167  1.00  0.00     0.099 A 
ENDROOT
BRANCH   1  13
HETATM   13  C   UNL     1      41.176 -12.600   5.307  1.00  0.00    -0.039 A 
HETATM   14  C   UNL     1      40.632 -13.638   4.532  1.00  0.00     0.048 A 
HETATM   15  C   UNL     1      41.322 -14.841   4.374  1.00  0.00     0.105 A 
HETATM   16  C   UNL     1      42.546 -15.035   5.016  1.00  0.00     0.147 A 
HETATM   17  C   UNL     1      43.154 -13.998   5.731  1.00  0.00     0.105 A 
HETATM   18  C   UNL     1      42.445 -12.805   5.903  1.00  0.00     0.048 A 
BRANCH  15  19
HETATM   19  O   UNL     1      40.768 -15.862   3.647  1.00  0.00    -0.353 OA
HETATM   20  C   UNL     1      40.131 -15.348   2.478  1.00  0.00     0.210 C 
ENDBRANCH  15  19
BRANCH  16  21
HETATM   21  O   UNL     1      43.170 -16.283   4.885  1.00  0.00    -0.256 OA
BRANCH  21  22
HETATM   22  C   UNL     1      42.900 -17.148   5.942  1.00  0.00     0.368 C 
HETATM   23  N   UNL     1      43.527 -18.378   5.793  1.00  0.00    -0.324 N 
HETATM   24  C   UNL     1      43.685 -19.228   6.969  1.00  0.00     0.154 C 
HETATM   25  C   UNL     1      44.417 -18.686   4.676  1.00  0.00     0.154 C 
HETATM   26  C   UNL     1      43.762 -20.708   6.591  1.00  0.00     0.187 C 
HETATM   27  O   UNL     1      44.756 -20.936   5.579  1.00  0.00    -0.388 OA
HETATM   28  C   UNL     1      44.439 -20.191   4.394  1.00  0.00     0.187 C 
HETATM   29  O   UNL     1      42.193 -16.882   6.912  1.00  0.00    -0.238 OA
ENDBRANCH  21  22
ENDBRANCH  16  21
BRANCH  17  30
HETATM   30  O   UNL     1      44.413 -14.245   6.213  1.00  0.00    -0.353 OA
HETATM   31  C   UNL     1      44.732 -13.739   7.502  1.00  0.00     0.210 C 
ENDBRANCH  17  30
ENDBRANCH   1  13
BRANCH   5  32
HETATM   32  N   UNL     1      41.323  -9.155   8.537  1.00  0.00    -0.282 NA
HETATM   33  H   UNL     1      41.798  -9.734   9.224  1.00  0.00     0.126 HD
HETATM   34  H   UNL     1      40.473  -8.721   8.887  1.00  0.00     0.126 HD
ENDBRANCH   5  32
BRANCH  12  35
HETATM   35  C   UNL     1      40.030 -10.967   2.175  1.00  0.00    -0.005 A 
HETATM   36  C   UNL     1      38.657 -11.227   2.284  1.00  0.00     0.015 A 
HETATM   37  C   UNL     1      38.014 -12.048   1.353  1.00  0.00     0.020 A 
HETATM   38  C   UNL     1      38.746 -12.615   0.313  1.00  0.00     0.011 A 
HETATM   39 BR   UNL     1      37.883 -13.736  -0.941  1.00  0.00    -0.051 Br
HETATM   40  C   UNL     1      40.114 -12.373   0.197  1.00  0.00     0.020 A 
HETATM   41  C   UNL     1      40.755 -11.551   1.128  1.00  0.00     0.015 A 
ENDBRANCH  12  35
TORSDOF 7
ENDMDL
MODEL 2
REMARK VINA RESULT:      -7.3      3.414      6.118
REMARK  7 active torsions:
REMARK  status: ('A' for Active; 'I' for Inactive)
REMARK    1  A    between atoms: O_2  and  C_3 
REMARK    2  A    between atoms: C_4  and  O_5 
REMARK    3  A    between atoms: O_5  and  C_6 
REMARK       I    between atoms: C_6  and  N_7 
REMARK    4  A    between atoms: C_14  and  O_15 
REMARK    5  A    between atoms: C_18  and  C_19 
REMARK    6  A    between atoms: C_23  and  N_24 
REMARK    7  A    between atoms: C_31  and  C_32 
ROOT
HETATM    1  C   UNL     1      40.520 -12.513  -0.051  1.00  0.00     0.105 C 
HETATM    2  C   UNL     1      40.548 -13.042  -1.484  1.00  0.00     0.067 C 
HETATM    3  C   UNL     1      41.875 -12.961  -2.220  1.00  0.00     0.020 C 
HETATM    4  N   UNL     1      42.976 -12.895  -2.831  1.00  0.00    -0.096 N 
HETATM    5  C   UNL     1      39.428 -13.393  -2.174  1.00  0.00     0.139 C 
HETATM    6  O   UNL     1      38.144 -13.262  -1.610  1.00  0.00    -0.279 OA
HETATM    7  C   UNL     1      38.080 -12.607  -0.457  1.00  0.00     0.175 A 
HETATM    8  C   UNL     1      39.118 -12.187   0.338  1.00  0.00     0.040 A 
HETATM    9  N   UNL     1      36.934 -12.231   0.159  1.00  0.00    -0.256 N 
HETATM   10  H   UNL     1      35.977 -12.386  -0.142  1.00  0.00     0.191 HD
HETATM   11  N   UNL     1      37.157 -11.564   1.307  1.00  0.00    -0.172 NA
HETATM   12  C   UNL     1      38.498 -11.497   1.413  1.00  0.00     0.099 A 
ENDROOT
BRANCH   1  13
HETATM   13  C   UNL     1      41.052 -13.545   0.943  1.00  0.00    -0.039 A 
HETATM   14  C   UNL     1      42.158 -13.200   1.741  1.00  0.00     0.048 A 
HETATM   15  C   UNL     1      42.740 -14.143   2.589  1.00  0.00     0.105 A 
HETATM   16  C   UNL     1      42.249 -15.449   2.626  1.00  0.00     0.147 A 
HETATM   17  C   UNL     1      41.105 -15.807   1.905  1.00  0.00     0.105 A 
HETATM   18  C   UNL     1      40.542 -14.862   1.041  1.00  0.00     0.048 A 
BRANCH  15  19
HETATM   19  O   UNL     1      43.840 -13.811   3.337  1.00  0.00    -0.353 OA
HETATM   20  C   UNL     1      43.456 -13.527   4.682  1.00  0.00     0.210 C 
ENDBRANCH  15  19
BRANCH  16  21
HETATM   21  O   UNL     1      42.908 -16.380   3.440  1.00  0.00    -0.256 OA
BRANCH  21  22
HETATM   22  C   UNL     1      43.688 -17.285   2.724  1.00  0.00     0.368 C 
HETATM   23  N   UNL     1      43.898 -18.468   3.419  1.00  0.00    -0.324 N 
HETATM   24  C   UNL     1      44.329 -19.648   2.675  1.00  0.00     0.154 C 
HETATM   25  C   UNL     1      43.305 -18.737   4.728  1.00  0.00     0.154 C 
HETATM   26  C   UNL     1      45.118 -20.616   3.557  1.00  0.00     0.187 C 
HETATM   27  O   UNL     1      44.401 -20.927   4.762  1.00  0.00    -0.388 OA
HETATM   28  C   UNL     1      44.159 -19.732   5.520  1.00  0.00     0.187 C 
HETATM   29  O   UNL     1      44.151 -17.089   1.603  1.00  0.00    -0.238 OA
ENDBRANCH  21  22
ENDBRANCH  16  21
BRANCH  17  30
HETATM   30  O   UNL     1      40.627 -17.075   2.109  1.00  0.00    -0.353 OA
HETATM   31  C   UNL     1      40.728 -17.994   1.030  1.00  0.00     0.210 C 
ENDBRANCH  17  30
ENDBRANCH   1  13
BRANCH   5  32
HETATM   32  N   UNL     1      39.393 -13.850  -3.470  1.00  0.00    -0.282 NA
HETATM   33  H   UNL     1      39.506 -13.154  -4.202  1.00  0.00     0.126 HD
HETATM   34  H   UNL     1      38.631 -14.500  -3.639  1.00  0.00     0.126 HD
ENDBRANCH   5  32
BRANCH  12  35
HETATM   35  C   UNL     1      39.121 -10.801   2.536  1.00  0.00    -0.005 A 
HETATM   36  C   UNL     1      40.042  -9.771   2.298  1.00  0.00     0.015 A 
HETATM   37  C   UNL     1      40.661  -9.112   3.363  1.00  0.00     0.020 A 
HETATM   38  C   UNL     1      40.364  -9.486   4.671  1.00  0.00     0.011 A 
HETATM   39 BR   UNL     1      41.207  -8.604   6.115  1.00  0.00    -0.051 Br
HETATM   40  C   UNL     1      39.457 -10.514   4.924  1.00  0.00     0.020 A 
HETATM   41  C   UNL     1      38.838 -11.172   3.857  1.00  0.00     0.015 A 
ENDBRANCH  12  35
TORSDOF 7
ENDMDL
MODEL 3
REMARK VINA RESULT:      -7.2      3.372      5.696
REMARK  7 active torsions:
REMARK  status: ('A' for Active; 'I' for Inactive)
REMARK    1  A    between atoms: O_2  and  C_3 
REMARK    2  A    between atoms: C_4  and  O_5 
REMARK    3  A    between atoms: O_5  and  C_6 
REMARK       I    between atoms: C_6  and  N_7 
REMARK    4  A    between atoms: C_14  and  O_15 
REMARK    5  A    between atoms: C_18  and  C_19 
REMARK    6  A    between atoms: C_23  and  N_24 
REMARK    7  A    between atoms: C_31  and  C_32 
ROOT
HETATM    1  C   UNL     1      40.272 -12.411   0.246  1.00  0.00     0.105 C 
HETATM    2  C   UNL     1      40.397 -12.981  -1.166  1.00  0.00     0.067 C 
HETATM    3  C   UNL     1      41.771 -12.922  -1.811  1.00  0.00     0.020 C 
HETATM    4  N   UNL     1      42.912 -12.874  -2.346  1.00  0.00    -0.096 N 
HETATM    5  C   UNL     1      39.326 -13.352  -1.920  1.00  0.00     0.139 C 
HETATM    6  O   UNL     1      38.007 -13.204  -1.451  1.00  0.00    -0.279 OA
HETATM    7  C   UNL     1      37.865 -12.516  -0.324  1.00  0.00     0.175 A 
HETATM    8  C   UNL     1      38.847 -12.074   0.528  1.00  0.00     0.040 A 
HETATM    9  N   UNL     1      36.680 -12.122   0.201  1.00  0.00    -0.256 N 
HETATM   10  H   UNL     1      35.746 -12.285  -0.161  1.00  0.00     0.191 HD
HETATM   11  N   UNL     1      36.825 -11.422   1.342  1.00  0.00    -0.172 NA
HETATM   12  C   UNL     1      38.157 -11.352   1.538  1.00  0.00     0.099 A 
ENDROOT
BRANCH   1  13
HETATM   13  C   UNL     1      40.732 -13.414   1.304  1.00  0.00    -0.039 A 
HETATM   14  C   UNL     1      40.319 -14.752   1.185  1.00  0.00     0.048 A 
HETATM   15  C   UNL     1      40.630 -15.681   2.179  1.00  0.00     0.105 A 
HETATM   16  C   UNL     1      41.324 -15.277   3.320  1.00  0.00     0.147 A 
HETATM   17  C   UNL     1      41.818 -13.974   3.438  1.00  0.00     0.105 A 
HETATM   18  C   UNL     1      41.482 -13.045   2.447  1.00  0.00     0.048 A 
BRANCH  15  19
HETATM   19  O   UNL     1      40.193 -16.975   2.073  1.00  0.00    -0.353 OA
HETATM   20  C   UNL     1      40.979 -17.686   1.118  1.00  0.00     0.210 C 
ENDBRANCH  15  19
BRANCH  16  21
HETATM   21  O   UNL     1      41.554 -16.228   4.324  1.00  0.00    -0.256 OA
BRANCH  21  22
HETATM   22  C   UNL     1      42.831 -16.781   4.279  1.00  0.00     0.368 C 
HETATM   23  N   UNL     1      43.241 -17.268   5.513  1.00  0.00    -0.324 N 
HETATM   24  C   UNL     1      44.345 -18.222   5.555  1.00  0.00     0.154 C 
HETATM   25  C   UNL     1      42.387 -17.249   6.698  1.00  0.00     0.154 C 
HETATM   26  C   UNL     1      45.090 -18.166   6.889  1.00  0.00     0.187 C 
HETATM   27  O   UNL     1      44.185 -18.287   7.998  1.00  0.00    -0.388 OA
HETATM   28  C   UNL     1      43.228 -17.217   7.978  1.00  0.00     0.187 C 
HETATM   29  O   UNL     1      43.539 -16.846   3.277  1.00  0.00    -0.238 OA
ENDBRANCH  21  22
ENDBRANCH  16  21
BRANCH  17  30
HETATM   30  O   UNL     1      42.598 -13.713   4.534  1.00  0.00    -0.353 OA
HETATM   31  C   UNL     1      42.036 -12.907   5.561  1.00  0.00     0.210 C 
ENDBRANCH  17  30
ENDBRANCH   1  13
BRANCH   5  32
HETATM   32  N   UNL     1      39.379 -13.846  -3.202  1.00  0.00    -0.282 NA
HETATM   33  H   UNL     1      39.785 -14.770  -3.319  1.00  0.00     0.126 HD
HETATM   34  H   UNL     1      39.716 -13.164  -3.875  1.00  0.00     0.126 HD
ENDBRANCH   5  32
BRANCH  12  35
HETATM   35  C   UNL     1      38.702 -10.625   2.680  1.00  0.00    -0.005 A 
HETATM   36  C   UNL     1      39.357  -9.401   2.483  1.00  0.00     0.015 A 
HETATM   37  C   UNL     1      39.902  -8.704   3.565  1.00  0.00     0.020 A 
HETATM   38  C   UNL     1      39.799  -9.235   4.848  1.00  0.00     0.011 A 
HETATM   39 BR   UNL     1      40.545  -8.302   6.313  1.00  0.00    -0.051 Br
HETATM   40  C   UNL     1      39.157 -10.454   5.060  1.00  0.00     0.020 A 
HETATM   41  C   UNL     1      38.612 -11.150   3.976  1.00  0.00     0.015 A 
ENDBRANCH  12  35
TORSDOF 7
ENDMDL
MODEL 4
REMARK VINA RESULT:      -7.1      1.331      2.654
REMARK  7 active torsions:
REMARK  status: ('A' for Active; 'I' for Inactive)
REMARK    1  A    between atoms: O_2  and  C_3 
REMARK    2  A    between atoms: C_4  and  O_5 
REMARK    3  A    between atoms: O_5  and  C_6 
REMARK       I    between atoms: C_6  and  N_7 
REMARK    4  A    between atoms: C_14  and  O_15 
REMARK    5  A    between atoms: C_18  and  C_19 
REMARK    6  A    between atoms: C_23  and  N_24 
REMARK    7  A    between atoms: C_31  and  C_32 
ROOT
HETATM    1  C   UNL     1      40.337 -11.181   6.325  1.00  0.00     0.105 C 
HETATM    2  C   UNL     1      40.648 -10.550   7.682  1.00  0.00     0.067 C 
HETATM    3  C   UNL     1      39.876 -11.078   8.878  1.00  0.00     0.020 C 
HETATM    4  N   UNL     1      39.235 -11.517   9.872  1.00  0.00    -0.096 N 
HETATM    5  C   UNL     1      41.422  -9.440   7.830  1.00  0.00     0.139 C 
HETATM    6  O   UNL     1      41.973  -8.771   6.720  1.00  0.00    -0.279 OA
HETATM    7  C   UNL     1      41.541  -9.169   5.529  1.00  0.00     0.175 A 
HETATM    8  C   UNL     1      40.757 -10.257   5.233  1.00  0.00     0.040 A 
HETATM    9  N   UNL     1      41.817  -8.551   4.356  1.00  0.00    -0.256 N 
HETATM   10  H   UNL     1      42.379  -7.720   4.200  1.00  0.00     0.191 HD
HETATM   11  N   UNL     1      41.238  -9.155   3.302  1.00  0.00    -0.172 NA
HETATM   12  C   UNL     1      40.551 -10.187   3.829  1.00  0.00     0.099 A 
ENDROOT
BRANCH   1  13
HETATM   13  C   UNL     1      41.081 -12.501   6.131  1.00  0.00    -0.039 A 
HETATM   14  C   UNL     1      42.487 -12.489   6.154  1.00  0.00     0.048 A 
HETATM   15  C   UNL     1      43.209 -13.651   5.881  1.00  0.00     0.105 A 
HETATM   16  C   UNL     1      42.540 -14.829   5.548  1.00  0.00     0.147 A 
HETATM   17  C   UNL     1      41.143 -14.899   5.590  1.00  0.00     0.105 A 
HETATM   18  C   UNL     1      40.428 -13.724   5.842  1.00  0.00     0.048 A 
BRANCH  15  19
HETATM   19  O   UNL     1      44.580 -13.623   5.869  1.00  0.00    -0.353 OA
HETATM   20  C   UNL     1      45.087 -13.687   7.202  1.00  0.00     0.210 C 
ENDBRANCH  15  19
BRANCH  16  21
HETATM   21  O   UNL     1      43.307 -15.954   5.213  1.00  0.00    -0.256 OA
BRANCH  21  22
HETATM   22  C   UNL     1      43.295 -16.245   3.852  1.00  0.00     0.368 C 
HETATM   23  N   UNL     1      43.495 -17.595   3.597  1.00  0.00    -0.324 N 
HETATM   24  C   UNL     1      43.111 -18.124   2.292  1.00  0.00     0.154 C 
HETATM   25  C   UNL     1      43.637 -18.591   4.658  1.00  0.00     0.154 C 
HETATM   26  C   UNL     1      43.935 -19.357   1.917  1.00  0.00     0.187 C 
HETATM   27  O   UNL     1      43.910 -20.339   2.965  1.00  0.00    -0.388 OA
HETATM   28  C   UNL     1      44.456 -19.791   4.174  1.00  0.00     0.187 C 
HETATM   29  O   UNL     1      43.128 -15.423   2.953  1.00  0.00    -0.238 OA
ENDBRANCH  21  22
ENDBRANCH  16  21
BRANCH  17  30
HETATM   30  O   UNL     1      40.587 -16.132   5.374  1.00  0.00    -0.353 OA
HETATM   31  C   UNL     1      40.520 -17.024   6.479  1.00  0.00     0.210 C 
ENDBRANCH  17  30
ENDBRANCH   1  13
BRANCH   5  32
HETATM   32  N   UNL     1      41.713  -8.817   9.020  1.00  0.00    -0.282 NA
HETATM   33  H   UNL     1      42.690  -8.595   9.192  1.00  0.00     0.126 HD
HETATM   34  H   UNL     1      41.247  -9.244   9.815  1.00  0.00     0.126 HD
ENDBRANCH   5  32
BRANCH  12  35
HETATM   35  C   UNL     1      39.754 -11.063   2.975  1.00  0.00    -0.005 A 
HETATM   36  C   UNL     1      40.295 -12.272   2.514  1.00  0.00     0.015 A 
HETATM   37  C   UNL     1      39.551 -13.109   1.678  1.00  0.00     0.020 A 
HETATM   38  C   UNL     1      38.265 -12.736   1.296  1.00  0.00     0.011 A 
HETATM   39 BR   UNL     1      37.260 -13.860   0.157  1.00  0.00    -0.051 Br
HETATM   40  C   UNL     1      37.717 -11.533   1.739  1.00  0.00     0.020 A 
HETATM   41  C   UNL     1      38.462 -10.697   2.576  1.00  0.00     0.015 A 
ENDBRANCH  12  35
TORSDOF 7
ENDMDL
MODEL 5
REMARK VINA RESULT:      -7.1      3.578      5.868
REMARK  7 active torsions:
REMARK  status: ('A' for Active; 'I' for Inactive)
REMARK    1  A    between atoms: O_2  and  C_3 
REMARK    2  A    between atoms: C_4  and  O_5 
REMARK    3  A    between atoms: O_5  and  C_6 
REMARK       I    between atoms: C_6  and  N_7 
REMARK    4  A    between atoms: C_14  and  O_15 
REMARK    5  A    between atoms: C_18  and  C_19 
REMARK    6  A    between atoms: C_23  and  N_24 
REMARK    7  A    between atoms: C_31  and  C_32 
ROOT
HETATM    1  C   UNL     1      40.652 -12.943  -0.275  1.00  0.00     0.105 C 
HETATM    2  C   UNL     1      40.929 -13.199  -1.755  1.00  0.00     0.067 C 
HETATM    3  C   UNL     1      42.107 -12.461  -2.370  1.00  0.00     0.020 C 
HETATM    4  N   UNL     1      43.085 -11.850  -2.881  1.00  0.00    -0.096 N 
HETATM    5  C   UNL     1      40.081 -13.885  -2.568  1.00  0.00     0.139 C 
HETATM    6  O   UNL     1      38.854 -14.390  -2.094  1.00  0.00    -0.279 OA
HETATM    7  C   UNL     1      38.495 -13.997  -0.878  1.00  0.00     0.175 A 
HETATM    8  C   UNL     1      39.239 -13.299   0.041  1.00  0.00     0.040 A 
HETATM    9  N   UNL     1      37.287 -14.232  -0.311  1.00  0.00    -0.256 N 
HETATM   10  H   UNL     1      36.494 -14.730  -0.703  1.00  0.00     0.191 HD
HETATM   11  N   UNL     1      37.182 -13.706   0.923  1.00  0.00    -0.172 NA
HETATM   12  C   UNL     1      38.364 -13.096   1.141  1.00  0.00     0.099 A 
ENDROOT
BRANCH   1  13
HETATM   13  C   UNL     1      41.556 -13.786   0.624  1.00  0.00    -0.039 A 
HETATM   14  C   UNL     1      41.600 -15.176   0.418  1.00  0.00     0.048 A 
HETATM   15  C   UNL     1      42.332 -15.998   1.276  1.00  0.00     0.105 A 
HETATM   16  C   UNL     1      42.999 -15.446   2.371  1.00  0.00     0.147 A 
HETATM   17  C   UNL     1      43.042 -14.061   2.564  1.00  0.00     0.105 A 
HETATM   18  C   UNL     1      42.287 -13.249   1.712  1.00  0.00     0.048 A 
BRANCH  15  19
HETATM   19  O   UNL     1      42.340 -17.355   1.091  1.00  0.00    -0.353 OA
HETATM   20  C   UNL     1      41.017 -17.878   1.205  1.00  0.00     0.210 C 
ENDBRANCH  15  19
BRANCH  16  21
HETATM   21  O   UNL     1      43.664 -16.316   3.247  1.00  0.00    -0.256 OA
BRANCH  21  22
HETATM   22  C   UNL     1      42.871 -16.742   4.310  1.00  0.00     0.368 C 
HETATM   23  N   UNL     1      43.406 -17.845   4.961  1.00  0.00    -0.324 N 
HETATM   24  C   UNL     1      42.936 -18.156   6.307  1.00  0.00     0.154 C 
HETATM   25  C   UNL     1      44.690 -18.438   4.595  1.00  0.00     0.154 C 
HETATM   26  C   UNL     1      43.076 -19.645   6.625  1.00  0.00     0.187 C 
HETATM   27  O   UNL     1      44.408 -20.112   6.359  1.00  0.00    -0.388 OA
HETATM   28  C   UNL     1      44.735 -19.921   4.975  1.00  0.00     0.187 C 
HETATM   29  O   UNL     1      41.813 -16.221   4.657  1.00  0.00    -0.238 OA
ENDBRANCH  21  22
ENDBRANCH  16  21
BRANCH  17  30
HETATM   30  O   UNL     1      43.830 -13.612   3.591  1.00  0.00    -0.353 OA
HETATM   31  C   UNL     1      43.179 -13.211   4.789  1.00  0.00     0.210 C 
ENDBRANCH  17  30
ENDBRANCH   1  13
BRANCH   5  32
HETATM   32  N   UNL     1      40.267 -14.122  -3.909  1.00  0.00    -0.282 NA
HETATM   33  H   UNL     1      40.510 -13.321  -4.485  1.00  0.00     0.126 HD
HETATM   34  H   UNL     1      39.542 -14.708  -4.312  1.00  0.00     0.126 HD
ENDBRANCH   5  32
BRANCH  12  35
HETATM   35  C   UNL     1      38.608 -12.373   2.386  1.00  0.00    -0.005 A 
HETATM   36  C   UNL     1      38.166 -11.050   2.525  1.00  0.00     0.015 A 
HETATM   37  C   UNL     1      38.412 -10.340   3.703  1.00  0.00     0.020 A 
HETATM   38  C   UNL     1      39.107 -10.950   4.744  1.00  0.00     0.011 A 
HETATM   39 BR   UNL     1      39.452  -9.989   6.334  1.00  0.00    -0.051 Br
HETATM   40  C   UNL     1      39.561 -12.262   4.617  1.00  0.00     0.020 A 
HETATM   41  C   UNL     1      39.313 -12.972   3.439  1.00  0.00     0.015 A 
ENDBRANCH  12  35
TORSDOF 7
ENDMDL
MODEL 6
REMARK VINA RESULT:      -7.1      3.005      5.508
REMARK  7 active torsions:
REMARK  status: ('A' for Active; 'I' for Inactive)
REMARK    1  A    between atoms: O_2  and  C_3 
REMARK    2  A    between atoms: C_4  and  O_5 
REMARK    3  A    between atoms: O_5  and  C_6 
REMARK       I    between atoms: C_6  and  N_7 
REMARK    4  A    between atoms: C_14  and  O_15 
REMARK    5  A    between atoms: C_18  and  C_19 
REMARK    6  A    between atoms: C_23  and  N_24 
REMARK    7  A    between atoms: C_31  and  C_32 
ROOT
HETATM    1  C   UNL     1      40.381 -11.638   2.204  1.00  0.00     0.105 C 
HETATM    2  C   UNL     1      40.238 -11.675   0.683  1.00  0.00     0.067 C 
HETATM    3  C   UNL     1      41.520 -11.805  -0.123  1.00  0.00     0.020 C 
HETATM    4  N   UNL     1      42.582 -11.914  -0.793  1.00  0.00    -0.096 N 
HETATM    5  C   UNL     1      39.072 -11.411   0.034  1.00  0.00     0.139 C 
HETATM    6  O   UNL     1      37.903 -11.051   0.734  1.00  0.00    -0.279 OA
HETATM    7  C   UNL     1      38.056 -10.803   2.030  1.00  0.00     0.175 A 
HETATM    8  C   UNL     1      39.169 -11.012   2.807  1.00  0.00     0.040 A 
HETATM    9  N   UNL     1      37.101 -10.286   2.839  1.00  0.00    -0.256 N 
HETATM   10  H   UNL     1      36.151 -10.020   2.601  1.00  0.00     0.191 HD
HETATM   11  N   UNL     1      37.528 -10.118   4.105  1.00  0.00    -0.172 NA
HETATM   12  C   UNL     1      38.812 -10.527   4.094  1.00  0.00     0.099 A 
ENDROOT
BRANCH   1  13
HETATM   13  C   UNL     1      40.523 -13.040   2.793  1.00  0.00    -0.039 A 
HETATM   14  C   UNL     1      41.096 -13.177   4.070  1.00  0.00     0.048 A 
HETATM   15  C   UNL     1      41.338 -14.443   4.606  1.00  0.00     0.105 A 
HETATM   16  C   UNL     1      41.046 -15.586   3.860  1.00  0.00     0.147 A 
HETATM   17  C   UNL     1      40.405 -15.490   2.620  1.00  0.00     0.105 A 
HETATM   18  C   UNL     1      40.187 -14.218   2.082  1.00  0.00     0.048 A 
BRANCH  15  19
HETATM   19  O   UNL     1      41.930 -14.568   5.835  1.00  0.00    -0.353 OA
HETATM   20  C   UNL     1      43.082 -13.730   5.917  1.00  0.00     0.210 C 
ENDBRANCH  15  19
BRANCH  16  21
HETATM   21  O   UNL     1      41.370 -16.834   4.410  1.00  0.00    -0.256 OA
BRANCH  21  22
HETATM   22  C   UNL     1      42.721 -17.154   4.293  1.00  0.00     0.368 C 
HETATM   23  N   UNL     1      43.271 -17.574   5.496  1.00  0.00    -0.324 N 
HETATM   24  C   UNL     1      44.525 -18.320   5.468  1.00  0.00     0.154 C 
HETATM   25  C   UNL     1      42.487 -17.717   6.722  1.00  0.00     0.154 C 
HETATM   26  C   UNL     1      45.315 -18.148   6.766  1.00  0.00     0.187 C 
HETATM   27  O   UNL     1      44.502 -18.436   7.914  1.00  0.00    -0.388 OA
HETATM   28  C   UNL     1      43.373 -17.550   7.959  1.00  0.00     0.187 C 
HETATM   29  O   UNL     1      43.377 -17.084   3.257  1.00  0.00    -0.238 OA
ENDBRANCH  21  22
ENDBRANCH  16  21
BRANCH  17  30
HETATM   30  O   UNL     1      40.044 -16.672   2.028  1.00  0.00    -0.353 OA
HETATM   31  C   UNL     1      40.874 -17.162   0.984  1.00  0.00     0.210 C 
ENDBRANCH  17  30
ENDBRANCH   1  13
BRANCH   5  32
HETATM   32  N   UNL     1      38.893 -11.405  -1.329  1.00  0.00    -0.282 NA
HETATM   33  H   UNL     1      38.182 -10.778  -1.693  1.00  0.00     0.126 HD
HETATM   34  H   UNL     1      38.856 -12.339  -1.727  1.00  0.00     0.126 HD
ENDBRANCH   5  32
BRANCH  12  35
HETATM   35  C   UNL     1      39.625 -10.456   5.304  1.00  0.00    -0.005 A 
HETATM   36  C   UNL     1      40.689  -9.546   5.381  1.00  0.00     0.015 A 
HETATM   37  C   UNL     1      41.488  -9.483   6.526  1.00  0.00     0.020 A 
HETATM   38  C   UNL     1      41.227 -10.335   7.596  1.00  0.00     0.011 A 
HETATM   39 BR   UNL     1      42.313 -10.260   9.142  1.00  0.00    -0.051 Br
HETATM   40  C   UNL     1      40.178 -11.251   7.532  1.00  0.00     0.020 A 
HETATM   41  C   UNL     1      39.379 -11.313   6.386  1.00  0.00     0.015 A 
ENDBRANCH  12  35
TORSDOF 7
ENDMDL
MODEL 7
REMARK VINA RESULT:      -7.0      3.854      6.562
REMARK  7 active torsions:
REMARK  status: ('A' for Active; 'I' for Inactive)
REMARK    1  A    between atoms: O_2  and  C_3 
REMARK    2  A    between atoms: C_4  and  O_5 
REMARK    3  A    between atoms: O_5  and  C_6 
REMARK       I    between atoms: C_6  and  N_7 
REMARK    4  A    between atoms: C_14  and  O_15 
REMARK    5  A    between atoms: C_18  and  C_19 
REMARK    6  A    between atoms: C_23  and  N_24 
REMARK    7  A    between atoms: C_31  and  C_32 
ROOT
HETATM    1  C   UNL     1      40.121 -11.005  -1.276  1.00  0.00     0.105 C 
HETATM    2  C   UNL     1      40.345 -10.900  -2.784  1.00  0.00     0.067 C 
HETATM    3  C   UNL     1      41.665 -10.301  -3.242  1.00  0.00     0.020 C 
HETATM    4  N   UNL     1      42.760  -9.806  -3.622  1.00  0.00    -0.096 N 
HETATM    5  C   UNL     1      39.369 -11.132  -3.703  1.00  0.00     0.139 C 
HETATM    6  O   UNL     1      38.056 -11.463  -3.317  1.00  0.00    -0.279 OA
HETATM    7  C   UNL     1      37.785 -11.348  -2.021  1.00  0.00     0.175 A 
HETATM    8  C   UNL     1      38.661 -11.111  -0.991  1.00  0.00     0.040 A 
HETATM    9  N   UNL     1      36.552 -11.457  -1.474  1.00  0.00    -0.256 N 
HETATM   10  H   UNL     1      35.669 -11.641  -1.941  1.00  0.00     0.191 HD
HETATM   11  N   UNL     1      36.559 -11.279  -0.139  1.00  0.00    -0.172 NA
HETATM   12  C   UNL     1      37.847 -11.029   0.169  1.00  0.00     0.099 A 
ENDROOT
BRANCH   1  13
HETATM   13  C   UNL     1      40.802 -12.240  -0.688  1.00  0.00    -0.039 A 
HETATM   14  C   UNL     1      40.665 -13.467  -1.360  1.00  0.00     0.048 A 
HETATM   15  C   UNL     1      41.183 -14.639  -0.809  1.00  0.00     0.105 A 
HETATM   16  C   UNL     1      41.813 -14.607   0.437  1.00  0.00     0.147 A 
HETATM   17  C   UNL     1      42.037 -13.395   1.098  1.00  0.00     0.105 A 
HETATM   18  C   UNL     1      41.494 -12.229   0.549  1.00  0.00     0.048 A 
BRANCH  15  19
HETATM   19  O   UNL     1      41.014 -15.837  -1.452  1.00  0.00    -0.353 OA
HETATM   20  C   UNL     1      40.832 -15.625  -2.852  1.00  0.00     0.210 C 
ENDBRANCH  15  19
BRANCH  16  21
HETATM   21  O   UNL     1      42.257 -15.819   0.984  1.00  0.00    -0.256 OA
BRANCH  21  22
HETATM   22  C   UNL     1      41.380 -16.354   1.924  1.00  0.00     0.368 C 
HETATM   23  N   UNL     1      42.041 -16.889   3.021  1.00  0.00    -0.324 N 
HETATM   24  C   UNL     1      41.287 -17.110   4.251  1.00  0.00     0.154 C 
HETATM   25  C   UNL     1      43.492 -16.830   3.180  1.00  0.00     0.154 C 
HETATM   26  C   UNL     1      41.893 -18.235   5.091  1.00  0.00     0.187 C 
HETATM   27  O   UNL     1      43.297 -18.026   5.308  1.00  0.00    -0.388 OA
HETATM   28  C   UNL     1      43.993 -17.984   4.054  1.00  0.00     0.187 C 
HETATM   29  O   UNL     1      40.155 -16.364   1.823  1.00  0.00    -0.238 OA
ENDBRANCH  21  22
ENDBRANCH  16  21
BRANCH  17  30
HETATM   30  O   UNL     1      42.777 -13.455   2.249  1.00  0.00    -0.353 OA
HETATM   31  C   UNL     1      42.190 -12.935   3.434  1.00  0.00     0.210 C 
ENDBRANCH  17  30
ENDBRANCH   1  13
BRANCH   5  32
HETATM   32  N   UNL     1      39.508 -11.028  -5.067  1.00  0.00    -0.282 NA
HETATM   33  H   UNL     1      39.185 -11.817  -5.620  1.00  0.00     0.126 HD
HETATM   34  H   UNL     1      40.420 -10.680  -5.347  1.00  0.00     0.126 HD
ENDBRANCH   5  32
BRANCH  12  35
HETATM   35  C   UNL     1      38.239 -10.747   1.547  1.00  0.00    -0.005 A 
HETATM   36  C   UNL     1      38.548  -9.435   1.932  1.00  0.00     0.015 A 
HETATM   37  C   UNL     1      38.945  -9.155   3.242  1.00  0.00     0.020 A 
HETATM   38  C   UNL     1      39.040 -10.189   4.170  1.00  0.00     0.011 A 
HETATM   39 BR   UNL     1      39.589  -9.815   5.940  1.00  0.00    -0.051 Br
HETATM   40  C   UNL     1      38.745 -11.500   3.800  1.00  0.00     0.020 A 
HETATM   41  C   UNL     1      38.346 -11.779   2.489  1.00  0.00     0.015 A 
ENDBRANCH  12  35
TORSDOF 7
ENDMDL
MODEL 8
REMARK VINA RESULT:      -7.0      3.835      7.506
REMARK  7 active torsions:
REMARK  status: ('A' for Active; 'I' for Inactive)
REMARK    1  A    between atoms: O_2  and  C_3 
REMARK    2  A    between atoms: C_4  and  O_5 
REMARK    3  A    between atoms: O_5  and  C_6 
REMARK       I    between atoms: C_6  and  N_7 
REMARK    4  A    between atoms: C_14  and  O_15 
REMARK    5  A    between atoms: C_18  and  C_19 
REMARK    6  A    between atoms: C_23  and  N_24 
REMARK    7  A    between atoms: C_31  and  C_32 
ROOT
HETATM    1  C   UNL     1      40.928 -11.241   4.271  1.00  0.00     0.105 C 
HETATM    2  C   UNL     1      40.629  -9.934   5.005  1.00  0.00     0.067 C 
HETATM    3  C   UNL     1      41.527  -8.750   4.689  1.00  0.00     0.020 C 
HETATM    4  N   UNL     1      42.271  -7.766   4.427  1.00  0.00    -0.096 N 
HETATM    5  C   UNL     1      39.746  -9.840   6.036  1.00  0.00     0.139 C 
HETATM    6  O   UNL     1      39.058 -10.968   6.523  1.00  0.00    -0.279 OA
HETATM    7  C   UNL     1      39.460 -12.142   6.049  1.00  0.00     0.175 A 
HETATM    8  C   UNL     1      40.342 -12.386   5.026  1.00  0.00     0.040 A 
HETATM    9  N   UNL     1      39.045 -13.347   6.509  1.00  0.00    -0.256 N 
HETATM   10  H   UNL     1      38.385 -13.543   7.255  1.00  0.00     0.191 HD
HETATM   11  N   UNL     1      39.624 -14.376   5.863  1.00  0.00    -0.172 NA
HETATM   12  C   UNL     1      40.453 -13.801   4.970  1.00  0.00     0.099 A 
ENDROOT
BRANCH   1  13
HETATM   13  C   UNL     1      40.327 -11.252   2.867  1.00  0.00    -0.039 A 
HETATM   14  C   UNL     1      38.928 -11.317   2.735  1.00  0.00     0.048 A 
HETATM   15  C   UNL     1      38.340 -11.431   1.475  1.00  0.00     0.105 A 
HETATM   16  C   UNL     1      39.139 -11.517   0.335  1.00  0.00     0.147 A 
HETATM   17  C   UNL     1      40.529 -11.378   0.419  1.00  0.00     0.105 A 
HETATM   18  C   UNL     1      41.111 -11.287   1.688  1.00  0.00     0.048 A 
BRANCH  15  19
HETATM   19  O   UNL     1      36.978 -11.531   1.358  1.00  0.00    -0.353 OA
HETATM   20  C   UNL     1      36.369 -10.257   1.571  1.00  0.00     0.210 C 
ENDBRANCH  15  19
BRANCH  16  21
HETATM   21  O   UNL     1      38.508 -11.700  -0.903  1.00  0.00    -0.256 OA
BRANCH  21  22
HETATM   22  C   UNL     1      38.410 -13.037  -1.280  1.00  0.00     0.368 C 
HETATM   23  N   UNL     1      37.739 -13.200  -2.484  1.00  0.00    -0.324 N 
HETATM   24  C   UNL     1      37.904 -14.455  -3.211  1.00  0.00     0.154 C 
HETATM   25  C   UNL     1      37.254 -12.076  -3.282  1.00  0.00     0.154 C 
HETATM   26  C   UNL     1      36.692 -14.761  -4.093  1.00  0.00     0.187 C 
HETATM   27  O   UNL     1      36.368 -13.646  -4.939  1.00  0.00    -0.388 OA
HETATM   28  C   UNL     1      36.058 -12.492  -4.143  1.00  0.00     0.187 C 
HETATM   29  O   UNL     1      38.857 -13.987  -0.641  1.00  0.00    -0.238 OA
ENDBRANCH  21  22
ENDBRANCH  16  21
BRANCH  17  30
HETATM   30  O   UNL     1      41.212 -11.346  -0.768  1.00  0.00    -0.353 OA
HETATM   31  C   UNL     1      42.203 -12.343  -0.980  1.00  0.00     0.210 C 
ENDBRANCH  17  30
ENDBRANCH   1  13
BRANCH   5  32
HETATM   32  N   UNL     1      39.459  -8.699   6.746  1.00  0.00    -0.282 NA
HETATM   33  H   UNL     1      39.222  -8.819   7.727  1.00  0.00     0.126 HD
HETATM   34  H   UNL     1      38.833  -8.071   6.250  1.00  0.00     0.126 HD
ENDBRANCH   5  32
BRANCH  12  35
HETATM   35  C   UNL     1      41.291 -14.621   4.098  1.00  0.00    -0.005 A 
HETATM   36  C   UNL     1      40.708 -15.620   3.306  1.00  0.00     0.015 A 
HETATM   37  C   UNL     1      41.501 -16.425   2.483  1.00  0.00     0.020 A 
HETATM   38  C   UNL     1      42.880 -16.236   2.456  1.00  0.00     0.011 A 
HETATM   39 BR   UNL     1      43.956 -17.331   1.353  1.00  0.00    -0.051 Br
HETATM   40  C   UNL     1      43.475 -15.252   3.244  1.00  0.00     0.020 A 
HETATM   41  C   UNL     1      42.681 -14.447   4.066  1.00  0.00     0.015 A 
ENDBRANCH  12  35
TORSDOF 7
ENDMDL
MODEL 9
REMARK VINA RESULT:      -7.0      2.948      5.024
REMARK  7 active torsions:
REMARK  status: ('A' for Active; 'I' for Inactive)
REMARK    1  A    between atoms: O_2  and  C_3 
REMARK    2  A    between atoms: C_4  and  O_5 
REMARK    3  A    between atoms: O_5  and  C_6 
REMARK       I    between atoms: C_6  and  N_7 
REMARK    4  A    between atoms: C_14  and  O_15 
REMARK    5  A    between atoms: C_18  and  C_19 
REMARK    6  A    between atoms: C_23  and  N_24 
REMARK    7  A    between atoms: C_31  and  C_32 
ROOT
HETATM    1  C   UNL     1      40.830 -10.933   2.509  1.00  0.00     0.105 C 
HETATM    2  C   UNL     1      40.700 -10.798   0.993  1.00  0.00     0.067 C 
HETATM    3  C   UNL     1      41.986 -10.600   0.209  1.00  0.00     0.020 C 
HETATM    4  N   UNL     1      43.053 -10.437  -0.443  1.00  0.00    -0.096 N 
HETATM    5  C   UNL     1      39.506 -10.658   0.354  1.00  0.00     0.139 C 
HETATM    6  O   UNL     1      38.292 -10.599   1.065  1.00  0.00    -0.279 OA
HETATM    7  C   UNL     1      38.396 -10.496   2.385  1.00  0.00     0.175 A 
HETATM    8  C   UNL     1      39.526 -10.609   3.156  1.00  0.00     0.040 A 
HETATM    9  N   UNL     1      37.363 -10.261   3.229  1.00  0.00    -0.256 N 
HETATM   10  H   UNL     1      36.382 -10.135   3.003  1.00  0.00     0.191 HD
HETATM   11  N   UNL     1      37.751 -10.187   4.516  1.00  0.00    -0.172 NA
HETATM   12  C   UNL     1      39.087 -10.363   4.485  1.00  0.00     0.099 A 
ENDROOT
BRANCH   1  13
HETATM   13  C   UNL     1      41.213 -12.355   2.919  1.00  0.00    -0.039 A 
HETATM   14  C   UNL     1      40.419 -13.422   2.465  1.00  0.00     0.048 A 
HETATM   15  C   UNL     1      40.670 -14.725   2.895  1.00  0.00     0.105 A 
HETATM   16  C   UNL     1      41.694 -14.975   3.811  1.00  0.00     0.147 A 
HETATM   17  C   UNL     1      42.552 -13.951   4.225  1.00  0.00     0.105 A 
HETATM   18  C   UNL     1      42.278 -12.645   3.807  1.00  0.00     0.048 A 
BRANCH  15  19
HETATM   19  O   UNL     1      39.870 -15.755   2.476  1.00  0.00    -0.353 OA
HETATM   20  C   UNL     1      38.769 -15.250   1.720  1.00  0.00     0.210 C 
ENDBRANCH  15  19
BRANCH  16  21
HETATM   21  O   UNL     1      41.865 -16.288   4.268  1.00  0.00    -0.256 OA
BRANCH  21  22
HETATM   22  C   UNL     1      42.809 -17.008   3.539  1.00  0.00     0.368 C 
HETATM   23  N   UNL     1      43.266 -18.126   4.223  1.00  0.00    -0.324 N 
HETATM   24  C   UNL     1      43.925 -19.186   3.466  1.00  0.00     0.154 C 
HETATM   25  C   UNL     1      42.754 -18.520   5.534  1.00  0.00     0.154 C 
HETATM   26  C   UNL     1      44.906 -19.975   4.334  1.00  0.00     0.187 C 
HETATM   27  O   UNL     1      44.280 -20.436   5.542  1.00  0.00    -0.388 OA
HETATM   28  C   UNL     1      43.803 -19.322   6.311  1.00  0.00     0.187 C 
HETATM   29  O   UNL     1      43.210 -16.713   2.416  1.00  0.00    -0.238 OA
ENDBRANCH  21  22
ENDBRANCH  16  21
BRANCH  17  30
HETATM   30  O   UNL     1      43.603 -14.321   5.022  1.00  0.00    -0.353 OA
HETATM   31  C   UNL     1      43.626 -13.821   6.352  1.00  0.00     0.210 C 
ENDBRANCH  17  30
ENDBRANCH   1  13
BRANCH   5  32
HETATM   32  N   UNL     1      39.333 -10.507  -1.001  1.00  0.00    -0.282 NA
HETATM   33  H   UNL     1      39.182 -11.356  -1.540  1.00  0.00     0.126 HD
HETATM   34  H   UNL     1      40.009  -9.874  -1.419  1.00  0.00     0.126 HD
ENDBRANCH   5  32
BRANCH  12  35
HETATM   35  C   UNL     1      39.872 -10.310   5.715  1.00  0.00    -0.005 A 
HETATM   36  C   UNL     1      39.648 -11.251   6.730  1.00  0.00     0.015 A 
HETATM   37  C   UNL     1      40.378 -11.198   7.920  1.00  0.00     0.020 A 
HETATM   38  C   UNL     1      41.330 -10.199   8.101  1.00  0.00     0.011 A 
HETATM   39 BR   UNL     1      42.311 -10.117   9.715  1.00  0.00    -0.051 Br
HETATM   40  C   UNL     1      41.559  -9.251   7.104  1.00  0.00     0.020 A 
HETATM   41  C   UNL     1      40.829  -9.306   5.913  1.00  0.00     0.015 A 
ENDBRANCH  12  35
TORSDOF 7
ENDMDL
MODEL 10
REMARK VINA RESULT:      -6.9      3.665      6.652
REMARK  7 active torsions:
REMARK  status: ('A' for Active; 'I' for Inactive)
REMARK    1  A    between atoms: O_2  and  C_3 
REMARK    2  A    between atoms: C_4  and  O_5 
REMARK    3  A    between atoms: O_5  and  C_6 
REMARK       I    between atoms: C_6  and  N_7 
REMARK    4  A    between atoms: C_14  and  O_15 
REMARK    5  A    between atoms: C_18  and  C_19 
REMARK    6  A    between atoms: C_23  and  N_24 
REMARK    7  A    between atoms: C_31  and  C_32 
ROOT
HETATM    1  C   UNL     1      40.343 -11.989  -1.214  1.00  0.00     0.105 C 
HETATM    2  C   UNL     1      41.750 -12.194  -1.775  1.00  0.00     0.067 C 
HETATM    3  C   UNL     1      42.801 -11.170  -1.380  1.00  0.00     0.020 C 
HETATM    4  N   UNL     1      43.674 -10.322  -1.052  1.00  0.00    -0.096 N 
HETATM    5  C   UNL     1      42.047 -13.112  -2.734  1.00  0.00     0.139 C 
HETATM    6  O   UNL     1      41.052 -13.930  -3.305  1.00  0.00    -0.279 OA
HETATM    7  C   UNL     1      39.798 -13.622  -2.994  1.00  0.00     0.175 A 
HETATM    8  C   UNL     1      39.355 -12.720  -2.059  1.00  0.00     0.040 A 
HETATM    9  N   UNL     1      38.700 -14.174  -3.563  1.00  0.00    -0.256 N 
HETATM   10  H   UNL     1      38.655 -14.885  -4.286  1.00  0.00     0.191 HD
HETATM   11  N   UNL     1      37.552 -13.668  -3.073  1.00  0.00    -0.172 NA
HETATM   12  C   UNL     1      37.939 -12.744  -2.171  1.00  0.00     0.099 A 
ENDROOT
BRANCH   1  13
HETATM   13  C   UNL     1      40.220 -12.521   0.213  1.00  0.00    -0.039 A 
HETATM   14  C   UNL     1      39.980 -11.604   1.252  1.00  0.00     0.048 A 
HETATM   15  C   UNL     1      39.960 -12.029   2.581  1.00  0.00     0.105 A 
HETATM   16  C   UNL     1      40.215 -13.366   2.892  1.00  0.00     0.147 A 
HETATM   17  C   UNL     1      40.381 -14.320   1.882  1.00  0.00     0.105 A 
HETATM   18  C   UNL     1      40.421 -13.880   0.555  1.00  0.00     0.048 A 
BRANCH  15  19
HETATM   19  O   UNL     1      39.762 -11.124   3.591  1.00  0.00    -0.353 OA
HETATM   20  C   UNL     1      38.384 -10.759   3.663  1.00  0.00     0.210 C 
ENDBRANCH  15  19
BRANCH  16  21
HETATM   21  O   UNL     1      40.253 -13.734   4.244  1.00  0.00    -0.256 OA
BRANCH  21  22
HETATM   22  C   UNL     1      41.542 -13.767   4.770  1.00  0.00     0.368 C 
HETATM   23  N   UNL     1      41.803 -14.944   5.458  1.00  0.00    -0.324 N 
HETATM   24  C   UNL     1      43.193 -15.313   5.709  1.00  0.00     0.154 C 
HETATM   25  C   UNL     1      40.840 -16.039   5.553  1.00  0.00     0.154 C 
HETATM   26  C   UNL     1      43.329 -16.189   6.956  1.00  0.00     0.187 C 
HETATM   27  O   UNL     1      42.438 -17.314   6.902  1.00  0.00    -0.388 OA
HETATM   28  C   UNL     1      41.076 -16.866   6.821  1.00  0.00     0.187 C 
HETATM   29  O   UNL     1      42.377 -12.873   4.654  1.00  0.00    -0.238 OA
ENDBRANCH  21  22
ENDBRANCH  16  21
BRANCH  17  30
HETATM   30  O   UNL     1      40.495 -15.623   2.286  1.00  0.00    -0.353 OA
HETATM   31  C   UNL     1      41.676 -16.323   1.919  1.00  0.00     0.210 C 
ENDBRANCH  17  30
ENDBRANCH   1  13
BRANCH   5  32
HETATM   32  N   UNL     1      43.286 -13.320  -3.291  1.00  0.00    -0.282 NA
HETATM   33  H   UNL     1      43.395 -13.071  -4.270  1.00  0.00     0.126 HD
HETATM   34  H   UNL     1      43.678 -14.228  -3.056  1.00  0.00     0.126 HD
ENDBRANCH   5  32
BRANCH  12  35
HETATM   35  C   UNL     1      36.948 -11.950  -1.450  1.00  0.00    -0.005 A 
HETATM   36  C   UNL     1      36.195 -10.984  -2.131  1.00  0.00     0.015 A 
HETATM   37  C   UNL     1      35.259 -10.203  -1.449  1.00  0.00     0.020 A 
HETATM   38  C   UNL     1      35.078 -10.383  -0.080  1.00  0.00     0.011 A 
HETATM   39 BR   UNL     1      33.821  -9.320   0.849  1.00  0.00    -0.051 Br
HETATM   40  C   UNL     1      35.825 -11.334   0.613  1.00  0.00     0.020 A 
HETATM   41  C   UNL     1      36.761 -12.115  -0.071  1.00  0.00     0.015 A 
ENDBRANCH  12  35
TORSDOF 7
ENDMDL
