MODEL 1
REMARK VINA RESULT:      -8.2      0.000      0.000
REMARK  7 active torsions:
REMARK  status: ('A' for Active; 'I' for Inactive)
REMARK    1  A    between atoms: C_2  and  N_3 
REMARK    2  A    between atoms: C_2  and  C_17 
REMARK       I    between atoms: N_3  and  C_4 
REMARK    3  A    between atoms: C_4  and  C_5 
REMARK    4  A    between atoms: C_7  and  N_8 
REMARK    5  A    between atoms: C_17  and  O_18 
REMARK    6  A    between atoms: C_17  and  C_19 
REMARK    7  A    between atoms: C_22  and  O_23 
ROOT
HETATM    1  N   UNL     1      43.087 -14.457   6.442  1.00  0.00    -0.349 N 
HETATM    2  C   UNL     1      44.291 -14.769   7.029  1.00  0.00     0.270 C 
HETATM    3  O   UNL     1      44.792 -15.887   6.989  1.00  0.00    -0.266 OA
HETATM    4  H   UNL     1      42.783 -13.493   6.556  1.00  0.00     0.163 HD
ENDROOT
BRANCH   1   5
HETATM    5  C   UNL     1      42.294 -15.348   5.590  1.00  0.00     0.114 C 
HETATM    6  C   UNL     1      40.802 -15.028   5.722  1.00  0.00     0.035 C 
BRANCH   5   7
HETATM    7  C   UNL     1      42.730 -15.414   4.092  1.00  0.00     0.173 C 
BRANCH   7   8
HETATM    8  O   UNL     1      43.661 -14.400   3.714  1.00  0.00    -0.389 OA
HETATM    9  H   UNL     1      44.056 -14.045   4.538  1.00  0.00     0.210 HD
ENDBRANCH   7   8
BRANCH   7  10
HETATM   10  C   UNL     1      43.226 -16.784   3.667  1.00  0.00    -0.028 A 
HETATM   11  C   UNL     1      43.322 -17.815   4.611  1.00  0.00     0.012 A 
HETATM   12  C   UNL     1      43.774 -19.083   4.237  1.00  0.00     0.037 A 
HETATM   13  C   UNL     1      44.138 -19.348   2.916  1.00  0.00     0.068 A 
HETATM   14  C   UNL     1      44.062 -18.325   1.972  1.00  0.00     0.037 A 
HETATM   15  C   UNL     1      43.610 -17.053   2.346  1.00  0.00     0.012 A 
BRANCH  13  16
HETATM   16  O   UNL     1      44.552 -20.631   2.682  1.00  0.00    -0.356 OA
HETATM   17  C   UNL     1      43.766 -21.400   1.782  1.00  0.00     0.210 C 
ENDBRANCH  13  16
ENDBRANCH   7  10
ENDBRANCH   5   7
ENDBRANCH   1   5
BRANCH   2  18
HETATM   18  C   UNL     1      44.965 -13.625   7.726  1.00  0.00     0.126 A 
HETATM   19  N   UNL     1      44.331 -13.136   8.829  1.00  0.00    -0.224 NA
HETATM   20  C   UNL     1      44.924 -12.077   9.450  1.00  0.00     0.151 A 
HETATM   21  C   UNL     1      46.118 -11.508   9.003  1.00  0.00     0.052 A 
HETATM   22  C   UNL     1      46.736 -12.038   7.873  1.00  0.00     0.006 A 
HETATM   23  C   UNL     1      46.153 -13.116   7.218  1.00  0.00     0.037 A 
BRANCH  20  24
HETATM   24  N   UNL     1      44.288 -11.527  10.604  1.00  0.00    -0.227 N 
HETATM   25  N   UNL     1      43.773 -12.304  11.597  1.00  0.00    -0.179 NA
HETATM   26  C   UNL     1      43.284 -11.432  12.481  1.00  0.00     0.141 A 
HETATM   27  C   UNL     1      43.468 -10.099  12.085  1.00  0.00     0.040 A 
HETATM   28  C   UNL     1      44.114 -10.185  10.876  1.00  0.00     0.122 A 
ENDBRANCH  20  24
ENDBRANCH   2  18
TORSDOF 7
ENDMDL
MODEL 2
REMARK VINA RESULT:      -7.8      5.908      9.313
REMARK  7 active torsions:
REMARK  status: ('A' for Active; 'I' for Inactive)
REMARK    1  A    between atoms: C_2  and  N_3 
REMARK    2  A    between atoms: C_2  and  C_17 
REMARK       I    between atoms: N_3  and  C_4 
REMARK    3  A    between atoms: C_4  and  C_5 
REMARK    4  A    between atoms: C_7  and  N_8 
REMARK    5  A    between atoms: C_17  and  O_18 
REMARK    6  A    between atoms: C_17  and  C_19 
REMARK    7  A    between atoms: C_22  and  O_23 
ROOT
HETATM    1  N   UNL     1      41.094 -14.560   1.599  1.00  0.00    -0.349 N 
HETATM    2  C   UNL     1      41.870 -13.531   1.122  1.00  0.00     0.270 C 
HETATM    3  O   UNL     1      42.683 -12.922   1.809  1.00  0.00    -0.266 OA
HETATM    4  H   UNL     1      40.456 -14.975   0.925  1.00  0.00     0.163 HD
ENDROOT
BRANCH   1   5
HETATM    5  C   UNL     1      41.200 -15.166   2.930  1.00  0.00     0.114 C 
HETATM    6  C   UNL     1      40.499 -14.292   3.974  1.00  0.00     0.035 C 
BRANCH   5   7
HETATM    7  C   UNL     1      40.738 -16.654   3.033  1.00  0.00     0.173 C 
BRANCH   7   8
HETATM    8  O   UNL     1      39.793 -17.038   2.035  1.00  0.00    -0.389 OA
HETATM    9  H   UNL     1      39.713 -16.290   1.406  1.00  0.00     0.210 HD
ENDBRANCH   7   8
BRANCH   7  10
HETATM   10  C   UNL     1      41.889 -17.641   3.091  1.00  0.00    -0.028 A 
HETATM   11  C   UNL     1      42.484 -17.948   4.323  1.00  0.00     0.012 A 
HETATM   12  C   UNL     1      43.543 -18.857   4.396  1.00  0.00     0.037 A 
HETATM   13  C   UNL     1      44.028 -19.477   3.244  1.00  0.00     0.068 A 
HETATM   14  C   UNL     1      43.455 -19.167   2.012  1.00  0.00     0.037 A 
HETATM   15  C   UNL     1      42.394 -18.256   1.938  1.00  0.00     0.012 A 
BRANCH  13  16
HETATM   16  O   UNL     1      45.059 -20.352   3.456  1.00  0.00    -0.356 OA
HETATM   17  C   UNL     1      44.951 -21.200   4.592  1.00  0.00     0.210 C 
ENDBRANCH  13  16
ENDBRANCH   7  10
ENDBRANCH   5   7
ENDBRANCH   1   5
BRANCH   2  18
HETATM   18  C   UNL     1      41.657 -13.202  -0.325  1.00  0.00     0.126 A 
HETATM   19  N   UNL     1      40.766 -13.986  -0.995  1.00  0.00    -0.224 NA
HETATM   20  C   UNL     1      40.589 -13.711  -2.318  1.00  0.00     0.151 A 
HETATM   21  C   UNL     1      41.270 -12.685  -2.976  1.00  0.00     0.052 A 
HETATM   22  C   UNL     1      42.173 -11.904  -2.256  1.00  0.00     0.006 A 
HETATM   23  C   UNL     1      42.374 -12.164  -0.906  1.00  0.00     0.037 A 
BRANCH  20  24
HETATM   24  N   UNL     1      39.670 -14.514  -3.060  1.00  0.00    -0.227 N 
HETATM   25  N   UNL     1      40.066 -15.591  -3.792  1.00  0.00    -0.179 NA
HETATM   26  C   UNL     1      38.936 -16.068  -4.318  1.00  0.00     0.141 A 
HETATM   27  C   UNL     1      37.808 -15.322  -3.945  1.00  0.00     0.040 A 
HETATM   28  C   UNL     1      38.305 -14.328  -3.138  1.00  0.00     0.122 A 
ENDBRANCH  20  24
ENDBRANCH   2  18
TORSDOF 7
ENDMDL
MODEL 3
REMARK VINA RESULT:      -7.5      4.948      8.664
REMARK  7 active torsions:
REMARK  status: ('A' for Active; 'I' for Inactive)
REMARK    1  A    between atoms: C_2  and  N_3 
REMARK    2  A    between atoms: C_2  and  C_17 
REMARK       I    between atoms: N_3  and  C_4 
REMARK    3  A    between atoms: C_4  and  C_5 
REMARK    4  A    between atoms: C_7  and  N_8 
REMARK    5  A    between atoms: C_17  and  O_18 
REMARK    6  A    between atoms: C_17  and  C_19 
REMARK    7  A    between atoms: C_22  and  O_23 
ROOT
HETATM    1  N   UNL     1      41.944 -15.913   2.121  1.00  0.00    -0.349 N 
HETATM    2  C   UNL     1      42.888 -15.595   3.069  1.00  0.00     0.270 C 
HETATM    3  O   UNL     1      43.274 -14.451   3.281  1.00  0.00    -0.266 OA
HETATM    4  H   UNL     1      41.719 -16.901   2.043  1.00  0.00     0.163 HD
ENDROOT
BRANCH   1   5
HETATM    5  C   UNL     1      41.173 -14.952   1.325  1.00  0.00     0.114 C 
HETATM    6  C   UNL     1      41.288 -15.279  -0.167  1.00  0.00     0.035 C 
BRANCH   5   7
HETATM    7  C   UNL     1      39.683 -14.765   1.751  1.00  0.00     0.173 C 
BRANCH   7   8
HETATM    8  O   UNL     1      38.996 -15.988   2.012  1.00  0.00    -0.389 OA
HETATM    9  H   UNL     1      38.042 -15.827   1.849  1.00  0.00     0.210 HD
ENDBRANCH   7   8
BRANCH   7  10
HETATM   10  C   UNL     1      39.502 -13.791   2.902  1.00  0.00    -0.028 A 
HETATM   11  C   UNL     1      39.826 -14.187   4.208  1.00  0.00     0.012 A 
HETATM   12  C   UNL     1      39.668 -13.303   5.279  1.00  0.00     0.037 A 
HETATM   13  C   UNL     1      39.186 -12.011   5.070  1.00  0.00     0.068 A 
HETATM   14  C   UNL     1      38.846 -11.613   3.778  1.00  0.00     0.037 A 
HETATM   15  C   UNL     1      39.003 -12.497   2.703  1.00  0.00     0.012 A 
BRANCH  13  16
HETATM   16  O   UNL     1      39.090 -11.246   6.200  1.00  0.00    -0.356 OA
HETATM   17  C   UNL     1      39.441 -11.873   7.426  1.00  0.00     0.210 C 
ENDBRANCH  13  16
ENDBRANCH   7  10
ENDBRANCH   5   7
ENDBRANCH   1   5
BRANCH   2  18
HETATM   18  C   UNL     1      43.418 -16.764   3.844  1.00  0.00     0.126 A 
HETATM   19  N   UNL     1      43.520 -17.940   3.163  1.00  0.00    -0.224 NA
HETATM   20  C   UNL     1      43.974 -19.013   3.871  1.00  0.00     0.151 A 
HETATM   21  C   UNL     1      44.324 -18.938   5.220  1.00  0.00     0.052 A 
HETATM   22  C   UNL     1      44.207 -17.717   5.881  1.00  0.00     0.006 A 
HETATM   23  C   UNL     1      43.745 -16.606   5.184  1.00  0.00     0.037 A 
BRANCH  20  24
HETATM   24  N   UNL     1      44.088 -20.268   3.199  1.00  0.00    -0.227 N 
HETATM   25  N   UNL     1      44.662 -21.359   3.778  1.00  0.00    -0.179 NA
HETATM   26  C   UNL     1      44.570 -22.314   2.850  1.00  0.00     0.141 A 
HETATM   27  C   UNL     1      43.949 -21.868   1.673  1.00  0.00     0.040 A 
HETATM   28  C   UNL     1      43.649 -20.551   1.921  1.00  0.00     0.122 A 
ENDBRANCH  20  24
ENDBRANCH   2  18
TORSDOF 7
ENDMDL
MODEL 4
REMARK VINA RESULT:      -7.5      5.550      8.495
REMARK  7 active torsions:
REMARK  status: ('A' for Active; 'I' for Inactive)
REMARK    1  A    between atoms: C_2  and  N_3 
REMARK    2  A    between atoms: C_2  and  C_17 
REMARK       I    between atoms: N_3  and  C_4 
REMARK    3  A    between atoms: C_4  and  C_5 
REMARK    4  A    between atoms: C_7  and  N_8 
REMARK    5  A    between atoms: C_17  and  O_18 
REMARK    6  A    between atoms: C_17  and  C_19 
REMARK    7  A    between atoms: C_22  and  O_23 
ROOT
HETATM    1  N   UNL     1      41.155 -14.803   2.852  1.00  0.00    -0.349 N 
HETATM    2  C   UNL     1      41.041 -16.171   2.779  1.00  0.00     0.270 C 
HETATM    3  O   UNL     1      40.135 -16.742   2.182  1.00  0.00    -0.266 OA
HETATM    4  H   UNL     1      41.950 -14.459   3.385  1.00  0.00     0.163 HD
ENDROOT
BRANCH   1   5
HETATM    5  C   UNL     1      40.315 -13.834   2.141  1.00  0.00     0.114 C 
HETATM    6  C   UNL     1      39.640 -12.880   3.132  1.00  0.00     0.035 C 
BRANCH   5   7
HETATM    7  C   UNL     1      41.017 -13.051   0.988  1.00  0.00     0.173 C 
BRANCH   7   8
HETATM    8  O   UNL     1      42.416 -12.851   1.189  1.00  0.00    -0.389 OA
HETATM    9  H   UNL     1      42.870 -13.115   0.361  1.00  0.00     0.210 HD
ENDBRANCH   7   8
BRANCH   7  10
HETATM   10  C   UNL     1      40.751 -13.634  -0.388  1.00  0.00    -0.028 A 
HETATM   11  C   UNL     1      41.219 -14.917  -0.704  1.00  0.00     0.012 A 
HETATM   12  C   UNL     1      40.981 -15.471  -1.965  1.00  0.00     0.037 A 
HETATM   13  C   UNL     1      40.273 -14.758  -2.933  1.00  0.00     0.068 A 
HETATM   14  C   UNL     1      39.817 -13.475  -2.635  1.00  0.00     0.037 A 
HETATM   15  C   UNL     1      40.056 -12.918  -1.372  1.00  0.00     0.012 A 
BRANCH  13  16
HETATM   16  O   UNL     1      40.101 -15.419  -4.119  1.00  0.00    -0.356 OA
HETATM   17  C   UNL     1      38.892 -16.151  -4.271  1.00  0.00     0.210 C 
ENDBRANCH  13  16
ENDBRANCH   7  10
ENDBRANCH   5   7
ENDBRANCH   1   5
BRANCH   2  18
HETATM   18  C   UNL     1      42.122 -16.930   3.487  1.00  0.00     0.126 A 
HETATM   19  N   UNL     1      42.464 -18.134   2.946  1.00  0.00    -0.224 NA
HETATM   20  C   UNL     1      43.426 -18.842   3.602  1.00  0.00     0.151 A 
HETATM   21  C   UNL     1      44.046 -18.382   4.765  1.00  0.00     0.052 A 
HETATM   22  C   UNL     1      43.670 -17.145   5.286  1.00  0.00     0.006 A 
HETATM   23  C   UNL     1      42.690 -16.402   4.639  1.00  0.00     0.037 A 
BRANCH  20  24
HETATM   24  N   UNL     1      43.809 -20.113   3.075  1.00  0.00    -0.227 N 
HETATM   25  N   UNL     1      44.560 -21.003   3.781  1.00  0.00    -0.179 NA
HETATM   26  C   UNL     1      44.692 -22.049   2.962  1.00  0.00     0.141 A 
HETATM   27  C   UNL     1      44.043 -21.860   1.733  1.00  0.00     0.040 A 
HETATM   28  C   UNL     1      43.484 -20.609   1.828  1.00  0.00     0.122 A 
ENDBRANCH  20  24
ENDBRANCH   2  18
TORSDOF 7
ENDMDL
MODEL 5
REMARK VINA RESULT:      -7.5      6.065      9.220
REMARK  7 active torsions:
REMARK  status: ('A' for Active; 'I' for Inactive)
REMARK    1  A    between atoms: C_2  and  N_3 
REMARK    2  A    between atoms: C_2  and  C_17 
REMARK       I    between atoms: N_3  and  C_4 
REMARK    3  A    between atoms: C_4  and  C_5 
REMARK    4  A    between atoms: C_7  and  N_8 
REMARK    5  A    between atoms: C_17  and  O_18 
REMARK    6  A    between atoms: C_17  and  C_19 
REMARK    7  A    between atoms: C_22  and  O_23 
ROOT
HETATM    1  N   UNL     1      41.371 -14.713   1.167  1.00  0.00    -0.349 N 
HETATM    2  C   UNL     1      40.485 -15.425   1.941  1.00  0.00     0.270 C 
HETATM    3  O   UNL     1      39.270 -15.404   1.771  1.00  0.00    -0.266 OA
HETATM    4  H   UNL     1      42.350 -14.814   1.420  1.00  0.00     0.163 HD
ENDROOT
BRANCH   1   5
HETATM    5  C   UNL     1      41.031 -13.941  -0.032  1.00  0.00     0.114 C 
HETATM    6  C   UNL     1      41.771 -12.600  -0.034  1.00  0.00     0.035 C 
BRANCH   5   7
HETATM    7  C   UNL     1      41.212 -14.690  -1.390  1.00  0.00     0.173 C 
BRANCH   7   8
HETATM    8  O   UNL     1      41.787 -15.991  -1.264  1.00  0.00    -0.389 OA
HETATM    9  H   UNL     1      41.081 -16.591  -0.945  1.00  0.00     0.210 HD
ENDBRANCH   7   8
BRANCH   7  10
HETATM   10  C   UNL     1      39.945 -14.742  -2.225  1.00  0.00    -0.028 A 
HETATM   11  C   UNL     1      39.894 -15.557  -3.365  1.00  0.00     0.012 A 
HETATM   12  C   UNL     1      38.735 -15.619  -4.143  1.00  0.00     0.037 A 
HETATM   13  C   UNL     1      37.607 -14.874  -3.801  1.00  0.00     0.068 A 
HETATM   14  C   UNL     1      37.653 -14.048  -2.679  1.00  0.00     0.037 A 
HETATM   15  C   UNL     1      38.813 -13.983  -1.898  1.00  0.00     0.012 A 
BRANCH  13  16
HETATM   16  O   UNL     1      36.538 -15.035  -4.641  1.00  0.00    -0.356 OA
HETATM   17  C   UNL     1      35.826 -13.858  -4.998  1.00  0.00     0.210 C 
ENDBRANCH  13  16
ENDBRANCH   7  10
ENDBRANCH   5   7
ENDBRANCH   1   5
BRANCH   2  18
HETATM   18  C   UNL     1      41.117 -16.248   3.023  1.00  0.00     0.126 A 
HETATM   19  N   UNL     1      41.877 -17.302   2.611  1.00  0.00    -0.224 NA
HETATM   20  C   UNL     1      42.430 -18.071   3.590  1.00  0.00     0.151 A 
HETATM   21  C   UNL     1      42.246 -17.815   4.950  1.00  0.00     0.052 A 
HETATM   22  C   UNL     1      41.463 -16.727   5.331  1.00  0.00     0.006 A 
HETATM   23  C   UNL     1      40.884 -15.926   4.354  1.00  0.00     0.037 A 
BRANCH  20  24
HETATM   24  N   UNL     1      43.227 -19.191   3.202  1.00  0.00    -0.227 N 
HETATM   25  N   UNL     1      43.022 -19.867   2.038  1.00  0.00    -0.179 NA
HETATM   26  C   UNL     1      43.956 -20.820   2.039  1.00  0.00     0.141 A 
HETATM   27  C   UNL     1      44.768 -20.782   3.182  1.00  0.00     0.040 A 
HETATM   28  C   UNL     1      44.280 -19.728   3.915  1.00  0.00     0.122 A 
ENDBRANCH  20  24
ENDBRANCH   2  18
TORSDOF 7
ENDMDL
MODEL 6
REMARK VINA RESULT:      -7.4      6.396      8.697
REMARK  7 active torsions:
REMARK  status: ('A' for Active; 'I' for Inactive)
REMARK    1  A    between atoms: C_2  and  N_3 
REMARK    2  A    between atoms: C_2  and  C_17 
REMARK       I    between atoms: N_3  and  C_4 
REMARK    3  A    between atoms: C_4  and  C_5 
REMARK    4  A    between atoms: C_7  and  N_8 
REMARK    5  A    between atoms: C_17  and  O_18 
REMARK    6  A    between atoms: C_17  and  C_19 
REMARK    7  A    between atoms: C_22  and  O_23 
ROOT
HETATM    1  N   UNL     1      42.036 -16.033   0.128  1.00  0.00    -0.349 N 
HETATM    2  C   UNL     1      41.454 -14.788   0.170  1.00  0.00     0.270 C 
HETATM    3  O   UNL     1      40.825 -14.367   1.136  1.00  0.00    -0.266 OA
HETATM    4  H   UNL     1      42.522 -16.258  -0.735  1.00  0.00     0.163 HD
ENDROOT
BRANCH   1   5
HETATM    5  C   UNL     1      42.110 -16.980   1.245  1.00  0.00     0.114 C 
HETATM    6  C   UNL     1      40.916 -17.940   1.212  1.00  0.00     0.035 C 
BRANCH   5   7
HETATM    7  C   UNL     1      43.457 -17.757   1.382  1.00  0.00     0.173 C 
BRANCH   7   8
HETATM    8  O   UNL     1      44.603 -17.007   0.978  1.00  0.00    -0.389 OA
HETATM    9  H   UNL     1      45.244 -17.033   1.719  1.00  0.00     0.210 HD
ENDBRANCH   7   8
BRANCH   7  10
HETATM   10  C   UNL     1      43.669 -18.359   2.759  1.00  0.00    -0.028 A 
HETATM   11  C   UNL     1      43.432 -17.585   3.904  1.00  0.00     0.012 A 
HETATM   12  C   UNL     1      43.620 -18.124   5.179  1.00  0.00     0.037 A 
HETATM   13  C   UNL     1      44.045 -19.443   5.339  1.00  0.00     0.068 A 
HETATM   14  C   UNL     1      44.299 -20.217   4.207  1.00  0.00     0.037 A 
HETATM   15  C   UNL     1      44.112 -19.678   2.928  1.00  0.00     0.012 A 
BRANCH  13  16
HETATM   16  O   UNL     1      44.178 -19.848   6.639  1.00  0.00    -0.356 OA
HETATM   17  C   UNL     1      43.764 -21.175   6.938  1.00  0.00     0.210 C 
ENDBRANCH  13  16
ENDBRANCH   7  10
ENDBRANCH   5   7
ENDBRANCH   1   5
BRANCH   2  18
HETATM   18  C   UNL     1      41.650 -13.961  -1.065  1.00  0.00     0.126 A 
HETATM   19  N   UNL     1      42.171 -12.715  -0.878  1.00  0.00    -0.224 NA
HETATM   20  C   UNL     1      42.325 -11.948  -1.994  1.00  0.00     0.151 A 
HETATM   21  C   UNL     1      41.977 -12.391  -3.272  1.00  0.00     0.052 A 
HETATM   22  C   UNL     1      41.448 -13.671  -3.422  1.00  0.00     0.006 A 
HETATM   23  C   UNL     1      41.278 -14.475  -2.300  1.00  0.00     0.037 A 
BRANCH  20  24
HETATM   24  N   UNL     1      42.859 -10.632  -1.843  1.00  0.00    -0.227 N 
HETATM   25  N   UNL     1      43.812 -10.332  -0.918  1.00  0.00    -0.179 NA
HETATM   26  C   UNL     1      44.047  -9.030  -1.096  1.00  0.00     0.141 A 
HETATM   27  C   UNL     1      43.265  -8.472  -2.119  1.00  0.00     0.040 A 
HETATM   28  C   UNL     1      42.509  -9.521  -2.583  1.00  0.00     0.122 A 
ENDBRANCH  20  24
ENDBRANCH   2  18
TORSDOF 7
ENDMDL
MODEL 7
REMARK VINA RESULT:      -7.4      2.314      3.042
REMARK  7 active torsions:
REMARK  status: ('A' for Active; 'I' for Inactive)
REMARK    1  A    between atoms: C_2  and  N_3 
REMARK    2  A    between atoms: C_2  and  C_17 
REMARK       I    between atoms: N_3  and  C_4 
REMARK    3  A    between atoms: C_4  and  C_5 
REMARK    4  A    between atoms: C_7  and  N_8 
REMARK    5  A    between atoms: C_17  and  O_18 
REMARK    6  A    between atoms: C_17  and  C_19 
REMARK    7  A    between atoms: C_22  and  O_23 
ROOT
HETATM    1  N   UNL     1      43.957 -14.366   7.431  1.00  0.00    -0.349 N 
HETATM    2  C   UNL     1      45.001 -13.472   7.438  1.00  0.00     0.270 C 
HETATM    3  O   UNL     1      45.884 -13.458   6.588  1.00  0.00    -0.266 OA
HETATM    4  H   UNL     1      43.296 -14.273   8.199  1.00  0.00     0.163 HD
ENDROOT
BRANCH   1   5
HETATM    5  C   UNL     1      43.665 -15.333   6.367  1.00  0.00     0.114 C 
HETATM    6  C   UNL     1      44.277 -16.697   6.701  1.00  0.00     0.035 C 
BRANCH   5   7
HETATM    7  C   UNL     1      42.161 -15.467   5.972  1.00  0.00     0.173 C 
BRANCH   7   8
HETATM    8  O   UNL     1      41.343 -14.386   6.421  1.00  0.00    -0.389 OA
HETATM    9  H   UNL     1      41.082 -14.582   7.345  1.00  0.00     0.210 HD
ENDBRANCH   7   8
BRANCH   7  10
HETATM   10  C   UNL     1      41.946 -15.725   4.492  1.00  0.00    -0.028 A 
HETATM   11  C   UNL     1      41.566 -17.001   4.054  1.00  0.00     0.012 A 
HETATM   12  C   UNL     1      41.361 -17.255   2.695  1.00  0.00     0.037 A 
HETATM   13  C   UNL     1      41.529 -16.244   1.749  1.00  0.00     0.068 A 
HETATM   14  C   UNL     1      41.922 -14.975   2.172  1.00  0.00     0.037 A 
HETATM   15  C   UNL     1      42.129 -14.719   3.533  1.00  0.00     0.012 A 
BRANCH  13  16
HETATM   16  O   UNL     1      41.287 -16.624   0.457  1.00  0.00    -0.356 OA
HETATM   17  C   UNL     1      41.241 -15.586  -0.514  1.00  0.00     0.210 C 
ENDBRANCH  13  16
ENDBRANCH   7  10
ENDBRANCH   5   7
ENDBRANCH   1   5
BRANCH   2  18
HETATM   18  C   UNL     1      44.982 -12.494   8.574  1.00  0.00     0.126 A 
HETATM   19  N   UNL     1      43.813 -12.399   9.268  1.00  0.00    -0.224 NA
HETATM   20  C   UNL     1      43.780 -11.491  10.283  1.00  0.00     0.151 A 
HETATM   21  C   UNL     1      44.873 -10.689  10.617  1.00  0.00     0.052 A 
HETATM   22  C   UNL     1      46.052 -10.816   9.885  1.00  0.00     0.006 A 
HETATM   23  C   UNL     1      46.113 -11.733   8.843  1.00  0.00     0.037 A 
BRANCH  20  24
HETATM   24  N   UNL     1      42.571 -11.353  11.030  1.00  0.00    -0.227 N 
HETATM   25  N   UNL     1      41.377 -11.062  10.443  1.00  0.00    -0.179 NA
HETATM   26  C   UNL     1      40.510 -11.027  11.456  1.00  0.00     0.141 A 
HETATM   27  C   UNL     1      41.113 -11.288  12.696  1.00  0.00     0.040 A 
HETATM   28  C   UNL     1      42.438 -11.493  12.397  1.00  0.00     0.122 A 
ENDBRANCH  20  24
ENDBRANCH   2  18
TORSDOF 7
ENDMDL
MODEL 8
REMARK VINA RESULT:      -7.4      3.899      6.990
REMARK  7 active torsions:
REMARK  status: ('A' for Active; 'I' for Inactive)
REMARK    1  A    between atoms: C_2  and  N_3 
REMARK    2  A    between atoms: C_2  and  C_17 
REMARK       I    between atoms: N_3  and  C_4 
REMARK    3  A    between atoms: C_4  and  C_5 
REMARK    4  A    between atoms: C_7  and  N_8 
REMARK    5  A    between atoms: C_17  and  O_18 
REMARK    6  A    between atoms: C_17  and  C_19 
REMARK    7  A    between atoms: C_22  and  O_23 
ROOT
HETATM    1  N   UNL     1      41.167 -16.239   2.186  1.00  0.00    -0.349 N 
HETATM    2  C   UNL     1      42.095 -17.019   1.538  1.00  0.00     0.270 C 
HETATM    3  O   UNL     1      42.324 -16.939   0.335  1.00  0.00    -0.266 OA
HETATM    4  H   UNL     1      41.073 -16.411   3.184  1.00  0.00     0.163 HD
ENDROOT
BRANCH   1   5
HETATM    5  C   UNL     1      40.416 -15.129   1.591  1.00  0.00     0.114 C 
HETATM    6  C   UNL     1      38.917 -15.289   1.865  1.00  0.00     0.035 C 
BRANCH   5   7
HETATM    7  C   UNL     1      40.913 -13.699   1.969  1.00  0.00     0.173 C 
BRANCH   7   8
HETATM    8  O   UNL     1      39.881 -12.713   1.994  1.00  0.00    -0.389 OA
HETATM    9  H   UNL     1      40.154 -12.021   2.633  1.00  0.00     0.210 HD
ENDBRANCH   7   8
BRANCH   7  10
HETATM   10  C   UNL     1      41.722 -13.660   3.253  1.00  0.00    -0.028 A 
HETATM   11  C   UNL     1      41.079 -13.426   4.477  1.00  0.00     0.012 A 
HETATM   12  C   UNL     1      41.808 -13.390   5.668  1.00  0.00     0.037 A 
HETATM   13  C   UNL     1      43.189 -13.587   5.664  1.00  0.00     0.068 A 
HETATM   14  C   UNL     1      43.841 -13.805   4.451  1.00  0.00     0.037 A 
HETATM   15  C   UNL     1      43.112 -13.841   3.256  1.00  0.00     0.012 A 
BRANCH  13  16
HETATM   16  O   UNL     1      43.777 -13.538   6.898  1.00  0.00    -0.356 OA
HETATM   17  C   UNL     1      45.133 -13.958   6.975  1.00  0.00     0.210 C 
ENDBRANCH  13  16
ENDBRANCH   7  10
ENDBRANCH   5   7
ENDBRANCH   1   5
BRANCH   2  18
HETATM   18  C   UNL     1      42.828 -17.987   2.418  1.00  0.00     0.126 A 
HETATM   19  N   UNL     1      42.833 -17.702   3.751  1.00  0.00    -0.224 NA
HETATM   20  C   UNL     1      43.522 -18.562   4.552  1.00  0.00     0.151 A 
HETATM   21  C   UNL     1      44.193 -19.684   4.061  1.00  0.00     0.052 A 
HETATM   22  C   UNL     1      44.163 -19.941   2.692  1.00  0.00     0.006 A 
HETATM   23  C   UNL     1      43.470 -19.080   1.850  1.00  0.00     0.037 A 
BRANCH  20  24
HETATM   24  N   UNL     1      43.561 -18.297   5.955  1.00  0.00    -0.227 N 
HETATM   25  N   UNL     1      44.157 -19.139   6.843  1.00  0.00    -0.179 NA
HETATM   26  C   UNL     1      43.990 -18.545   8.027  1.00  0.00     0.141 A 
HETATM   27  C   UNL     1      43.295 -17.330   7.930  1.00  0.00     0.040 A 
HETATM   28  C   UNL     1      43.029 -17.192   6.590  1.00  0.00     0.122 A 
ENDBRANCH  20  24
ENDBRANCH   2  18
TORSDOF 7
ENDMDL
MODEL 9
REMARK VINA RESULT:      -7.2      5.277      8.336
REMARK  7 active torsions:
REMARK  status: ('A' for Active; 'I' for Inactive)
REMARK    1  A    between atoms: C_2  and  N_3 
REMARK    2  A    between atoms: C_2  and  C_17 
REMARK       I    between atoms: N_3  and  C_4 
REMARK    3  A    between atoms: C_4  and  C_5 
REMARK    4  A    between atoms: C_7  and  N_8 
REMARK    5  A    between atoms: C_17  and  O_18 
REMARK    6  A    between atoms: C_17  and  C_19 
REMARK    7  A    between atoms: C_22  and  O_23 
ROOT
HETATM    1  N   UNL     1      40.704 -15.831   3.515  1.00  0.00    -0.349 N 
HETATM    2  C   UNL     1      40.401 -14.521   3.230  1.00  0.00     0.270 C 
HETATM    3  O   UNL     1      40.639 -13.590   3.994  1.00  0.00    -0.266 OA
HETATM    4  H   UNL     1      40.448 -16.504   2.798  1.00  0.00     0.163 HD
ENDROOT
BRANCH   1   5
HETATM    5  C   UNL     1      41.456 -16.301   4.683  1.00  0.00     0.114 C 
HETATM    6  C   UNL     1      40.901 -17.642   5.174  1.00  0.00     0.035 C 
BRANCH   5   7
HETATM    7  C   UNL     1      43.007 -16.359   4.509  1.00  0.00     0.173 C 
BRANCH   7   8
HETATM    8  O   UNL     1      43.736 -15.896   5.646  1.00  0.00    -0.389 OA
HETATM    9  H   UNL     1      43.989 -14.965   5.470  1.00  0.00     0.210 HD
ENDBRANCH   7   8
BRANCH   7  10
HETATM   10  C   UNL     1      43.514 -17.718   4.062  1.00  0.00    -0.028 A 
HETATM   11  C   UNL     1      43.276 -18.155   2.752  1.00  0.00     0.012 A 
HETATM   12  C   UNL     1      43.738 -19.402   2.323  1.00  0.00     0.037 A 
HETATM   13  C   UNL     1      44.445 -20.236   3.189  1.00  0.00     0.068 A 
HETATM   14  C   UNL     1      44.673 -19.818   4.499  1.00  0.00     0.037 A 
HETATM   15  C   UNL     1      44.210 -18.568   4.931  1.00  0.00     0.012 A 
BRANCH  13  16
HETATM   16  O   UNL     1      44.848 -21.422   2.640  1.00  0.00    -0.356 OA
HETATM   17  C   UNL     1      44.077 -21.917   1.554  1.00  0.00     0.210 C 
ENDBRANCH  13  16
ENDBRANCH   7  10
ENDBRANCH   5   7
ENDBRANCH   1   5
BRANCH   2  18
HETATM   18  C   UNL     1      39.755 -14.301   1.896  1.00  0.00     0.126 A 
HETATM   19  N   UNL     1      40.598 -14.087   0.847  1.00  0.00    -0.224 NA
HETATM   20  C   UNL     1      40.016 -13.858  -0.364  1.00  0.00     0.151 A 
HETATM   21  C   UNL     1      38.632 -13.841  -0.548  1.00  0.00     0.052 A 
HETATM   22  C   UNL     1      37.803 -14.066   0.550  1.00  0.00     0.006 A 
HETATM   23  C   UNL     1      38.369 -14.300   1.797  1.00  0.00     0.037 A 
BRANCH  20  24
HETATM   24  N   UNL     1      40.863 -13.620  -1.489  1.00  0.00    -0.227 N 
HETATM   25  N   UNL     1      42.080 -13.020  -1.374  1.00  0.00    -0.179 NA
HETATM   26  C   UNL     1      42.552 -12.989  -2.622  1.00  0.00     0.141 A 
HETATM   27  C   UNL     1      41.667 -13.556  -3.552  1.00  0.00     0.040 A 
HETATM   28  C   UNL     1      40.588 -13.954  -2.800  1.00  0.00     0.122 A 
ENDBRANCH  20  24
ENDBRANCH   2  18
TORSDOF 7
ENDMDL
MODEL 10
REMARK VINA RESULT:      -7.2      1.885      2.392
REMARK  7 active torsions:
REMARK  status: ('A' for Active; 'I' for Inactive)
REMARK    1  A    between atoms: C_2  and  N_3 
REMARK    2  A    between atoms: C_2  and  C_17 
REMARK       I    between atoms: N_3  and  C_4 
REMARK    3  A    between atoms: C_4  and  C_5 
REMARK    4  A    between atoms: C_7  and  N_8 
REMARK    5  A    between atoms: C_17  and  O_18 
REMARK    6  A    between atoms: C_17  and  C_19 
REMARK    7  A    between atoms: C_22  and  O_23 
ROOT
HETATM    1  N   UNL     1      44.083 -14.730   7.792  1.00  0.00    -0.349 N 
HETATM    2  C   UNL     1      44.942 -13.678   7.579  1.00  0.00     0.270 C 
HETATM    3  O   UNL     1      45.780 -13.660   6.684  1.00  0.00    -0.266 OA
HETATM    4  H   UNL     1      43.441 -14.619   8.573  1.00  0.00     0.163 HD
ENDROOT
BRANCH   1   5
HETATM    5  C   UNL     1      43.943 -15.908   6.930  1.00  0.00     0.114 C 
HETATM    6  C   UNL     1      43.414 -17.100   7.734  1.00  0.00     0.035 C 
BRANCH   5   7
HETATM    7  C   UNL     1      43.116 -15.694   5.623  1.00  0.00     0.173 C 
BRANCH   7   8
HETATM    8  O   UNL     1      43.318 -14.420   5.011  1.00  0.00    -0.389 OA
HETATM    9  H   UNL     1      43.324 -13.751   5.727  1.00  0.00     0.210 HD
ENDBRANCH   7   8
BRANCH   7  10
HETATM   10  C   UNL     1      43.288 -16.811   4.610  1.00  0.00    -0.028 A 
HETATM   11  C   UNL     1      43.240 -16.521   3.239  1.00  0.00     0.012 A 
HETATM   12  C   UNL     1      43.399 -17.537   2.291  1.00  0.00     0.037 A 
HETATM   13  C   UNL     1      43.610 -18.856   2.691  1.00  0.00     0.068 A 
HETATM   14  C   UNL     1      43.643 -19.157   4.052  1.00  0.00     0.037 A 
HETATM   15  C   UNL     1      43.483 -18.141   5.003  1.00  0.00     0.012 A 
BRANCH  13  16
HETATM   16  O   UNL     1      43.760 -19.748   1.665  1.00  0.00    -0.356 OA
HETATM   17  C   UNL     1      43.931 -21.113   2.026  1.00  0.00     0.210 C 
ENDBRANCH  13  16
ENDBRANCH   7  10
ENDBRANCH   5   7
ENDBRANCH   1   5
BRANCH   2  18
HETATM   18  C   UNL     1      44.777 -12.530   8.530  1.00  0.00     0.126 A 
HETATM   19  N   UNL     1      43.508 -12.058   8.688  1.00  0.00    -0.224 NA
HETATM   20  C   UNL     1      43.357 -10.996   9.528  1.00  0.00     0.151 A 
HETATM   21  C   UNL     1      44.426 -10.406  10.205  1.00  0.00     0.052 A 
HETATM   22  C   UNL     1      45.708 -10.919  10.018  1.00  0.00     0.006 A 
HETATM   23  C   UNL     1      45.893 -12.000   9.165  1.00  0.00     0.037 A 
BRANCH  20  24
HETATM   24  N   UNL     1      42.045 -10.464   9.716  1.00  0.00    -0.227 N 
HETATM   25  N   UNL     1      41.228 -10.870  10.727  1.00  0.00    -0.179 NA
HETATM   26  C   UNL     1      40.118 -10.146  10.568  1.00  0.00     0.141 A 
HETATM   27  C   UNL     1      40.192  -9.274   9.471  1.00  0.00     0.040 A 
HETATM   28  C   UNL     1      41.439  -9.497   8.939  1.00  0.00     0.122 A 
ENDBRANCH  20  24
ENDBRANCH   2  18
TORSDOF 7
ENDMDL
