MODEL 1
REMARK VINA RESULT:      -9.1      0.000      0.000
REMARK  6 active torsions:
REMARK  status: ('A' for Active; 'I' for Inactive)
REMARK    1  A    between atoms: O_2  and  C_3 
REMARK    2  A    between atoms: C_6  and  C_7 
REMARK    3  A    between atoms: C_11  and  C_12 
REMARK       I    between atoms: C_12  and  N_13 
REMARK    4  A    between atoms: N_13  and  N_14 
REMARK       I    between atoms: N_14  and  C_15 
REMARK    5  A    between atoms: C_15  and  C_16 
REMARK    6  A    between atoms: C_17  and  C_18 
ROOT
HETATM    1  C   UNL     1      44.849 -13.982   7.374  1.00  0.00     0.288 C 
HETATM    2  N   UNL     1      44.178 -13.593   8.515  1.00  0.00    -0.262 N 
HETATM    3  O   UNL     1      45.814 -13.358   6.937  1.00  0.00    -0.264 OA
HETATM    4  H   UNL     1      43.300 -14.009   8.814  1.00  0.00     0.190 HD
ENDROOT
BRANCH   1   5
HETATM    5  C   UNL     1      44.344 -15.172   6.745  1.00  0.00     0.121 A 
HETATM    6  N   UNL     1      43.006 -15.386   6.572  1.00  0.00    -0.272 N 
HETATM    7  N   UNL     1      42.710 -16.521   5.920  1.00  0.00    -0.174 NA
HETATM    8  H   UNL     1      42.248 -14.777   6.866  1.00  0.00     0.189 HD
HETATM    9  C   UNL     1      43.900 -17.090   5.673  1.00  0.00     0.089 A 
HETATM   10  C   UNL     1      44.950 -16.279   6.186  1.00  0.00     0.071 A 
BRANCH   9  11
HETATM   11  C   UNL     1      44.020 -18.352   4.937  1.00  0.00    -0.005 A 
HETATM   12  C   UNL     1      43.576 -18.446   3.611  1.00  0.00     0.016 A 
HETATM   13  C   UNL     1      43.733 -19.630   2.879  1.00  0.00     0.037 A 
HETATM   14  C   UNL     1      44.337 -20.741   3.466  1.00  0.00     0.068 A 
HETATM   15  C   UNL     1      44.755 -20.664   4.796  1.00  0.00     0.037 A 
HETATM   16  C   UNL     1      44.603 -19.480   5.527  1.00  0.00     0.016 A 
BRANCH  14  17
HETATM   17  O   UNL     1      44.564 -21.946   2.863  1.00  0.00    -0.356 OA
HETATM   18  C   UNL     1      44.190 -22.055   1.495  1.00  0.00     0.210 C 
ENDBRANCH  14  17
ENDBRANCH   9  11
ENDBRANCH   1   5
BRANCH   2  19
HETATM   19  N   UNL     1      44.533 -12.397   9.142  1.00  0.00    -0.267 N 
HETATM   20  C   UNL     1      44.618 -12.382  10.515  1.00  0.00     0.240 C 
HETATM   21  O   UNL     1      44.414 -13.369  11.217  1.00  0.00    -0.271 OA
HETATM   22  H   UNL     1      44.692 -11.583   8.552  1.00  0.00     0.190 HD
BRANCH  20  23
HETATM   23  C   UNL     1      44.977 -11.059  11.091  1.00  0.00     0.089 A 
HETATM   24  C   UNL     1      43.940 -10.161  11.744  1.00  0.00     0.036 A 
HETATM   25  C   UNL     1      44.535  -9.790  10.407  1.00  0.00     0.025 A 
BRANCH  24  26
HETATM   26  C   UNL     1      42.492 -10.578  11.861  1.00  0.00    -0.015 A 
HETATM   27  C   UNL     1      41.921 -10.890  13.106  1.00  0.00     0.123 A 
HETATM   28  F   UNL     1      42.685 -10.834  14.209  1.00  0.00    -0.206 F 
HETATM   29  C   UNL     1      40.582 -11.252  13.243  1.00  0.00     0.043 A 
HETATM   30  C   UNL     1      39.764 -11.304  12.118  1.00  0.00     0.003 A 
HETATM   31  C   UNL     1      40.293 -10.990  10.868  1.00  0.00     0.001 A 
HETATM   32  C   UNL     1      41.639 -10.626  10.745  1.00  0.00     0.011 A 
ENDBRANCH  24  26
ENDBRANCH  20  23
ENDBRANCH   2  19
TORSDOF 6
ENDMDL
MODEL 2
REMARK VINA RESULT:      -9.0      3.342     10.428
REMARK  6 active torsions:
REMARK  status: ('A' for Active; 'I' for Inactive)
REMARK    1  A    between atoms: O_2  and  C_3 
REMARK    2  A    between atoms: C_6  and  C_7 
REMARK    3  A    between atoms: C_11  and  C_12 
REMARK       I    between atoms: C_12  and  N_13 
REMARK    4  A    between atoms: N_13  and  N_14 
REMARK       I    between atoms: N_14  and  C_15 
REMARK    5  A    between atoms: C_15  and  C_16 
REMARK    6  A    between atoms: C_17  and  C_18 
ROOT
HETATM    1  C   UNL     1      44.795 -13.356   8.019  1.00  0.00     0.288 C 
HETATM    2  N   UNL     1      44.085 -14.502   7.725  1.00  0.00    -0.262 N 
HETATM    3  O   UNL     1      45.902 -13.130   7.535  1.00  0.00    -0.264 OA
HETATM    4  H   UNL     1      43.238 -14.773   8.218  1.00  0.00     0.190 HD
ENDROOT
BRANCH   1   5
HETATM    5  C   UNL     1      44.141 -12.447   8.919  1.00  0.00     0.121 A 
HETATM    6  N   UNL     1      43.231 -11.526   8.483  1.00  0.00    -0.272 N 
HETATM    7  N   UNL     1      42.677 -10.793   9.461  1.00  0.00    -0.174 NA
HETATM    8  H   UNL     1      42.936 -11.368   7.524  1.00  0.00     0.189 HD
HETATM    9  C   UNL     1      43.263 -11.232  10.587  1.00  0.00     0.089 A 
HETATM   10  C   UNL     1      44.196 -12.263  10.286  1.00  0.00     0.071 A 
BRANCH   9  11
HETATM   11  C   UNL     1      42.907 -10.701  11.905  1.00  0.00    -0.005 A 
HETATM   12  C   UNL     1      41.761 -11.160  12.570  1.00  0.00     0.016 A 
HETATM   13  C   UNL     1      41.439 -10.700  13.854  1.00  0.00     0.037 A 
HETATM   14  C   UNL     1      42.259  -9.771  14.491  1.00  0.00     0.068 A 
HETATM   15  C   UNL     1      43.386  -9.287  13.822  1.00  0.00     0.037 A 
HETATM   16  C   UNL     1      43.712  -9.749  12.542  1.00  0.00     0.016 A 
BRANCH  14  17
HETATM   17  O   UNL     1      42.069  -9.254  15.741  1.00  0.00    -0.356 OA
HETATM   18  C   UNL     1      41.592  -7.916  15.813  1.00  0.00     0.210 C 
ENDBRANCH  14  17
ENDBRANCH   9  11
ENDBRANCH   1   5
BRANCH   2  19
HETATM   19  N   UNL     1      44.677 -15.491   6.937  1.00  0.00    -0.267 N 
HETATM   20  C   UNL     1      44.264 -16.792   7.106  1.00  0.00     0.240 C 
HETATM   21  O   UNL     1      43.390 -17.127   7.901  1.00  0.00    -0.271 OA
HETATM   22  H   UNL     1      45.406 -15.203   6.287  1.00  0.00     0.190 HD
BRANCH  20  23
HETATM   23  C   UNL     1      44.969 -17.774   6.241  1.00  0.00     0.089 A 
HETATM   24  C   UNL     1      44.419 -18.193   4.888  1.00  0.00     0.036 A 
HETATM   25  C   UNL     1      44.403 -19.158   6.048  1.00  0.00     0.025 A 
BRANCH  24  26
HETATM   26  C   UNL     1      43.134 -17.613   4.342  1.00  0.00    -0.015 A 
HETATM   27  C   UNL     1      43.134 -16.764   3.224  1.00  0.00     0.123 A 
HETATM   28  F   UNL     1      44.302 -16.447   2.642  1.00  0.00    -0.206 F 
HETATM   29  C   UNL     1      41.960 -16.237   2.686  1.00  0.00     0.043 A 
HETATM   30  C   UNL     1      40.735 -16.560   3.260  1.00  0.00     0.003 A 
HETATM   31  C   UNL     1      40.694 -17.410   4.364  1.00  0.00     0.001 A 
HETATM   32  C   UNL     1      41.880 -17.932   4.893  1.00  0.00     0.011 A 
ENDBRANCH  24  26
ENDBRANCH  20  23
ENDBRANCH   2  19
TORSDOF 6
ENDMDL
MODEL 3
REMARK VINA RESULT:      -8.6      2.127      2.784
REMARK  6 active torsions:
REMARK  status: ('A' for Active; 'I' for Inactive)
REMARK    1  A    between atoms: O_2  and  C_3 
REMARK    2  A    between atoms: C_6  and  C_7 
REMARK    3  A    between atoms: C_11  and  C_12 
REMARK       I    between atoms: C_12  and  N_13 
REMARK    4  A    between atoms: N_13  and  N_14 
REMARK       I    between atoms: N_14  and  C_15 
REMARK    5  A    between atoms: C_15  and  C_16 
REMARK    6  A    between atoms: C_17  and  C_18 
ROOT
HETATM    1  C   UNL     1      42.057 -13.285   5.807  1.00  0.00     0.288 C 
HETATM    2  N   UNL     1      42.346 -12.544   6.934  1.00  0.00    -0.262 N 
HETATM    3  O   UNL     1      41.305 -12.873   4.926  1.00  0.00    -0.264 OA
HETATM    4  H   UNL     1      42.849 -12.920   7.733  1.00  0.00     0.190 HD
ENDROOT
BRANCH   1   5
HETATM    5  C   UNL     1      42.708 -14.565   5.735  1.00  0.00     0.121 A 
HETATM    6  N   UNL     1      43.371 -15.100   6.803  1.00  0.00    -0.272 N 
HETATM    7  N   UNL     1      43.874 -16.324   6.581  1.00  0.00    -0.174 NA
HETATM    8  H   UNL     1      43.495 -14.677   7.717  1.00  0.00     0.189 HD
HETATM    9  C   UNL     1      43.549 -16.599   5.308  1.00  0.00     0.089 A 
HETATM   10  C   UNL     1      42.826 -15.514   4.739  1.00  0.00     0.071 A 
BRANCH   9  11
HETATM   11  C   UNL     1      43.893 -17.876   4.677  1.00  0.00    -0.005 A 
HETATM   12  C   UNL     1      44.599 -18.854   5.392  1.00  0.00     0.016 A 
HETATM   13  C   UNL     1      44.887 -20.100   4.819  1.00  0.00     0.037 A 
HETATM   14  C   UNL     1      44.474 -20.384   3.518  1.00  0.00     0.068 A 
HETATM   15  C   UNL     1      43.796 -19.404   2.790  1.00  0.00     0.037 A 
HETATM   16  C   UNL     1      43.503 -18.161   3.363  1.00  0.00     0.016 A 
BRANCH  14  17
HETATM   17  O   UNL     1      44.675 -21.558   2.848  1.00  0.00    -0.356 OA
HETATM   18  C   UNL     1      43.920 -21.751   1.659  1.00  0.00     0.210 C 
ENDBRANCH  14  17
ENDBRANCH   9  11
ENDBRANCH   1   5
BRANCH   2  19
HETATM   19  N   UNL     1      41.687 -11.330   7.140  1.00  0.00    -0.267 N 
HETATM   20  C   UNL     1      42.227 -10.443   8.042  1.00  0.00     0.240 C 
HETATM   21  O   UNL     1      43.265 -10.655   8.663  1.00  0.00    -0.271 OA
HETATM   22  H   UNL     1      40.824 -11.168   6.627  1.00  0.00     0.190 HD
BRANCH  20  23
HETATM   23  C   UNL     1      41.442  -9.191   8.213  1.00  0.00     0.089 A 
HETATM   24  C   UNL     1      40.835  -8.801   9.550  1.00  0.00     0.036 A 
HETATM   25  C   UNL     1      39.950  -9.254   8.414  1.00  0.00     0.025 A 
BRANCH  24  26
HETATM   26  C   UNL     1      41.017  -9.657  10.782  1.00  0.00    -0.015 A 
HETATM   27  C   UNL     1      42.049  -9.405  11.700  1.00  0.00     0.123 A 
HETATM   28  F   UNL     1      42.902  -8.394  11.465  1.00  0.00    -0.206 F 
HETATM   29  C   UNL     1      42.222 -10.163  12.857  1.00  0.00     0.043 A 
HETATM   30  C   UNL     1      41.344 -11.207  13.132  1.00  0.00     0.003 A 
HETATM   31  C   UNL     1      40.301 -11.480  12.251  1.00  0.00     0.001 A 
HETATM   32  C   UNL     1      40.138 -10.710  11.094  1.00  0.00     0.011 A 
ENDBRANCH  24  26
ENDBRANCH  20  23
ENDBRANCH   2  19
TORSDOF 6
ENDMDL
MODEL 4
REMARK VINA RESULT:      -8.5      2.661      3.603
REMARK  6 active torsions:
REMARK  status: ('A' for Active; 'I' for Inactive)
REMARK    1  A    between atoms: O_2  and  C_3 
REMARK    2  A    between atoms: C_6  and  C_7 
REMARK    3  A    between atoms: C_11  and  C_12 
REMARK       I    between atoms: C_12  and  N_13 
REMARK    4  A    between atoms: N_13  and  N_14 
REMARK       I    between atoms: N_14  and  C_15 
REMARK    5  A    between atoms: C_15  and  C_16 
REMARK    6  A    between atoms: C_17  and  C_18 
ROOT
HETATM    1  C   UNL     1      41.499 -13.123   5.405  1.00  0.00     0.288 C 
HETATM    2  N   UNL     1      40.928 -12.911   6.643  1.00  0.00    -0.262 N 
HETATM    3  O   UNL     1      41.871 -12.196   4.688  1.00  0.00    -0.264 OA
HETATM    4  H   UNL     1      40.489 -13.648   7.187  1.00  0.00     0.190 HD
ENDROOT
BRANCH   1   5
HETATM    5  C   UNL     1      41.635 -14.502   5.024  1.00  0.00     0.121 A 
HETATM    6  N   UNL     1      40.552 -15.323   4.883  1.00  0.00    -0.272 N 
HETATM    7  N   UNL     1      40.852 -16.564   4.470  1.00  0.00    -0.174 NA
HETATM    8  H   UNL     1      39.578 -15.080   5.040  1.00  0.00     0.189 HD
HETATM    9  C   UNL     1      42.189 -16.569   4.355  1.00  0.00     0.089 A 
HETATM   10  C   UNL     1      42.718 -15.295   4.705  1.00  0.00     0.071 A 
BRANCH   9  11
HETATM   11  C   UNL     1      42.924 -17.748   3.891  1.00  0.00    -0.005 A 
HETATM   12  C   UNL     1      43.840 -18.393   4.735  1.00  0.00     0.016 A 
HETATM   13  C   UNL     1      44.509 -19.553   4.323  1.00  0.00     0.037 A 
HETATM   14  C   UNL     1      44.273 -20.083   3.055  1.00  0.00     0.068 A 
HETATM   15  C   UNL     1      43.385 -19.430   2.198  1.00  0.00     0.037 A 
HETATM   16  C   UNL     1      42.713 -18.274   2.611  1.00  0.00     0.016 A 
BRANCH  14  17
HETATM   17  O   UNL     1      44.845 -21.211   2.537  1.00  0.00    -0.356 OA
HETATM   18  C   UNL     1      44.074 -21.937   1.587  1.00  0.00     0.210 C 
ENDBRANCH  14  17
ENDBRANCH   9  11
ENDBRANCH   1   5
BRANCH   2  19
HETATM   19  N   UNL     1      40.666 -11.604   7.060  1.00  0.00    -0.267 N 
HETATM   20  C   UNL     1      39.658 -11.403   7.974  1.00  0.00     0.240 C 
HETATM   21  O   UNL     1      38.988 -12.313   8.454  1.00  0.00    -0.271 OA
HETATM   22  H   UNL     1      41.221 -10.857   6.649  1.00  0.00     0.190 HD
BRANCH  20  23
HETATM   23  C   UNL     1      39.437  -9.978   8.337  1.00  0.00     0.089 A 
HETATM   24  C   UNL     1      40.056  -9.362   9.580  1.00  0.00     0.036 A 
HETATM   25  C   UNL     1      38.571  -9.623   9.519  1.00  0.00     0.025 A 
BRANCH  24  26
HETATM   26  C   UNL     1      40.949 -10.162  10.500  1.00  0.00    -0.015 A 
HETATM   27  C   UNL     1      42.285 -10.435  10.166  1.00  0.00     0.123 A 
HETATM   28  F   UNL     1      42.771  -9.991   8.995  1.00  0.00    -0.206 F 
HETATM   29  C   UNL     1      43.135 -11.149  11.009  1.00  0.00     0.043 A 
HETATM   30  C   UNL     1      42.662 -11.609  12.234  1.00  0.00     0.003 A 
HETATM   31  C   UNL     1      41.345 -11.347  12.606  1.00  0.00     0.001 A 
HETATM   32  C   UNL     1      40.503 -10.628  11.750  1.00  0.00     0.011 A 
ENDBRANCH  24  26
ENDBRANCH  20  23
ENDBRANCH   2  19
TORSDOF 6
ENDMDL
MODEL 5
REMARK VINA RESULT:      -8.5      3.417     10.184
REMARK  6 active torsions:
REMARK  status: ('A' for Active; 'I' for Inactive)
REMARK    1  A    between atoms: O_2  and  C_3 
REMARK    2  A    between atoms: C_6  and  C_7 
REMARK    3  A    between atoms: C_11  and  C_12 
REMARK       I    between atoms: C_12  and  N_13 
REMARK    4  A    between atoms: N_13  and  N_14 
REMARK       I    between atoms: N_14  and  C_15 
REMARK    5  A    between atoms: C_15  and  C_16 
REMARK    6  A    between atoms: C_17  and  C_18 
ROOT
HETATM    1  C   UNL     1      45.270 -13.379   7.545  1.00  0.00     0.288 C 
HETATM    2  N   UNL     1      44.417 -14.462   7.586  1.00  0.00    -0.262 N 
HETATM    3  O   UNL     1      46.164 -13.281   6.706  1.00  0.00    -0.264 OA
HETATM    4  H   UNL     1      43.768 -14.631   8.350  1.00  0.00     0.190 HD
ENDROOT
BRANCH   1   5
HETATM    5  C   UNL     1      45.031 -12.375   8.545  1.00  0.00     0.121 A 
HETATM    6  N   UNL     1      45.960 -11.419   8.847  1.00  0.00    -0.272 N 
HETATM    7  N   UNL     1      45.554 -10.528   9.764  1.00  0.00    -0.174 NA
HETATM    8  H   UNL     1      46.884 -11.318   8.439  1.00  0.00     0.189 HD
HETATM    9  C   UNL     1      44.317 -10.926  10.100  1.00  0.00     0.089 A 
HETATM   10  C   UNL     1      43.957 -12.089   9.363  1.00  0.00     0.071 A 
BRANCH   9  11
HETATM   11  C   UNL     1      43.500 -10.189  11.067  1.00  0.00    -0.005 A 
HETATM   12  C   UNL     1      43.875 -10.133  12.417  1.00  0.00     0.016 A 
HETATM   13  C   UNL     1      43.132  -9.387  13.342  1.00  0.00     0.037 A 
HETATM   14  C   UNL     1      42.000  -8.687  12.930  1.00  0.00     0.068 A 
HETATM   15  C   UNL     1      41.604  -8.762  11.592  1.00  0.00     0.037 A 
HETATM   16  C   UNL     1      42.347  -9.502  10.666  1.00  0.00     0.016 A 
BRANCH  14  17
HETATM   17  O   UNL     1      41.199  -7.914  13.722  1.00  0.00    -0.356 OA
HETATM   18  C   UNL     1      39.796  -8.105  13.589  1.00  0.00     0.210 C 
ENDBRANCH  14  17
ENDBRANCH   9  11
ENDBRANCH   1   5
BRANCH   2  19
HETATM   19  N   UNL     1      44.631 -15.534   6.718  1.00  0.00    -0.267 N 
HETATM   20  C   UNL     1      43.784 -16.615   6.797  1.00  0.00     0.240 C 
HETATM   21  O   UNL     1      42.841 -16.680   7.580  1.00  0.00    -0.271 OA
HETATM   22  H   UNL     1      45.421 -15.474   6.078  1.00  0.00     0.190 HD
BRANCH  20  23
HETATM   23  C   UNL     1      44.107 -17.716   5.851  1.00  0.00     0.089 A 
HETATM   24  C   UNL     1      43.620 -17.704   4.412  1.00  0.00     0.036 A 
HETATM   25  C   UNL     1      43.030 -18.674   5.407  1.00  0.00     0.025 A 
BRANCH  24  26
HETATM   26  C   UNL     1      42.799 -16.560   3.862  1.00  0.00    -0.015 A 
HETATM   27  C   UNL     1      41.398 -16.554   3.959  1.00  0.00     0.123 A 
HETATM   28  F   UNL     1      40.778 -17.596   4.536  1.00  0.00    -0.206 F 
HETATM   29  C   UNL     1      40.621 -15.499   3.483  1.00  0.00     0.043 A 
HETATM   30  C   UNL     1      41.240 -14.401   2.893  1.00  0.00     0.003 A 
HETATM   31  C   UNL     1      42.629 -14.366   2.790  1.00  0.00     0.001 A 
HETATM   32  C   UNL     1      43.397 -15.431   3.274  1.00  0.00     0.011 A 
ENDBRANCH  24  26
ENDBRANCH  20  23
ENDBRANCH   2  19
TORSDOF 6
ENDMDL
MODEL 6
REMARK VINA RESULT:      -8.5      8.552     10.583
REMARK  6 active torsions:
REMARK  status: ('A' for Active; 'I' for Inactive)
REMARK    1  A    between atoms: O_2  and  C_3 
REMARK    2  A    between atoms: C_6  and  C_7 
REMARK    3  A    between atoms: C_11  and  C_12 
REMARK       I    between atoms: C_12  and  N_13 
REMARK    4  A    between atoms: N_13  and  N_14 
REMARK       I    between atoms: N_14  and  C_15 
REMARK    5  A    between atoms: C_15  and  C_16 
REMARK    6  A    between atoms: C_17  and  C_18 
ROOT
HETATM    1  C   UNL     1      41.332 -15.110   0.269  1.00  0.00     0.288 C 
HETATM    2  N   UNL     1      40.672 -15.661  -0.810  1.00  0.00    -0.262 N 
HETATM    3  O   UNL     1      41.230 -13.920   0.562  1.00  0.00    -0.264 OA
HETATM    4  H   UNL     1      40.851 -16.602  -1.150  1.00  0.00     0.190 HD
ENDROOT
BRANCH   1   5
HETATM    5  C   UNL     1      42.136 -16.030   1.028  1.00  0.00     0.121 A 
HETATM    6  N   UNL     1      43.048 -15.602   1.951  1.00  0.00    -0.272 N 
HETATM    7  N   UNL     1      43.673 -16.591   2.606  1.00  0.00    -0.174 NA
HETATM    8  H   UNL     1      43.270 -14.639   2.187  1.00  0.00     0.189 HD
HETATM    9  C   UNL     1      43.171 -17.718   2.078  1.00  0.00     0.089 A 
HETATM   10  C   UNL     1      42.210 -17.407   1.076  1.00  0.00     0.071 A 
BRANCH   9  11
HETATM   11  C   UNL     1      43.576 -19.045   2.550  1.00  0.00    -0.005 A 
HETATM   12  C   UNL     1      43.466 -20.162   1.710  1.00  0.00     0.016 A 
HETATM   13  C   UNL     1      43.900 -21.427   2.129  1.00  0.00     0.037 A 
HETATM   14  C   UNL     1      44.450 -21.592   3.399  1.00  0.00     0.068 A 
HETATM   15  C   UNL     1      44.537 -20.489   4.252  1.00  0.00     0.037 A 
HETATM   16  C   UNL     1      44.108 -19.225   3.832  1.00  0.00     0.016 A 
BRANCH  14  17
HETATM   17  O   UNL     1      44.924 -22.761   3.925  1.00  0.00    -0.356 OA
HETATM   18  C   UNL     1      45.417 -22.707   5.258  1.00  0.00     0.210 C 
ENDBRANCH  14  17
ENDBRANCH   9  11
ENDBRANCH   1   5
BRANCH   2  19
HETATM   19  N   UNL     1      39.945 -14.829  -1.663  1.00  0.00    -0.267 N 
HETATM   20  C   UNL     1      40.427 -14.621  -2.935  1.00  0.00     0.240 C 
HETATM   21  O   UNL     1      41.454 -15.142  -3.363  1.00  0.00    -0.271 OA
HETATM   22  H   UNL     1      39.101 -14.397  -1.296  1.00  0.00     0.190 HD
BRANCH  20  23
HETATM   23  C   UNL     1      39.599 -13.702  -3.760  1.00  0.00     0.089 A 
HETATM   24  C   UNL     1      39.739 -12.192  -3.663  1.00  0.00     0.036 A 
HETATM   25  C   UNL     1      38.511 -12.880  -3.117  1.00  0.00     0.025 A 
BRANCH  24  26
HETATM   26  C   UNL     1      40.745 -11.547  -2.737  1.00  0.00    -0.015 A 
HETATM   27  C   UNL     1      42.059 -11.287  -3.156  1.00  0.00     0.123 A 
HETATM   28  F   UNL     1      42.432 -11.636  -4.398  1.00  0.00    -0.206 F 
HETATM   29  C   UNL     1      42.998 -10.670  -2.329  1.00  0.00     0.043 A 
HETATM   30  C   UNL     1      42.634 -10.285  -1.043  1.00  0.00     0.003 A 
HETATM   31  C   UNL     1      41.334 -10.516  -0.597  1.00  0.00     0.001 A 
HETATM   32  C   UNL     1      40.402 -11.135  -1.437  1.00  0.00     0.011 A 
ENDBRANCH  24  26
ENDBRANCH  20  23
ENDBRANCH   2  19
TORSDOF 6
ENDMDL
MODEL 7
REMARK VINA RESULT:      -8.3      7.885     10.703
REMARK  6 active torsions:
REMARK  status: ('A' for Active; 'I' for Inactive)
REMARK    1  A    between atoms: O_2  and  C_3 
REMARK    2  A    between atoms: C_6  and  C_7 
REMARK    3  A    between atoms: C_11  and  C_12 
REMARK       I    between atoms: C_12  and  N_13 
REMARK    4  A    between atoms: N_13  and  N_14 
REMARK       I    between atoms: N_14  and  C_15 
REMARK    5  A    between atoms: C_15  and  C_16 
REMARK    6  A    between atoms: C_17  and  C_18 
ROOT
HETATM    1  C   UNL     1      41.433 -14.906  -0.107  1.00  0.00     0.288 C 
HETATM    2  N   UNL     1      40.108 -15.260  -0.248  1.00  0.00    -0.262 N 
HETATM    3  O   UNL     1      41.965 -14.059  -0.822  1.00  0.00    -0.264 OA
HETATM    4  H   UNL     1      39.689 -16.051   0.234  1.00  0.00     0.190 HD
ENDROOT
BRANCH   1   5
HETATM    5  C   UNL     1      42.140 -15.589   0.942  1.00  0.00     0.121 A 
HETATM    6  N   UNL     1      42.483 -14.966   2.109  1.00  0.00    -0.272 N 
HETATM    7  N   UNL     1      43.090 -15.762   3.001  1.00  0.00    -0.174 NA
HETATM    8  H   UNL     1      42.308 -13.996   2.356  1.00  0.00     0.189 HD
HETATM    9  C   UNL     1      43.172 -16.955   2.390  1.00  0.00     0.089 A 
HETATM   10  C   UNL     1      42.596 -16.883   1.091  1.00  0.00     0.071 A 
BRANCH   9  11
HETATM   11  C   UNL     1      43.752 -18.128   3.050  1.00  0.00    -0.005 A 
HETATM   12  C   UNL     1      44.082 -18.086   4.412  1.00  0.00     0.016 A 
HETATM   13  C   UNL     1      44.586 -19.216   5.068  1.00  0.00     0.037 A 
HETATM   14  C   UNL     1      44.771 -20.407   4.368  1.00  0.00     0.068 A 
HETATM   15  C   UNL     1      44.472 -20.448   3.004  1.00  0.00     0.037 A 
HETATM   16  C   UNL     1      43.963 -19.321   2.349  1.00  0.00     0.016 A 
BRANCH  14  17
HETATM   17  O   UNL     1      45.239 -21.581   4.887  1.00  0.00    -0.356 OA
HETATM   18  C   UNL     1      44.730 -22.779   4.314  1.00  0.00     0.210 C 
ENDBRANCH  14  17
ENDBRANCH   9  11
ENDBRANCH   1   5
BRANCH   2  19
HETATM   19  N   UNL     1      39.365 -14.722  -1.301  1.00  0.00    -0.267 N 
HETATM   20  C   UNL     1      38.632 -13.583  -1.065  1.00  0.00     0.240 C 
HETATM   21  O   UNL     1      38.609 -13.006   0.019  1.00  0.00    -0.271 OA
HETATM   22  H   UNL     1      39.386 -15.213  -2.193  1.00  0.00     0.190 HD
BRANCH  20  23
HETATM   23  C   UNL     1      37.856 -13.100  -2.238  1.00  0.00     0.089 A 
HETATM   24  C   UNL     1      38.457 -12.152  -3.261  1.00  0.00     0.036 A 
HETATM   25  C   UNL     1      37.396 -11.666  -2.304  1.00  0.00     0.025 A 
BRANCH  24  26
HETATM   26  C   UNL     1      39.884 -11.668  -3.151  1.00  0.00    -0.015 A 
HETATM   27  C   UNL     1      40.956 -12.442  -3.624  1.00  0.00     0.123 A 
HETATM   28  F   UNL     1      40.706 -13.644  -4.168  1.00  0.00    -0.206 F 
HETATM   29  C   UNL     1      42.279 -12.006  -3.557  1.00  0.00     0.043 A 
HETATM   30  C   UNL     1      42.565 -10.759  -3.012  1.00  0.00     0.003 A 
HETATM   31  C   UNL     1      41.527  -9.958  -2.543  1.00  0.00     0.001 A 
HETATM   32  C   UNL     1      40.203 -10.406  -2.618  1.00  0.00     0.011 A 
ENDBRANCH  24  26
ENDBRANCH  20  23
ENDBRANCH   2  19
TORSDOF 6
ENDMDL
MODEL 8
REMARK VINA RESULT:      -8.0      7.454     10.619
REMARK  6 active torsions:
REMARK  status: ('A' for Active; 'I' for Inactive)
REMARK    1  A    between atoms: O_2  and  C_3 
REMARK    2  A    between atoms: C_6  and  C_7 
REMARK    3  A    between atoms: C_11  and  C_12 
REMARK       I    between atoms: C_12  and  N_13 
REMARK    4  A    between atoms: N_13  and  N_14 
REMARK       I    between atoms: N_14  and  C_15 
REMARK    5  A    between atoms: C_15  and  C_16 
REMARK    6  A    between atoms: C_17  and  C_18 
ROOT
HETATM    1  C   UNL     1      41.497 -15.230   0.186  1.00  0.00     0.288 C 
HETATM    2  N   UNL     1      40.541 -15.727  -0.675  1.00  0.00    -0.262 N 
HETATM    3  O   UNL     1      41.785 -14.035   0.227  1.00  0.00    -0.264 OA
HETATM    4  H   UNL     1      40.389 -16.721  -0.823  1.00  0.00     0.190 HD
ENDROOT
BRANCH   1   5
HETATM    5  C   UNL     1      42.121 -16.207   1.036  1.00  0.00     0.121 A 
HETATM    6  N   UNL     1      43.109 -17.035   0.582  1.00  0.00    -0.272 N 
HETATM    7  N   UNL     1      43.619 -17.849   1.518  1.00  0.00    -0.174 NA
HETATM    8  H   UNL     1      43.489 -17.071  -0.360  1.00  0.00     0.189 HD
HETATM    9  C   UNL     1      42.923 -17.564   2.630  1.00  0.00     0.089 A 
HETATM   10  C   UNL     1      41.966 -16.546   2.365  1.00  0.00     0.071 A 
BRANCH   9  11
HETATM   11  C   UNL     1      43.198 -18.225   3.909  1.00  0.00    -0.005 A 
HETATM   12  C   UNL     1      44.148 -19.254   3.988  1.00  0.00     0.016 A 
HETATM   13  C   UNL     1      44.459 -19.856   5.213  1.00  0.00     0.037 A 
HETATM   14  C   UNL     1      43.821 -19.440   6.380  1.00  0.00     0.068 A 
HETATM   15  C   UNL     1      42.852 -18.436   6.305  1.00  0.00     0.037 A 
HETATM   16  C   UNL     1      42.544 -17.830   5.082  1.00  0.00     0.016 A 
BRANCH  14  17
HETATM   17  O   UNL     1      44.040 -19.931   7.636  1.00  0.00    -0.356 OA
HETATM   18  C   UNL     1      44.308 -18.977   8.656  1.00  0.00     0.210 C 
ENDBRANCH  14  17
ENDBRANCH   9  11
ENDBRANCH   1   5
BRANCH   2  19
HETATM   19  N   UNL     1      39.949 -14.871  -1.606  1.00  0.00    -0.267 N 
HETATM   20  C   UNL     1      40.500 -14.799  -2.865  1.00  0.00     0.240 C 
HETATM   21  O   UNL     1      41.474 -15.458  -3.216  1.00  0.00    -0.271 OA
HETATM   22  H   UNL     1      39.148 -14.323  -1.302  1.00  0.00     0.190 HD
BRANCH  20  23
HETATM   23  C   UNL     1      39.817 -13.843  -3.777  1.00  0.00     0.089 A 
HETATM   24  C   UNL     1      39.984 -12.340  -3.634  1.00  0.00     0.036 A 
HETATM   25  C   UNL     1      38.675 -12.998  -3.271  1.00  0.00     0.025 A 
BRANCH  24  26
HETATM   26  C   UNL     1      40.873 -11.739  -2.570  1.00  0.00    -0.015 A 
HETATM   27  C   UNL     1      42.263 -11.640  -2.749  1.00  0.00     0.123 A 
HETATM   28  F   UNL     1      42.811 -12.108  -3.883  1.00  0.00    -0.206 F 
HETATM   29  C   UNL     1      43.100 -11.067  -1.794  1.00  0.00     0.043 A 
HETATM   30  C   UNL     1      42.557 -10.562  -0.617  1.00  0.00     0.003 A 
HETATM   31  C   UNL     1      41.181 -10.631  -0.409  1.00  0.00     0.001 A 
HETATM   32  C   UNL     1      40.351 -11.208  -1.377  1.00  0.00     0.011 A 
ENDBRANCH  24  26
ENDBRANCH  20  23
ENDBRANCH   2  19
TORSDOF 6
ENDMDL
MODEL 9
REMARK VINA RESULT:      -8.0      7.119     10.831
REMARK  6 active torsions:
REMARK  status: ('A' for Active; 'I' for Inactive)
REMARK    1  A    between atoms: O_2  and  C_3 
REMARK    2  A    between atoms: C_6  and  C_7 
REMARK    3  A    between atoms: C_11  and  C_12 
REMARK       I    between atoms: C_12  and  N_13 
REMARK    4  A    between atoms: N_13  and  N_14 
REMARK       I    between atoms: N_14  and  C_15 
REMARK    5  A    between atoms: C_15  and  C_16 
REMARK    6  A    between atoms: C_17  and  C_18 
ROOT
HETATM    1  C   UNL     1      41.890 -15.059   2.344  1.00  0.00     0.288 C 
HETATM    2  N   UNL     1      41.865 -16.271   3.002  1.00  0.00    -0.262 N 
HETATM    3  O   UNL     1      42.868 -14.315   2.377  1.00  0.00    -0.264 OA
HETATM    4  H   UNL     1      41.024 -16.832   3.103  1.00  0.00     0.190 HD
ENDROOT
BRANCH   1   5
HETATM    5  C   UNL     1      40.696 -14.738   1.611  1.00  0.00     0.121 A 
HETATM    6  N   UNL     1      39.450 -14.919   2.143  1.00  0.00    -0.272 N 
HETATM    7  N   UNL     1      38.448 -14.518   1.346  1.00  0.00    -0.174 NA
HETATM    8  H   UNL     1      39.228 -15.297   3.059  1.00  0.00     0.189 HD
HETATM    9  C   UNL     1      39.055 -14.076   0.233  1.00  0.00     0.089 A 
HETATM   10  C   UNL     1      40.466 -14.208   0.357  1.00  0.00     0.071 A 
BRANCH   9  11
HETATM   11  C   UNL     1      38.302 -13.515  -0.891  1.00  0.00    -0.005 A 
HETATM   12  C   UNL     1      37.587 -12.318  -0.740  1.00  0.00     0.016 A 
HETATM   13  C   UNL     1      36.908 -11.741  -1.822  1.00  0.00     0.037 A 
HETATM   14  C   UNL     1      36.932 -12.358  -3.072  1.00  0.00     0.068 A 
HETATM   15  C   UNL     1      37.618 -13.565  -3.222  1.00  0.00     0.037 A 
HETATM   16  C   UNL     1      38.301 -14.139  -2.144  1.00  0.00     0.016 A 
BRANCH  14  17
HETATM   17  O   UNL     1      36.328 -11.897  -4.208  1.00  0.00    -0.356 OA
HETATM   18  C   UNL     1      35.443 -12.794  -4.868  1.00  0.00     0.210 C 
ENDBRANCH  14  17
ENDBRANCH   9  11
ENDBRANCH   1   5
BRANCH   2  19
HETATM   19  N   UNL     1      42.940 -16.627   3.819  1.00  0.00    -0.267 N 
HETATM   20  C   UNL     1      42.773 -17.675   4.694  1.00  0.00     0.240 C 
HETATM   21  O   UNL     1      41.734 -18.324   4.783  1.00  0.00    -0.271 OA
HETATM   22  H   UNL     1      43.794 -16.078   3.743  1.00  0.00     0.190 HD
BRANCH  20  23
HETATM   23  C   UNL     1      43.963 -17.962   5.538  1.00  0.00     0.089 A 
HETATM   24  C   UNL     1      44.865 -19.156   5.274  1.00  0.00     0.036 A 
HETATM   25  C   UNL     1      43.957 -19.140   6.480  1.00  0.00     0.025 A 
BRANCH  24  26
HETATM   26  C   UNL     1      44.610 -20.102   4.122  1.00  0.00    -0.015 A 
HETATM   27  C   UNL     1      44.728 -21.492   4.280  1.00  0.00     0.123 A 
HETATM   28  F   UNL     1      45.094 -21.987   5.474  1.00  0.00    -0.206 F 
HETATM   29  C   UNL     1      44.474 -22.386   3.241  1.00  0.00     0.043 A 
HETATM   30  C   UNL     1      44.079 -21.902   1.998  1.00  0.00     0.003 A 
HETATM   31  C   UNL     1      43.939 -20.529   1.807  1.00  0.00     0.001 A 
HETATM   32  C   UNL     1      44.197 -19.643   2.859  1.00  0.00     0.011 A 
ENDBRANCH  24  26
ENDBRANCH  20  23
ENDBRANCH   2  19
TORSDOF 6
ENDMDL
MODEL 10
REMARK VINA RESULT:      -7.9      3.497     10.224
REMARK  6 active torsions:
REMARK  status: ('A' for Active; 'I' for Inactive)
REMARK    1  A    between atoms: O_2  and  C_3 
REMARK    2  A    between atoms: C_6  and  C_7 
REMARK    3  A    between atoms: C_11  and  C_12 
REMARK       I    between atoms: C_12  and  N_13 
REMARK    4  A    between atoms: N_13  and  N_14 
REMARK       I    between atoms: N_14  and  C_15 
REMARK    5  A    between atoms: C_15  and  C_16 
REMARK    6  A    between atoms: C_17  and  C_18 
ROOT
HETATM    1  C   UNL     1      44.538 -13.030   7.712  1.00  0.00     0.288 C 
HETATM    2  N   UNL     1      43.340 -13.125   7.035  1.00  0.00    -0.262 N 
HETATM    3  O   UNL     1      45.582 -13.500   7.264  1.00  0.00    -0.264 OA
HETATM    4  H   UNL     1      42.446 -12.871   7.447  1.00  0.00     0.190 HD
ENDROOT
BRANCH   1   5
HETATM    5  C   UNL     1      44.476 -12.335   8.968  1.00  0.00     0.121 A 
HETATM    6  N   UNL     1      45.587 -12.127   9.735  1.00  0.00    -0.272 N 
HETATM    7  N   UNL     1      45.362 -11.415  10.850  1.00  0.00    -0.174 NA
HETATM    8  H   UNL     1      46.533 -12.436   9.533  1.00  0.00     0.189 HD
HETATM    9  C   UNL     1      44.043 -11.162  10.830  1.00  0.00     0.089 A 
HETATM   10  C   UNL     1      43.450 -11.733   9.669  1.00  0.00     0.071 A 
BRANCH   9  11
HETATM   11  C   UNL     1      43.389 -10.368  11.873  1.00  0.00    -0.005 A 
HETATM   12  C   UNL     1      43.006 -10.963  13.083  1.00  0.00     0.016 A 
HETATM   13  C   UNL     1      42.429 -10.204  14.110  1.00  0.00     0.037 A 
HETATM   14  C   UNL     1      42.223  -8.837  13.938  1.00  0.00     0.068 A 
HETATM   15  C   UNL     1      42.574  -8.243  12.724  1.00  0.00     0.037 A 
HETATM   16  C   UNL     1      43.156  -8.999  11.700  1.00  0.00     0.016 A 
BRANCH  14  17
HETATM   17  O   UNL     1      41.685  -7.982  14.859  1.00  0.00    -0.356 OA
HETATM   18  C   UNL     1      41.712  -8.408  16.216  1.00  0.00     0.210 C 
ENDBRANCH  14  17
ENDBRANCH   9  11
ENDBRANCH   1   5
BRANCH   2  19
HETATM   19  N   UNL     1      43.279 -13.867   5.853  1.00  0.00    -0.267 N 
HETATM   20  C   UNL     1      42.048 -14.298   5.418  1.00  0.00     0.240 C 
HETATM   21  O   UNL     1      40.998 -14.052   6.005  1.00  0.00    -0.271 OA
HETATM   22  H   UNL     1      44.156 -14.071   5.378  1.00  0.00     0.190 HD
BRANCH  20  23
HETATM   23  C   UNL     1      42.088 -15.099   4.166  1.00  0.00     0.089 A 
HETATM   24  C   UNL     1      42.700 -16.489   4.123  1.00  0.00     0.036 A 
HETATM   25  C   UNL     1      43.398 -15.329   3.455  1.00  0.00     0.025 A 
BRANCH  24  26
HETATM   26  C   UNL     1      43.281 -17.138   5.359  1.00  0.00    -0.015 A 
HETATM   27  C   UNL     1      42.467 -17.499   6.445  1.00  0.00     0.123 A 
HETATM   28  F   UNL     1      41.149 -17.244   6.388  1.00  0.00    -0.206 F 
HETATM   29  C   UNL     1      42.974 -18.121   7.584  1.00  0.00     0.043 A 
HETATM   30  C   UNL     1      44.333 -18.410   7.663  1.00  0.00     0.003 A 
HETATM   31  C   UNL     1      45.170 -18.077   6.600  1.00  0.00     0.001 A 
HETATM   32  C   UNL     1      44.647 -17.454   5.461  1.00  0.00     0.011 A 
ENDBRANCH  24  26
ENDBRANCH  20  23
ENDBRANCH   2  19
TORSDOF 6
ENDMDL
