MODEL 1
REMARK VINA RESULT:      -9.1      0.000      0.000
REMARK  3 active torsions:
REMARK  status: ('A' for Active; 'I' for Inactive)
REMARK    1  A    between atoms: N_5  and  C_6 
REMARK    2  A    between atoms: C_7  and  C_8 
REMARK       I    between atoms: C_8  and  N_9 
REMARK    3  A    between atoms: N_9  and  N_10 
ROOT
HETATM    1  C   UNL     1      39.125 -14.192   3.019  1.00  0.00     0.056 C 
HETATM    2  C   UNL     1      40.520 -14.537   2.527  1.00  0.00     0.158 C 
HETATM    3  C   UNL     1      40.951 -15.956   2.908  1.00  0.00     0.267 C 
HETATM    4  O   UNL     1      40.306 -16.961   2.623  1.00  0.00    -0.269 OA
HETATM    5  N   UNL     1      42.227 -15.889   3.431  1.00  0.00    -0.230 N 
HETATM    6  C   UNL     1      42.659 -14.579   3.453  1.00  0.00     0.333 C 
HETATM    7  O   UNL     1      43.788 -14.173   3.694  1.00  0.00    -0.246 OA
HETATM    8  N   UNL     1      41.575 -13.749   3.147  1.00  0.00    -0.309 N 
HETATM    9  C   UNL     1      41.787 -12.370   2.693  1.00  0.00     0.134 C 
HETATM   10  C   UNL     1      42.137 -12.294   1.188  1.00  0.00     0.061 C 
HETATM   11  C   UNL     1      41.428 -13.366   0.419  1.00  0.00    -0.018 A 
HETATM   12  C   UNL     1      40.696 -14.361   1.043  1.00  0.00     0.055 A 
HETATM   13  N   UNL     1      40.272 -15.246   0.086  1.00  0.00    -0.356 N 
HETATM   14  H   UNL     1      39.760 -16.104   0.261  1.00  0.00     0.166 HD
HETATM   15  C   UNL     1      40.786 -14.881  -1.140  1.00  0.00     0.043 A 
HETATM   16  C   UNL     1      41.486 -13.683  -0.965  1.00  0.00    -0.001 A 
HETATM   17  C   UNL     1      40.710 -15.535  -2.375  1.00  0.00     0.030 A 
HETATM   18  C   UNL     1      41.361 -14.947  -3.463  1.00  0.00     0.002 A 
HETATM   19  C   UNL     1      42.051 -13.744  -3.322  1.00  0.00     0.001 A 
HETATM   20  C   UNL     1      42.122 -13.103  -2.079  1.00  0.00     0.014 A 
ENDROOT
BRANCH   5  21
HETATM   21  C   UNL     1      43.058 -17.035   3.514  1.00  0.00     0.063 A 
HETATM   22  C   UNL     1      43.346 -17.676   4.738  1.00  0.00     0.060 A 
HETATM   23  C   UNL     1      43.980 -18.929   4.749  1.00  0.00     0.019 A 
HETATM   24  C   UNL     1      44.373 -19.530   3.555  1.00  0.00     0.001 A 
HETATM   25  C   UNL     1      44.155 -18.875   2.347  1.00  0.00     0.002 A 
HETATM   26  C   UNL     1      43.509 -17.636   2.326  1.00  0.00     0.031 A 
BRANCH  22  27
HETATM   27  C   UNL     1      43.118 -17.046   6.067  1.00  0.00     0.268 C 
HETATM   28  N   UNL     1      44.022 -16.046   6.419  1.00  0.00    -0.290 N 
HETATM   29  H   UNL     1      44.856 -15.878   5.859  1.00  0.00     0.183 HD
HETATM   30  O   UNL     1      42.244 -17.459   6.824  1.00  0.00    -0.266 OA
BRANCH  28  31
HETATM   31  N   UNL     1      43.947 -15.473   7.706  1.00  0.00    -0.247 NA
HETATM   32  H   UNL     1      43.061 -15.792   8.120  1.00  0.00     0.143 HD
HETATM   33  H   UNL     1      43.778 -14.469   7.575  1.00  0.00     0.143 HD
ENDBRANCH  28  31
ENDBRANCH  22  27
ENDBRANCH   5  21
TORSDOF 3
ENDMDL
MODEL 2
REMARK VINA RESULT:      -8.9      2.650      6.107
REMARK  3 active torsions:
REMARK  status: ('A' for Active; 'I' for Inactive)
REMARK    1  A    between atoms: N_5  and  C_6 
REMARK    2  A    between atoms: C_7  and  C_8 
REMARK       I    between atoms: C_8  and  N_9 
REMARK    3  A    between atoms: N_9  and  N_10 
ROOT
HETATM    1  C   UNL     1      44.058 -13.748   5.524  1.00  0.00     0.056 C 
HETATM    2  C   UNL     1      42.852 -14.347   4.822  1.00  0.00     0.158 C 
HETATM    3  C   UNL     1      42.189 -13.374   3.844  1.00  0.00     0.267 C 
HETATM    4  O   UNL     1      42.789 -12.819   2.927  1.00  0.00    -0.269 OA
HETATM    5  N   UNL     1      40.828 -13.400   4.071  1.00  0.00    -0.230 N 
HETATM    6  C   UNL     1      40.539 -14.266   5.106  1.00  0.00     0.333 C 
HETATM    7  O   UNL     1      39.436 -14.657   5.461  1.00  0.00    -0.246 OA
HETATM    8  N   UNL     1      41.741 -14.648   5.713  1.00  0.00    -0.309 N 
HETATM    9  C   UNL     1      41.812 -15.848   6.553  1.00  0.00     0.134 C 
HETATM   10  C   UNL     1      41.944 -17.143   5.717  1.00  0.00     0.061 C 
HETATM   11  C   UNL     1      42.745 -16.898   4.475  1.00  0.00    -0.018 A 
HETATM   12  C   UNL     1      43.153 -15.631   4.097  1.00  0.00     0.055 A 
HETATM   13  N   UNL     1      43.759 -15.723   2.871  1.00  0.00    -0.356 N 
HETATM   14  H   UNL     1      44.107 -14.943   2.324  1.00  0.00     0.166 HD
HETATM   15  C   UNL     1      43.679 -17.021   2.413  1.00  0.00     0.043 A 
HETATM   16  C   UNL     1      43.079 -17.787   3.418  1.00  0.00    -0.001 A 
HETATM   17  C   UNL     1      44.062 -17.563   1.181  1.00  0.00     0.030 A 
HETATM   18  C   UNL     1      43.832 -18.925   0.971  1.00  0.00     0.002 A 
HETATM   19  C   UNL     1      43.253 -19.716   1.960  1.00  0.00     0.001 A 
HETATM   20  C   UNL     1      42.871 -19.161   3.187  1.00  0.00     0.014 A 
ENDROOT
BRANCH   5  21
HETATM   21  C   UNL     1      39.903 -12.931   3.103  1.00  0.00     0.063 A 
HETATM   22  C   UNL     1      39.451 -13.733   2.035  1.00  0.00     0.060 A 
HETATM   23  C   UNL     1      38.373 -13.311   1.240  1.00  0.00     0.019 A 
HETATM   24  C   UNL     1      37.770 -12.076   1.469  1.00  0.00     0.001 A 
HETATM   25  C   UNL     1      38.253 -11.247   2.477  1.00  0.00     0.002 A 
HETATM   26  C   UNL     1      39.314 -11.667   3.283  1.00  0.00     0.031 A 
BRANCH  22  27
HETATM   27  C   UNL     1      40.130 -14.986   1.605  1.00  0.00     0.268 C 
HETATM   28  N   UNL     1      39.495 -16.170   1.975  1.00  0.00    -0.290 N 
HETATM   29  H   UNL     1      38.706 -16.157   2.618  1.00  0.00     0.183 HD
HETATM   30  O   UNL     1      41.222 -14.955   1.045  1.00  0.00    -0.266 OA
BRANCH  28  31
HETATM   31  N   UNL     1      40.126 -17.402   1.704  1.00  0.00    -0.247 NA
HETATM   32  H   UNL     1      39.557 -18.130   2.155  1.00  0.00     0.143 HD
HETATM   33  H   UNL     1      40.988 -17.422   2.260  1.00  0.00     0.143 HD
ENDBRANCH  28  31
ENDBRANCH  22  27
ENDBRANCH   5  21
TORSDOF 3
ENDMDL
MODEL 3
REMARK VINA RESULT:      -8.8      2.270      3.511
REMARK  3 active torsions:
REMARK  status: ('A' for Active; 'I' for Inactive)
REMARK    1  A    between atoms: N_5  and  C_6 
REMARK    2  A    between atoms: C_7  and  C_8 
REMARK       I    between atoms: C_8  and  N_9 
REMARK    3  A    between atoms: N_9  and  N_10 
ROOT
HETATM    1  C   UNL     1      40.605 -14.485   6.069  1.00  0.00     0.056 C 
HETATM    2  C   UNL     1      41.186 -14.875   4.721  1.00  0.00     0.158 C 
HETATM    3  C   UNL     1      41.373 -16.386   4.568  1.00  0.00     0.267 C 
HETATM    4  O   UNL     1      40.467 -17.201   4.717  1.00  0.00    -0.269 OA
HETATM    5  N   UNL     1      42.639 -16.611   4.067  1.00  0.00    -0.230 N 
HETATM    6  C   UNL     1      43.302 -15.412   3.903  1.00  0.00     0.333 C 
HETATM    7  O   UNL     1      44.368 -15.224   3.332  1.00  0.00    -0.246 OA
HETATM    8  N   UNL     1      42.546 -14.402   4.507  1.00  0.00    -0.309 N 
HETATM    9  C   UNL     1      42.759 -12.992   4.160  1.00  0.00     0.134 C 
HETATM   10  C   UNL     1      42.045 -12.597   2.846  1.00  0.00     0.061 C 
HETATM   11  C   UNL     1      40.760 -13.349   2.688  1.00  0.00    -0.018 A 
HETATM   12  C   UNL     1      40.388 -14.365   3.551  1.00  0.00     0.055 A 
HETATM   13  N   UNL     1      39.231 -14.928   3.078  1.00  0.00    -0.356 N 
HETATM   14  H   UNL     1      38.758 -15.731   3.479  1.00  0.00     0.166 HD
HETATM   15  C   UNL     1      38.892 -14.344   1.876  1.00  0.00     0.043 A 
HETATM   16  C   UNL     1      39.815 -13.324   1.626  1.00  0.00    -0.001 A 
HETATM   17  C   UNL     1      37.861 -14.662   0.984  1.00  0.00     0.030 A 
HETATM   18  C   UNL     1      37.767 -13.913  -0.193  1.00  0.00     0.002 A 
HETATM   19  C   UNL     1      38.663 -12.879  -0.460  1.00  0.00     0.001 A 
HETATM   20  C   UNL     1      39.691 -12.575   0.440  1.00  0.00     0.014 A 
ENDROOT
BRANCH   5  21
HETATM   21  C   UNL     1      42.987 -17.840   3.448  1.00  0.00     0.063 A 
HETATM   22  C   UNL     1      42.765 -18.087   2.077  1.00  0.00     0.060 A 
HETATM   23  C   UNL     1      43.328 -19.218   1.462  1.00  0.00     0.019 A 
HETATM   24  C   UNL     1      44.070 -20.130   2.210  1.00  0.00     0.001 A 
HETATM   25  C   UNL     1      44.238 -19.930   3.576  1.00  0.00     0.002 A 
HETATM   26  C   UNL     1      43.696 -18.799   4.192  1.00  0.00     0.031 A 
BRANCH  22  27
HETATM   27  C   UNL     1      41.854 -17.268   1.233  1.00  0.00     0.268 C 
HETATM   28  N   UNL     1      42.481 -16.396   0.345  1.00  0.00    -0.290 N 
HETATM   29  H   UNL     1      43.486 -16.240   0.393  1.00  0.00     0.183 HD
HETATM   30  O   UNL     1      40.637 -17.308   1.390  1.00  0.00    -0.266 OA
BRANCH  28  31
HETATM   31  N   UNL     1      41.694 -15.505  -0.414  1.00  0.00    -0.247 NA
HETATM   32  H   UNL     1      42.088 -14.566  -0.269  1.00  0.00     0.143 HD
HETATM   33  H   UNL     1      40.785 -15.436   0.057  1.00  0.00     0.143 HD
ENDBRANCH  28  31
ENDBRANCH  22  27
ENDBRANCH   5  21
TORSDOF 3
ENDMDL
MODEL 4
REMARK VINA RESULT:      -8.5      1.997      3.032
REMARK  3 active torsions:
REMARK  status: ('A' for Active; 'I' for Inactive)
REMARK    1  A    between atoms: N_5  and  C_6 
REMARK    2  A    between atoms: C_7  and  C_8 
REMARK       I    between atoms: C_8  and  N_9 
REMARK    3  A    between atoms: N_9  and  N_10 
ROOT
HETATM    1  C   UNL     1      40.049 -15.669   6.330  1.00  0.00     0.056 C 
HETATM    2  C   UNL     1      41.287 -15.868   5.473  1.00  0.00     0.158 C 
HETATM    3  C   UNL     1      41.648 -17.342   5.281  1.00  0.00     0.267 C 
HETATM    4  O   UNL     1      40.870 -18.179   4.831  1.00  0.00    -0.269 OA
HETATM    5  N   UNL     1      43.000 -17.486   5.518  1.00  0.00    -0.230 N 
HETATM    6  C   UNL     1      43.549 -16.270   5.867  1.00  0.00     0.333 C 
HETATM    7  O   UNL     1      44.736 -15.996   5.983  1.00  0.00    -0.246 OA
HETATM    8  N   UNL     1      42.510 -15.357   6.076  1.00  0.00    -0.309 N 
HETATM    9  C   UNL     1      42.759 -13.912   6.054  1.00  0.00     0.134 C 
HETATM   10  C   UNL     1      42.824 -13.349   4.614  1.00  0.00     0.061 C 
HETATM   11  C   UNL     1      41.885 -14.086   3.709  1.00  0.00    -0.018 A 
HETATM   12  C   UNL     1      41.194 -15.212   4.121  1.00  0.00     0.055 A 
HETATM   13  N   UNL     1      40.516 -15.718   3.043  1.00  0.00    -0.356 N 
HETATM   14  H   UNL     1      39.968 -16.572   3.036  1.00  0.00     0.166 HD
HETATM   15  C   UNL     1      40.821 -14.980   1.919  1.00  0.00     0.043 A 
HETATM   16  C   UNL     1      41.650 -13.927   2.316  1.00  0.00    -0.001 A 
HETATM   17  C   UNL     1      40.451 -15.185   0.584  1.00  0.00     0.030 A 
HETATM   18  C   UNL     1      40.937 -14.285  -0.369  1.00  0.00     0.002 A 
HETATM   19  C   UNL     1      41.750 -13.216   0.001  1.00  0.00     0.001 A 
HETATM   20  C   UNL     1      42.115 -13.026   1.339  1.00  0.00     0.014 A 
ENDROOT
BRANCH   5  21
HETATM   21  C   UNL     1      43.721 -18.616   5.054  1.00  0.00     0.063 A 
HETATM   22  C   UNL     1      43.990 -19.733   5.873  1.00  0.00     0.060 A 
HETATM   23  C   UNL     1      44.502 -20.914   5.313  1.00  0.00     0.019 A 
HETATM   24  C   UNL     1      44.794 -20.980   3.952  1.00  0.00     0.001 A 
HETATM   25  C   UNL     1      44.596 -19.862   3.148  1.00  0.00     0.002 A 
HETATM   26  C   UNL     1      44.071 -18.688   3.694  1.00  0.00     0.031 A 
BRANCH  22  27
HETATM   27  C   UNL     1      43.870 -19.710   7.356  1.00  0.00     0.268 C 
HETATM   28  N   UNL     1      44.341 -18.555   7.978  1.00  0.00    -0.290 N 
HETATM   29  H   UNL     1      44.860 -17.855   7.451  1.00  0.00     0.183 HD
HETATM   30  O   UNL     1      43.467 -20.691   7.975  1.00  0.00    -0.266 OA
BRANCH  28  31
HETATM   31  N   UNL     1      44.367 -18.495   9.387  1.00  0.00    -0.247 NA
HETATM   32  H   UNL     1      45.100 -19.147   9.697  1.00  0.00     0.143 HD
HETATM   33  H   UNL     1      43.512 -18.954   9.720  1.00  0.00     0.143 HD
ENDBRANCH  28  31
ENDBRANCH  22  27
ENDBRANCH   5  21
TORSDOF 3
ENDMDL
MODEL 5
REMARK VINA RESULT:      -8.4      3.107      6.919
REMARK  3 active torsions:
REMARK  status: ('A' for Active; 'I' for Inactive)
REMARK    1  A    between atoms: N_5  and  C_6 
REMARK    2  A    between atoms: C_7  and  C_8 
REMARK       I    between atoms: C_8  and  N_9 
REMARK    3  A    between atoms: N_9  and  N_10 
ROOT
HETATM    1  C   UNL     1      45.213 -15.730   6.311  1.00  0.00     0.056 C 
HETATM    2  C   UNL     1      43.989 -16.537   5.915  1.00  0.00     0.158 C 
HETATM    3  C   UNL     1      43.221 -15.919   4.744  1.00  0.00     0.267 C 
HETATM    4  O   UNL     1      43.735 -15.656   3.660  1.00  0.00    -0.269 OA
HETATM    5  N   UNL     1      41.881 -15.904   5.072  1.00  0.00    -0.230 N 
HETATM    6  C   UNL     1      41.699 -16.421   6.338  1.00  0.00     0.333 C 
HETATM    7  O   UNL     1      40.640 -16.709   6.878  1.00  0.00    -0.246 OA
HETATM    8  N   UNL     1      42.953 -16.577   6.938  1.00  0.00    -0.309 N 
HETATM    9  C   UNL     1      43.132 -17.465   8.092  1.00  0.00     0.134 C 
HETATM   10  C   UNL     1      43.263 -18.949   7.675  1.00  0.00     0.061 C 
HETATM   11  C   UNL     1      43.968 -19.076   6.360  1.00  0.00    -0.018 A 
HETATM   12  C   UNL     1      44.295 -17.974   5.588  1.00  0.00     0.055 A 
HETATM   13  N   UNL     1      44.821 -18.421   4.404  1.00  0.00    -0.356 N 
HETATM   14  H   UNL     1      45.098 -17.835   3.623  1.00  0.00     0.166 HD
HETATM   15  C   UNL     1      44.766 -19.797   4.365  1.00  0.00     0.043 A 
HETATM   16  C   UNL     1      44.268 -20.236   5.596  1.00  0.00    -0.001 A 
HETATM   17  C   UNL     1      45.088 -20.679   3.326  1.00  0.00     0.030 A 
HETATM   18  C   UNL     1      44.903 -22.046   3.553  1.00  0.00     0.002 A 
HETATM   19  C   UNL     1      44.425 -22.512   4.776  1.00  0.00     0.001 A 
HETATM   20  C   UNL     1      44.103 -21.619   5.805  1.00  0.00     0.014 A 
ENDROOT
BRANCH   5  21
HETATM   21  C   UNL     1      40.874 -15.768   4.082  1.00  0.00     0.063 A 
HETATM   22  C   UNL     1      40.119 -14.587   3.927  1.00  0.00     0.060 A 
HETATM   23  C   UNL     1      39.299 -14.414   2.799  1.00  0.00     0.019 A 
HETATM   24  C   UNL     1      39.188 -15.426   1.847  1.00  0.00     0.001 A 
HETATM   25  C   UNL     1      39.877 -16.622   2.026  1.00  0.00     0.002 A 
HETATM   26  C   UNL     1      40.708 -16.795   3.136  1.00  0.00     0.031 A 
BRANCH  22  27
HETATM   27  C   UNL     1      40.038 -13.522   4.963  1.00  0.00     0.268 C 
HETATM   28  N   UNL     1      39.384 -13.878   6.140  1.00  0.00    -0.290 N 
HETATM   29  H   UNL     1      38.877 -14.759   6.207  1.00  0.00     0.183 HD
HETATM   30  O   UNL     1      40.445 -12.385   4.737  1.00  0.00    -0.266 OA
BRANCH  28  31
HETATM   31  N   UNL     1      39.167 -12.897   7.130  1.00  0.00    -0.247 NA
HETATM   32  H   UNL     1      38.509 -13.304   7.808  1.00  0.00     0.143 HD
HETATM   33  H   UNL     1      38.604 -12.157   6.696  1.00  0.00     0.143 HD
ENDBRANCH  28  31
ENDBRANCH  22  27
ENDBRANCH   5  21
TORSDOF 3
ENDMDL
MODEL 6
REMARK VINA RESULT:      -8.4      2.135      4.833
REMARK  3 active torsions:
REMARK  status: ('A' for Active; 'I' for Inactive)
REMARK    1  A    between atoms: N_5  and  C_6 
REMARK    2  A    between atoms: C_7  and  C_8 
REMARK       I    between atoms: C_8  and  N_9 
REMARK    3  A    between atoms: N_9  and  N_10 
ROOT
HETATM    1  C   UNL     1      42.137 -13.034   0.641  1.00  0.00     0.056 C 
HETATM    2  C   UNL     1      41.730 -13.973   1.762  1.00  0.00     0.158 C 
HETATM    3  C   UNL     1      42.842 -14.948   2.155  1.00  0.00     0.267 C 
HETATM    4  O   UNL     1      43.967 -14.593   2.495  1.00  0.00    -0.269 OA
HETATM    5  N   UNL     1      42.294 -16.212   2.234  1.00  0.00    -0.230 N 
HETATM    6  C   UNL     1      40.954 -16.167   1.910  1.00  0.00     0.333 C 
HETATM    7  O   UNL     1      40.129 -17.061   2.033  1.00  0.00    -0.246 OA
HETATM    8  N   UNL     1      40.664 -14.897   1.399  1.00  0.00    -0.309 N 
HETATM    9  C   UNL     1      39.284 -14.401   1.350  1.00  0.00     0.134 C 
HETATM   10  C   UNL     1      38.811 -13.847   2.715  1.00  0.00     0.061 C 
HETATM   11  C   UNL     1      39.944 -13.202   3.452  1.00  0.00    -0.018 A 
HETATM   12  C   UNL     1      41.250 -13.261   2.999  1.00  0.00     0.055 A 
HETATM   13  N   UNL     1      42.059 -12.683   3.942  1.00  0.00    -0.356 N 
HETATM   14  H   UNL     1      43.072 -12.635   3.902  1.00  0.00     0.166 HD
HETATM   15  C   UNL     1      41.305 -12.320   5.037  1.00  0.00     0.043 A 
HETATM   16  C   UNL     1      39.967 -12.601   4.741  1.00  0.00    -0.001 A 
HETATM   17  C   UNL     1      41.708 -11.797   6.271  1.00  0.00     0.030 A 
HETATM   18  C   UNL     1      40.718 -11.547   7.226  1.00  0.00     0.002 A 
HETATM   19  C   UNL     1      39.376 -11.801   6.951  1.00  0.00     0.001 A 
HETATM   20  C   UNL     1      38.987 -12.328   5.714  1.00  0.00     0.014 A 
ENDROOT
BRANCH   5  21
HETATM   21  C   UNL     1      42.938 -17.260   2.941  1.00  0.00     0.063 A 
HETATM   22  C   UNL     1      42.685 -17.523   4.303  1.00  0.00     0.060 A 
HETATM   23  C   UNL     1      43.167 -18.700   4.899  1.00  0.00     0.019 A 
HETATM   24  C   UNL     1      43.939 -19.596   4.163  1.00  0.00     0.001 A 
HETATM   25  C   UNL     1      44.252 -19.313   2.837  1.00  0.00     0.002 A 
HETATM   26  C   UNL     1      43.762 -18.152   2.232  1.00  0.00     0.031 A 
BRANCH  22  27
HETATM   27  C   UNL     1      42.016 -16.555   5.215  1.00  0.00     0.268 C 
HETATM   28  N   UNL     1      40.657 -16.774   5.430  1.00  0.00    -0.290 N 
HETATM   29  H   UNL     1      40.148 -17.462   4.877  1.00  0.00     0.183 HD
HETATM   30  O   UNL     1      42.619 -15.583   5.662  1.00  0.00    -0.266 OA
BRANCH  28  31
HETATM   31  N   UNL     1      39.922 -15.842   6.191  1.00  0.00    -0.247 NA
HETATM   32  H   UNL     1      40.565 -15.072   6.417  1.00  0.00     0.143 HD
HETATM   33  H   UNL     1      39.762 -16.270   7.110  1.00  0.00     0.143 HD
ENDBRANCH  28  31
ENDBRANCH  22  27
ENDBRANCH   5  21
TORSDOF 3
ENDMDL
MODEL 7
REMARK VINA RESULT:      -8.3      1.875      3.411
REMARK  3 active torsions:
REMARK  status: ('A' for Active; 'I' for Inactive)
REMARK    1  A    between atoms: N_5  and  C_6 
REMARK    2  A    between atoms: C_7  and  C_8 
REMARK       I    between atoms: C_8  and  N_9 
REMARK    3  A    between atoms: N_9  and  N_10 
ROOT
HETATM    1  C   UNL     1      40.167 -15.350   6.253  1.00  0.00     0.056 C 
HETATM    2  C   UNL     1      41.319 -15.799   5.370  1.00  0.00     0.158 C 
HETATM    3  C   UNL     1      41.490 -17.319   5.343  1.00  0.00     0.267 C 
HETATM    4  O   UNL     1      40.593 -18.098   5.034  1.00  0.00    -0.269 OA
HETATM    5  N   UNL     1      42.828 -17.602   5.534  1.00  0.00    -0.230 N 
HETATM    6  C   UNL     1      43.537 -16.431   5.707  1.00  0.00     0.333 C 
HETATM    7  O   UNL     1      44.753 -16.296   5.734  1.00  0.00    -0.246 OA
HETATM    8  N   UNL     1      42.627 -15.378   5.850  1.00  0.00    -0.309 N 
HETATM    9  C   UNL     1      43.045 -13.987   5.641  1.00  0.00     0.134 C 
HETATM   10  C   UNL     1      43.089 -13.608   4.142  1.00  0.00     0.061 C 
HETATM   11  C   UNL     1      42.016 -14.321   3.377  1.00  0.00    -0.018 A 
HETATM   12  C   UNL     1      41.223 -15.297   3.954  1.00  0.00     0.055 A 
HETATM   13  N   UNL     1      40.426 -15.835   2.978  1.00  0.00    -0.356 N 
HETATM   14  H   UNL     1      39.782 -16.609   3.101  1.00  0.00     0.166 HD
HETATM   15  C   UNL     1      40.748 -15.276   1.760  1.00  0.00     0.043 A 
HETATM   16  C   UNL     1      41.718 -14.295   1.988  1.00  0.00    -0.001 A 
HETATM   17  C   UNL     1      40.277 -15.585   0.478  1.00  0.00     0.030 A 
HETATM   18  C   UNL     1      40.807 -14.869  -0.599  1.00  0.00     0.002 A 
HETATM   19  C   UNL     1      41.763 -13.875  -0.399  1.00  0.00     0.001 A 
HETATM   20  C   UNL     1      42.227 -13.578   0.888  1.00  0.00     0.014 A 
ENDROOT
BRANCH   5  21
HETATM   21  C   UNL     1      43.381 -18.859   5.179  1.00  0.00     0.063 A 
HETATM   22  C   UNL     1      43.767 -19.171   3.858  1.00  0.00     0.060 A 
HETATM   23  C   UNL     1      44.514 -20.331   3.595  1.00  0.00     0.019 A 
HETATM   24  C   UNL     1      44.840 -21.208   4.628  1.00  0.00     0.001 A 
HETATM   25  C   UNL     1      44.405 -20.944   5.922  1.00  0.00     0.002 A 
HETATM   26  C   UNL     1      43.676 -19.783   6.196  1.00  0.00     0.031 A 
BRANCH  22  27
HETATM   27  C   UNL     1      43.329 -18.391   2.669  1.00  0.00     0.268 C 
HETATM   28  N   UNL     1      44.313 -17.608   2.070  1.00  0.00    -0.290 N 
HETATM   29  H   UNL     1      45.219 -17.479   2.517  1.00  0.00     0.183 HD
HETATM   30  O   UNL     1      42.154 -18.382   2.315  1.00  0.00    -0.266 OA
BRANCH  28  31
HETATM   31  N   UNL     1      43.958 -16.753   1.005  1.00  0.00    -0.247 NA
HETATM   32  H   UNL     1      43.985 -15.794   1.376  1.00  0.00     0.143 HD
HETATM   33  H   UNL     1      42.957 -16.894   0.833  1.00  0.00     0.143 HD
ENDBRANCH  28  31
ENDBRANCH  22  27
ENDBRANCH   5  21
TORSDOF 3
ENDMDL
MODEL 8
REMARK VINA RESULT:      -8.3      2.406      2.612
REMARK  3 active torsions:
REMARK  status: ('A' for Active; 'I' for Inactive)
REMARK    1  A    between atoms: N_5  and  C_6 
REMARK    2  A    between atoms: C_7  and  C_8 
REMARK       I    between atoms: C_8  and  N_9 
REMARK    3  A    between atoms: N_9  and  N_10 
ROOT
HETATM    1  C   UNL     1      40.113 -14.099   6.054  1.00  0.00     0.056 C 
HETATM    2  C   UNL     1      40.868 -14.253   4.745  1.00  0.00     0.158 C 
HETATM    3  C   UNL     1      41.372 -15.679   4.513  1.00  0.00     0.267 C 
HETATM    4  O   UNL     1      40.642 -16.667   4.523  1.00  0.00    -0.269 OA
HETATM    5  N   UNL     1      42.693 -15.607   4.121  1.00  0.00    -0.230 N 
HETATM    6  C   UNL     1      43.107 -14.292   4.098  1.00  0.00     0.333 C 
HETATM    7  O   UNL     1      44.154 -13.850   3.645  1.00  0.00    -0.246 OA
HETATM    8  N   UNL     1      42.115 -13.504   4.692  1.00  0.00    -0.309 N 
HETATM    9  C   UNL     1      42.062 -12.056   4.459  1.00  0.00     0.134 C 
HETATM   10  C   UNL     1      41.390 -11.703   3.111  1.00  0.00     0.061 C 
HETATM   11  C   UNL     1      40.302 -12.680   2.783  1.00  0.00    -0.018 A 
HETATM   12  C   UNL     1      40.078 -13.817   3.540  1.00  0.00     0.055 A 
HETATM   13  N   UNL     1      39.103 -14.557   2.924  1.00  0.00    -0.356 N 
HETATM   14  H   UNL     1      38.773 -15.468   3.226  1.00  0.00     0.166 HD
HETATM   15  C   UNL     1      38.748 -13.955   1.736  1.00  0.00     0.043 A 
HETATM   16  C   UNL     1      39.460 -12.754   1.641  1.00  0.00    -0.001 A 
HETATM   17  C   UNL     1      37.878 -14.396   0.731  1.00  0.00     0.030 A 
HETATM   18  C   UNL     1      37.728 -13.586  -0.398  1.00  0.00     0.002 A 
HETATM   19  C   UNL     1      38.411 -12.377  -0.512  1.00  0.00     0.001 A 
HETATM   20  C   UNL     1      39.280 -11.950   0.499  1.00  0.00     0.014 A 
ENDROOT
BRANCH   5  21
HETATM   21  C   UNL     1      43.333 -16.687   3.460  1.00  0.00     0.063 A 
HETATM   22  C   UNL     1      43.821 -17.816   4.151  1.00  0.00     0.060 A 
HETATM   23  C   UNL     1      44.238 -18.954   3.441  1.00  0.00     0.019 A 
HETATM   24  C   UNL     1      44.218 -18.961   2.047  1.00  0.00     0.001 A 
HETATM   25  C   UNL     1      43.803 -17.828   1.356  1.00  0.00     0.002 A 
HETATM   26  C   UNL     1      43.370 -16.698   2.055  1.00  0.00     0.031 A 
BRANCH  22  27
HETATM   27  C   UNL     1      44.037 -17.848   5.622  1.00  0.00     0.268 C 
HETATM   28  N   UNL     1      42.904 -18.104   6.391  1.00  0.00    -0.290 N 
HETATM   29  H   UNL     1      41.979 -18.117   5.964  1.00  0.00     0.183 HD
HETATM   30  O   UNL     1      45.131 -17.572   6.108  1.00  0.00    -0.266 OA
BRANCH  28  31
HETATM   31  N   UNL     1      42.997 -18.042   7.797  1.00  0.00    -0.247 NA
HETATM   32  H   UNL     1      42.175 -17.519   8.125  1.00  0.00     0.143 HD
HETATM   33  H   UNL     1      43.767 -17.399   8.015  1.00  0.00     0.143 HD
ENDBRANCH  28  31
ENDBRANCH  22  27
ENDBRANCH   5  21
TORSDOF 3
ENDMDL
MODEL 9
REMARK VINA RESULT:      -8.3      3.180      6.160
REMARK  3 active torsions:
REMARK  status: ('A' for Active; 'I' for Inactive)
REMARK    1  A    between atoms: N_5  and  C_6 
REMARK    2  A    between atoms: C_7  and  C_8 
REMARK       I    between atoms: C_8  and  N_9 
REMARK    3  A    between atoms: N_9  and  N_10 
ROOT
HETATM    1  C   UNL     1      44.536 -14.637   6.419  1.00  0.00     0.056 C 
HETATM    2  C   UNL     1      43.266 -15.053   5.698  1.00  0.00     0.158 C 
HETATM    3  C   UNL     1      42.530 -13.873   5.060  1.00  0.00     0.267 C 
HETATM    4  O   UNL     1      43.052 -13.098   4.263  1.00  0.00    -0.269 OA
HETATM    5  N   UNL     1      41.194 -13.972   5.392  1.00  0.00    -0.230 N 
HETATM    6  C   UNL     1      40.989 -15.074   6.196  1.00  0.00     0.333 C 
HETATM    7  O   UNL     1      39.917 -15.556   6.538  1.00  0.00    -0.246 OA
HETATM    8  N   UNL     1      42.235 -15.582   6.579  1.00  0.00    -0.309 N 
HETATM    9  C   UNL     1      42.368 -16.955   7.080  1.00  0.00     0.134 C 
HETATM   10  C   UNL     1      42.411 -17.995   5.936  1.00  0.00     0.061 C 
HETATM   11  C   UNL     1      43.102 -17.436   4.730  1.00  0.00    -0.018 A 
HETATM   12  C   UNL     1      43.488 -16.110   4.649  1.00  0.00     0.055 A 
HETATM   13  N   UNL     1      43.982 -15.882   3.391  1.00  0.00    -0.356 N 
HETATM   14  H   UNL     1      44.289 -14.985   3.030  1.00  0.00     0.166 HD
HETATM   15  C   UNL     1      43.848 -17.023   2.629  1.00  0.00     0.043 A 
HETATM   16  C   UNL     1      43.331 -18.026   3.457  1.00  0.00    -0.001 A 
HETATM   17  C   UNL     1      44.114 -17.232   1.271  1.00  0.00     0.030 A 
HETATM   18  C   UNL     1      43.852 -18.501   0.745  1.00  0.00     0.002 A 
HETATM   19  C   UNL     1      43.354 -19.523   1.551  1.00  0.00     0.001 A 
HETATM   20  C   UNL     1      43.089 -19.299   2.907  1.00  0.00     0.014 A 
ENDROOT
BRANCH   5  21
HETATM   21  C   UNL     1      40.192 -13.285   4.660  1.00  0.00     0.063 A 
HETATM   22  C   UNL     1      39.517 -12.158   5.173  1.00  0.00     0.060 A 
HETATM   23  C   UNL     1      38.703 -11.378   4.335  1.00  0.00     0.019 A 
HETATM   24  C   UNL     1      38.518 -11.736   3.002  1.00  0.00     0.001 A 
HETATM   25  C   UNL     1      39.125 -12.884   2.503  1.00  0.00     0.002 A 
HETATM   26  C   UNL     1      39.950 -13.656   3.326  1.00  0.00     0.031 A 
BRANCH  22  27
HETATM   27  C   UNL     1      39.515 -11.789   6.615  1.00  0.00     0.268 C 
HETATM   28  N   UNL     1      39.053 -12.773   7.486  1.00  0.00    -0.290 N 
HETATM   29  H   UNL     1      38.614 -13.619   7.128  1.00  0.00     0.183 HD
HETATM   30  O   UNL     1      39.818 -10.656   6.980  1.00  0.00    -0.266 OA
BRANCH  28  31
HETATM   31  N   UNL     1      38.915 -12.468   8.857  1.00  0.00    -0.247 NA
HETATM   32  H   UNL     1      38.447 -13.274   9.292  1.00  0.00     0.143 HD
HETATM   33  H   UNL     1      38.200 -11.735   8.927  1.00  0.00     0.143 HD
ENDBRANCH  28  31
ENDBRANCH  22  27
ENDBRANCH   5  21
TORSDOF 3
ENDMDL
MODEL 10
REMARK VINA RESULT:      -7.9      2.900      6.192
REMARK  3 active torsions:
REMARK  status: ('A' for Active; 'I' for Inactive)
REMARK    1  A    between atoms: N_5  and  C_6 
REMARK    2  A    between atoms: C_7  and  C_8 
REMARK       I    between atoms: C_8  and  N_9 
REMARK    3  A    between atoms: N_9  and  N_10 
ROOT
HETATM    1  C   UNL     1      44.051 -13.629   4.991  1.00  0.00     0.056 C 
HETATM    2  C   UNL     1      42.845 -14.427   4.528  1.00  0.00     0.158 C 
HETATM    3  C   UNL     1      41.974 -13.663   3.529  1.00  0.00     0.267 C 
HETATM    4  O   UNL     1      42.401 -13.185   2.482  1.00  0.00    -0.269 OA
HETATM    5  N   UNL     1      40.658 -13.785   3.929  1.00  0.00    -0.230 N 
HETATM    6  C   UNL     1      40.585 -14.524   5.091  1.00  0.00     0.333 C 
HETATM    7  O   UNL     1      39.579 -14.964   5.630  1.00  0.00    -0.246 OA
HETATM    8  N   UNL     1      41.882 -14.706   5.584  1.00  0.00    -0.309 N 
HETATM    9  C   UNL     1      42.180 -15.768   6.551  1.00  0.00     0.134 C 
HETATM   10  C   UNL     1      42.356 -17.147   5.872  1.00  0.00     0.061 C 
HETATM   11  C   UNL     1      42.979 -17.001   4.517  1.00  0.00    -0.018 A 
HETATM   12  C   UNL     1      43.201 -15.765   3.936  1.00  0.00     0.055 A 
HETATM   13  N   UNL     1      43.670 -15.966   2.664  1.00  0.00    -0.356 N 
HETATM   14  H   UNL     1      43.866 -15.239   1.984  1.00  0.00     0.166 HD
HETATM   15  C   UNL     1      43.680 -17.316   2.385  1.00  0.00     0.043 A 
HETATM   16  C   UNL     1      43.286 -17.991   3.545  1.00  0.00    -0.001 A 
HETATM   17  C   UNL     1      43.977 -17.983   1.190  1.00  0.00     0.030 A 
HETATM   18  C   UNL     1      43.875 -19.377   1.182  1.00  0.00     0.002 A 
HETATM   19  C   UNL     1      43.502 -20.076   2.328  1.00  0.00     0.001 A 
HETATM   20  C   UNL     1      43.204 -19.396   3.515  1.00  0.00     0.014 A 
ENDROOT
BRANCH   5  21
HETATM   21  C   UNL     1      39.583 -13.540   3.036  1.00  0.00     0.063 A 
HETATM   22  C   UNL     1      38.933 -12.291   2.957  1.00  0.00     0.060 A 
HETATM   23  C   UNL     1      38.035 -12.026   1.910  1.00  0.00     0.019 A 
HETATM   24  C   UNL     1      37.742 -13.009   0.967  1.00  0.00     0.001 A 
HETATM   25  C   UNL     1      38.327 -14.267   1.075  1.00  0.00     0.002 A 
HETATM   26  C   UNL     1      39.234 -14.533   2.104  1.00  0.00     0.031 A 
BRANCH  22  27
HETATM   27  C   UNL     1      39.049 -11.238   4.002  1.00  0.00     0.268 C 
HETATM   28  N   UNL     1      39.985 -10.239   3.746  1.00  0.00    -0.290 N 
HETATM   29  H   UNL     1      40.635 -10.323   2.967  1.00  0.00     0.183 HD
HETATM   30  O   UNL     1      38.419 -11.316   5.054  1.00  0.00    -0.266 OA
BRANCH  28  31
HETATM   31  N   UNL     1      40.238  -9.264   4.733  1.00  0.00    -0.247 NA
HETATM   32  H   UNL     1      39.615  -8.471   4.531  1.00  0.00     0.143 HD
HETATM   33  H   UNL     1      41.164  -8.871   4.532  1.00  0.00     0.143 HD
ENDBRANCH  28  31
ENDBRANCH  22  27
ENDBRANCH   5  21
TORSDOF 3
ENDMDL
