MODEL 1
REMARK VINA RESULT:      -8.5      0.000      0.000
REMARK  5 active torsions:
REMARK  status: ('A' for Active; 'I' for Inactive)
REMARK    1  A    between atoms: C_8  and  C_9 
REMARK    2  A    between atoms: N_10  and  N_11 
REMARK       I    between atoms: N_11  and  C_12 
REMARK    3  A    between atoms: C_12  and  C_13 
REMARK    4  A    between atoms: C_13  and  N_14 
REMARK    5  A    between atoms: N_14  and  C_15 
ROOT
HETATM    1  N   UNL     1      42.521 -16.505   0.507  1.00  0.00    -0.246 N 
HETATM    2  C   UNL     1      41.561 -15.495   0.620  1.00  0.00     0.255 C 
HETATM    3  O   UNL     1      40.736 -15.395   1.525  1.00  0.00    -0.270 OA
HETATM    4  H   UNL     1      43.345 -16.305  -0.053  1.00  0.00     0.192 HD
ENDROOT
BRANCH   1   5
HETATM    5  N   UNL     1      42.730 -17.481   1.456  1.00  0.00    -0.184 NA
HETATM    6  C   UNL     1      43.715 -17.308   2.282  1.00  0.00     0.152 C 
BRANCH   6   7
HETATM    7  C   UNL     1      44.023 -18.329   3.262  1.00  0.00     0.011 A 
HETATM    8  C   UNL     1      44.173 -19.734   3.019  1.00  0.00     0.004 A 
HETATM    9  C   UNL     1      44.094 -20.548   1.869  1.00  0.00     0.014 A 
HETATM   10  C   UNL     1      44.453 -20.343   4.244  1.00  0.00     0.043 A 
HETATM   11  C   UNL     1      44.297 -21.928   1.982  1.00  0.00     0.001 A 
HETATM   12  C   UNL     1      44.574 -22.504   3.219  1.00  0.00     0.002 A 
HETATM   13  C   UNL     1      44.657 -21.722   4.375  1.00  0.00     0.030 A 
HETATM   14  N   UNL     1      44.473 -19.349   5.195  1.00  0.00    -0.364 N 
HETATM   15  H   UNL     1      44.647 -19.502   6.179  1.00  0.00     0.165 HD
HETATM   16  C   UNL     1      44.219 -18.136   4.617  1.00  0.00     0.102 A 
ENDBRANCH   6   7
ENDBRANCH   1   5
BRANCH   2  17
HETATM   17  C   UNL     1      41.648 -14.471  -0.513  1.00  0.00     0.224 C 
BRANCH  17  18
HETATM   18  N   UNL     1      41.412 -15.107  -1.811  1.00  0.00    -0.381 N 
HETATM   19  H   UNL     1      42.209 -15.122  -2.441  1.00  0.00     0.160 HD
BRANCH  18  20
HETATM   20  C   UNL     1      40.178 -15.010  -2.448  1.00  0.00     0.028 A 
HETATM   21  C   UNL     1      39.891 -15.905  -3.491  1.00  0.00     0.032 A 
HETATM   22  C   UNL     1      38.642 -15.918  -4.117  1.00  0.00     0.044 A 
HETATM   23  C   UNL     1      37.654 -15.046  -3.685  1.00  0.00     0.116 A 
HETATM   24  F   UNL     1      36.451 -15.062  -4.274  1.00  0.00    -0.206 F 
HETATM   25  C   UNL     1      37.895 -14.170  -2.637  1.00  0.00     0.044 A 
HETATM   26  C   UNL     1      39.148 -14.161  -2.017  1.00  0.00     0.032 A 
ENDBRANCH  18  20
ENDBRANCH  17  18
ENDBRANCH   2  17
TORSDOF 5
ENDMDL
MODEL 2
REMARK VINA RESULT:      -8.3      8.355     11.088
REMARK  5 active torsions:
REMARK  status: ('A' for Active; 'I' for Inactive)
REMARK    1  A    between atoms: C_8  and  C_9 
REMARK    2  A    between atoms: N_10  and  N_11 
REMARK       I    between atoms: N_11  and  C_12 
REMARK    3  A    between atoms: C_12  and  C_13 
REMARK    4  A    between atoms: C_13  and  N_14 
REMARK    5  A    between atoms: N_14  and  C_15 
ROOT
HETATM    1  N   UNL     1      43.972 -13.442   7.934  1.00  0.00    -0.246 N 
HETATM    2  C   UNL     1      44.654 -12.631   8.846  1.00  0.00     0.255 C 
HETATM    3  O   UNL     1      45.720 -12.912   9.390  1.00  0.00    -0.270 OA
HETATM    4  H   UNL     1      43.319 -12.987   7.302  1.00  0.00     0.192 HD
ENDROOT
BRANCH   1   5
HETATM    5  N   UNL     1      44.457 -14.636   7.450  1.00  0.00    -0.184 NA
HETATM    6  C   UNL     1      43.658 -15.352   6.720  1.00  0.00     0.152 C 
BRANCH   6   7
HETATM    7  C   UNL     1      44.089 -16.647   6.234  1.00  0.00     0.011 A 
HETATM    8  C   UNL     1      43.706 -17.271   5.002  1.00  0.00     0.004 A 
HETATM    9  C   UNL     1      42.872 -16.897   3.927  1.00  0.00     0.014 A 
HETATM   10  C   UNL     1      44.345 -18.512   4.945  1.00  0.00     0.043 A 
HETATM   11  C   UNL     1      42.708 -17.768   2.844  1.00  0.00     0.001 A 
HETATM   12  C   UNL     1      43.359 -18.998   2.818  1.00  0.00     0.002 A 
HETATM   13  C   UNL     1      44.191 -19.395   3.870  1.00  0.00     0.030 A 
HETATM   14  N   UNL     1      45.087 -18.638   6.097  1.00  0.00    -0.364 N 
HETATM   15  H   UNL     1      45.651 -19.443   6.329  1.00  0.00     0.165 HD
HETATM   16  C   UNL     1      44.943 -17.523   6.877  1.00  0.00     0.102 A 
ENDBRANCH   6   7
ENDBRANCH   1   5
BRANCH   2  17
HETATM   17  C   UNL     1      43.942 -11.301   9.099  1.00  0.00     0.224 C 
BRANCH  17  18
HETATM   18  N   UNL     1      42.784 -11.486   9.977  1.00  0.00    -0.381 N 
HETATM   19  H   UNL     1      41.884 -11.526   9.509  1.00  0.00     0.160 HD
BRANCH  18  20
HETATM   20  C   UNL     1      42.747 -10.921  11.249  1.00  0.00     0.028 A 
HETATM   21  C   UNL     1      41.734 -11.329  12.132  1.00  0.00     0.032 A 
HETATM   22  C   UNL     1      41.686 -10.865  13.450  1.00  0.00     0.044 A 
HETATM   23  C   UNL     1      42.673 -10.004  13.905  1.00  0.00     0.116 A 
HETATM   24  F   UNL     1      42.639  -9.565  15.169  1.00  0.00    -0.206 F 
HETATM   25  C   UNL     1      43.704  -9.606  13.068  1.00  0.00     0.044 A 
HETATM   26  C   UNL     1      43.744 -10.072  11.749  1.00  0.00     0.032 A 
ENDBRANCH  18  20
ENDBRANCH  17  18
ENDBRANCH   2  17
TORSDOF 5
ENDMDL
MODEL 3
REMARK VINA RESULT:      -8.3      1.706      1.917
REMARK  5 active torsions:
REMARK  status: ('A' for Active; 'I' for Inactive)
REMARK    1  A    between atoms: C_8  and  C_9 
REMARK    2  A    between atoms: N_10  and  N_11 
REMARK       I    between atoms: N_11  and  C_12 
REMARK    3  A    between atoms: C_12  and  C_13 
REMARK    4  A    between atoms: C_13  and  N_14 
REMARK    5  A    between atoms: N_14  and  C_15 
ROOT
HETATM    1  N   UNL     1      39.899 -16.155   1.686  1.00  0.00    -0.246 N 
HETATM    2  C   UNL     1      39.433 -14.887   2.046  1.00  0.00     0.255 C 
HETATM    3  O   UNL     1      39.606 -14.347   3.136  1.00  0.00    -0.270 OA
HETATM    4  H   UNL     1      40.007 -16.349   0.695  1.00  0.00     0.192 HD
ENDROOT
BRANCH   1   5
HETATM    5  N   UNL     1      40.700 -16.938   2.487  1.00  0.00    -0.184 NA
HETATM    6  C   UNL     1      41.976 -16.706   2.461  1.00  0.00     0.152 C 
BRANCH   6   7
HETATM    7  C   UNL     1      42.877 -17.536   3.233  1.00  0.00     0.011 A 
HETATM    8  C   UNL     1      43.313 -18.862   2.907  1.00  0.00     0.004 A 
HETATM    9  C   UNL     1      43.063 -19.745   1.835  1.00  0.00     0.014 A 
HETATM   10  C   UNL     1      44.162 -19.287   3.932  1.00  0.00     0.043 A 
HETATM   11  C   UNL     1      43.665 -21.008   1.824  1.00  0.00     0.001 A 
HETATM   12  C   UNL     1      44.506 -21.401   2.861  1.00  0.00     0.002 A 
HETATM   13  C   UNL     1      44.771 -20.548   3.937  1.00  0.00     0.030 A 
HETATM   14  N   UNL     1      44.239 -18.261   4.845  1.00  0.00    -0.364 N 
HETATM   15  H   UNL     1      44.782 -18.294   5.697  1.00  0.00     0.165 HD
HETATM   16  C   UNL     1      43.474 -17.204   4.435  1.00  0.00     0.102 A 
ENDBRANCH   6   7
ENDBRANCH   1   5
BRANCH   2  17
HETATM   17  C   UNL     1      38.681 -14.192   0.909  1.00  0.00     0.224 C 
BRANCH  17  18
HETATM   18  N   UNL     1      39.593 -13.840  -0.183  1.00  0.00    -0.381 N 
HETATM   19  H   UNL     1      39.922 -12.879  -0.183  1.00  0.00     0.160 HD
BRANCH  18  20
HETATM   20  C   UNL     1      39.451 -14.400  -1.449  1.00  0.00     0.028 A 
HETATM   21  C   UNL     1      40.477 -15.229  -1.932  1.00  0.00     0.032 A 
HETATM   22  C   UNL     1      40.363 -15.890  -3.158  1.00  0.00     0.044 A 
HETATM   23  C   UNL     1      39.203 -15.746  -3.904  1.00  0.00     0.116 A 
HETATM   24  F   UNL     1      39.083 -16.386  -5.075  1.00  0.00    -0.206 F 
HETATM   25  C   UNL     1      38.159 -14.960  -3.442  1.00  0.00     0.044 A 
HETATM   26  C   UNL     1      38.281 -14.299  -2.215  1.00  0.00     0.032 A 
ENDBRANCH  18  20
ENDBRANCH  17  18
ENDBRANCH   2  17
TORSDOF 5
ENDMDL
MODEL 4
REMARK VINA RESULT:      -8.2      2.875      3.547
REMARK  5 active torsions:
REMARK  status: ('A' for Active; 'I' for Inactive)
REMARK    1  A    between atoms: C_8  and  C_9 
REMARK    2  A    between atoms: N_10  and  N_11 
REMARK       I    between atoms: N_11  and  C_12 
REMARK    3  A    between atoms: C_12  and  C_13 
REMARK    4  A    between atoms: C_13  and  N_14 
REMARK    5  A    between atoms: N_14  and  C_15 
ROOT
HETATM    1  N   UNL     1      41.916 -16.284  -0.076  1.00  0.00    -0.246 N 
HETATM    2  C   UNL     1      41.032 -15.210  -0.219  1.00  0.00     0.255 C 
HETATM    3  O   UNL     1      40.454 -14.636   0.701  1.00  0.00    -0.270 OA
HETATM    4  H   UNL     1      42.583 -16.444  -0.826  1.00  0.00     0.192 HD
ENDROOT
BRANCH   1   5
HETATM    5  N   UNL     1      42.330 -16.786   1.138  1.00  0.00    -0.184 NA
HETATM    6  C   UNL     1      43.256 -17.695   1.123  1.00  0.00     0.152 C 
BRANCH   6   7
HETATM    7  C   UNL     1      43.689 -18.305   2.363  1.00  0.00     0.011 A 
HETATM    8  C   UNL     1      43.969 -19.693   2.583  1.00  0.00     0.004 A 
HETATM    9  C   UNL     1      43.941 -20.845   1.768  1.00  0.00     0.014 A 
HETATM   10  C   UNL     1      44.341 -19.838   3.921  1.00  0.00     0.043 A 
HETATM   11  C   UNL     1      44.281 -22.088   2.313  1.00  0.00     0.001 A 
HETATM   12  C   UNL     1      44.647 -22.198   3.652  1.00  0.00     0.002 A 
HETATM   13  C   UNL     1      44.683 -21.074   4.483  1.00  0.00     0.030 A 
HETATM   14  N   UNL     1      44.287 -18.588   4.493  1.00  0.00    -0.364 N 
HETATM   15  H   UNL     1      44.502 -18.393   5.462  1.00  0.00     0.165 HD
HETATM   16  C   UNL     1      43.900 -17.660   3.567  1.00  0.00     0.102 A 
ENDBRANCH   6   7
ENDBRANCH   1   5
BRANCH   2  17
HETATM   17  C   UNL     1      40.861 -14.780  -1.677  1.00  0.00     0.224 C 
BRANCH  17  18
HETATM   18  N   UNL     1      42.110 -14.231  -2.210  1.00  0.00    -0.381 N 
HETATM   19  H   UNL     1      42.955 -14.725  -1.937  1.00  0.00     0.160 HD
BRANCH  18  20
HETATM   20  C   UNL     1      42.277 -12.860  -2.388  1.00  0.00     0.028 A 
HETATM   21  C   UNL     1      42.746 -12.098  -1.306  1.00  0.00     0.032 A 
HETATM   22  C   UNL     1      43.015 -10.733  -1.440  1.00  0.00     0.044 A 
HETATM   23  C   UNL     1      42.839 -10.121  -2.672  1.00  0.00     0.116 A 
HETATM   24  F   UNL     1      43.106  -8.816  -2.808  1.00  0.00    -0.206 F 
HETATM   25  C   UNL     1      42.405 -10.851  -3.768  1.00  0.00     0.044 A 
HETATM   26  C   UNL     1      42.136 -12.217  -3.626  1.00  0.00     0.032 A 
ENDBRANCH  18  20
ENDBRANCH  17  18
ENDBRANCH   2  17
TORSDOF 5
ENDMDL
MODEL 5
REMARK VINA RESULT:      -8.2      7.383      9.961
REMARK  5 active torsions:
REMARK  status: ('A' for Active; 'I' for Inactive)
REMARK    1  A    between atoms: C_8  and  C_9 
REMARK    2  A    between atoms: N_10  and  N_11 
REMARK       I    between atoms: N_11  and  C_12 
REMARK    3  A    between atoms: C_12  and  C_13 
REMARK    4  A    between atoms: C_13  and  N_14 
REMARK    5  A    between atoms: N_14  and  C_15 
ROOT
HETATM    1  N   UNL     1      43.607 -14.397   7.054  1.00  0.00    -0.246 N 
HETATM    2  C   UNL     1      44.792 -13.696   7.297  1.00  0.00     0.255 C 
HETATM    3  O   UNL     1      45.766 -13.665   6.550  1.00  0.00    -0.270 OA
HETATM    4  H   UNL     1      42.770 -14.083   7.537  1.00  0.00     0.192 HD
ENDROOT
BRANCH   1   5
HETATM    5  N   UNL     1      43.340 -15.079   5.888  1.00  0.00    -0.184 NA
HETATM    6  C   UNL     1      43.457 -16.371   5.911  1.00  0.00     0.152 C 
BRANCH   6   7
HETATM    7  C   UNL     1      43.250 -17.137   4.700  1.00  0.00     0.011 A 
HETATM    8  C   UNL     1      43.841 -18.401   4.374  1.00  0.00     0.004 A 
HETATM    9  C   UNL     1      44.734 -19.271   5.036  1.00  0.00     0.014 A 
HETATM   10  C   UNL     1      43.376 -18.767   3.109  1.00  0.00     0.043 A 
HETATM   11  C   UNL     1      45.124 -20.465   4.418  1.00  0.00     0.001 A 
HETATM   12  C   UNL     1      44.641 -20.799   3.156  1.00  0.00     0.002 A 
HETATM   13  C   UNL     1      43.758 -19.956   2.476  1.00  0.00     0.030 A 
HETATM   14  N   UNL     1      42.535 -17.765   2.682  1.00  0.00    -0.364 N 
HETATM   15  H   UNL     1      42.056 -17.761   1.792  1.00  0.00     0.165 HD
HETATM   16  C   UNL     1      42.450 -16.783   3.630  1.00  0.00     0.102 A 
ENDBRANCH   6   7
ENDBRANCH   1   5
BRANCH   2  17
HETATM   17  C   UNL     1      44.756 -12.921   8.616  1.00  0.00     0.224 C 
BRANCH  17  18
HETATM   18  N   UNL     1      43.621 -11.996   8.648  1.00  0.00    -0.381 N 
HETATM   19  H   UNL     1      43.311 -11.655   7.743  1.00  0.00     0.160 HD
BRANCH  18  20
HETATM   20  C   UNL     1      43.460 -11.089   9.691  1.00  0.00     0.028 A 
HETATM   21  C   UNL     1      42.365 -10.210   9.650  1.00  0.00     0.032 A 
HETATM   22  C   UNL     1      42.096  -9.331  10.703  1.00  0.00     0.044 A 
HETATM   23  C   UNL     1      42.912  -9.342  11.824  1.00  0.00     0.116 A 
HETATM   24  F   UNL     1      42.653  -8.510  12.841  1.00  0.00    -0.206 F 
HETATM   25  C   UNL     1      43.983 -10.218  11.910  1.00  0.00     0.044 A 
HETATM   26  C   UNL     1      44.248 -11.093  10.851  1.00  0.00     0.032 A 
ENDBRANCH  18  20
ENDBRANCH  17  18
ENDBRANCH   2  17
TORSDOF 5
ENDMDL
MODEL 6
REMARK VINA RESULT:      -8.0      2.181      2.645
REMARK  5 active torsions:
REMARK  status: ('A' for Active; 'I' for Inactive)
REMARK    1  A    between atoms: C_8  and  C_9 
REMARK    2  A    between atoms: N_10  and  N_11 
REMARK       I    between atoms: N_11  and  C_12 
REMARK    3  A    between atoms: C_12  and  C_13 
REMARK    4  A    between atoms: C_13  and  N_14 
REMARK    5  A    between atoms: N_14  and  C_15 
ROOT
HETATM    1  N   UNL     1      40.328 -16.333   1.636  1.00  0.00    -0.246 N 
HETATM    2  C   UNL     1      39.878 -15.051   1.966  1.00  0.00     0.255 C 
HETATM    3  O   UNL     1      40.001 -14.514   3.064  1.00  0.00    -0.270 OA
HETATM    4  H   UNL     1      40.490 -16.532   0.652  1.00  0.00     0.192 HD
ENDROOT
BRANCH   1   5
HETATM    5  N   UNL     1      41.058 -17.136   2.483  1.00  0.00    -0.184 NA
HETATM    6  C   UNL     1      42.346 -17.152   2.327  1.00  0.00     0.152 C 
BRANCH   6   7
HETATM    7  C   UNL     1      43.161 -18.025   3.146  1.00  0.00     0.011 A 
HETATM    8  C   UNL     1      43.512 -19.385   2.864  1.00  0.00     0.004 A 
HETATM    9  C   UNL     1      43.234 -20.274   1.804  1.00  0.00     0.014 A 
HETATM   10  C   UNL     1      44.297 -19.844   3.925  1.00  0.00     0.043 A 
HETATM   11  C   UNL     1      43.745 -21.576   1.840  1.00  0.00     0.001 A 
HETATM   12  C   UNL     1      44.524 -22.002   2.913  1.00  0.00     0.002 A 
HETATM   13  C   UNL     1      44.815 -21.143   3.978  1.00  0.00     0.030 A 
HETATM   14  N   UNL     1      44.418 -18.804   4.817  1.00  0.00    -0.364 N 
HETATM   15  H   UNL     1      44.931 -18.853   5.687  1.00  0.00     0.165 HD
HETATM   16  C   UNL     1      43.743 -17.706   4.359  1.00  0.00     0.102 A 
ENDBRANCH   6   7
ENDBRANCH   1   5
BRANCH   2  17
HETATM   17  C   UNL     1      39.215 -14.337   0.785  1.00  0.00     0.224 C 
BRANCH  17  18
HETATM   18  N   UNL     1      39.650 -14.919  -0.487  1.00  0.00    -0.381 N 
HETATM   19  H   UNL     1      39.792 -15.925  -0.481  1.00  0.00     0.160 HD
BRANCH  18  20
HETATM   20  C   UNL     1      40.496 -14.223  -1.345  1.00  0.00     0.028 A 
HETATM   21  C   UNL     1      40.116 -14.082  -2.690  1.00  0.00     0.032 A 
HETATM   22  C   UNL     1      40.876 -13.326  -3.587  1.00  0.00     0.044 A 
HETATM   23  C   UNL     1      42.017 -12.679  -3.136  1.00  0.00     0.116 A 
HETATM   24  F   UNL     1      42.743 -11.944  -3.988  1.00  0.00    -0.206 F 
HETATM   25  C   UNL     1      42.403 -12.773  -1.807  1.00  0.00     0.044 A 
HETATM   26  C   UNL     1      41.639 -13.534  -0.916  1.00  0.00     0.032 A 
ENDBRANCH  18  20
ENDBRANCH  17  18
ENDBRANCH   2  17
TORSDOF 5
ENDMDL
MODEL 7
REMARK VINA RESULT:      -7.8      3.381      3.913
REMARK  5 active torsions:
REMARK  status: ('A' for Active; 'I' for Inactive)
REMARK    1  A    between atoms: C_8  and  C_9 
REMARK    2  A    between atoms: N_10  and  N_11 
REMARK       I    between atoms: N_11  and  C_12 
REMARK    3  A    between atoms: C_12  and  C_13 
REMARK    4  A    between atoms: C_13  and  N_14 
REMARK    5  A    between atoms: N_14  and  C_15 
ROOT
HETATM    1  N   UNL     1      41.912 -15.296   2.590  1.00  0.00    -0.246 N 
HETATM    2  C   UNL     1      42.428 -14.014   2.375  1.00  0.00     0.255 C 
HETATM    3  O   UNL     1      43.428 -13.550   2.917  1.00  0.00    -0.270 OA
HETATM    4  H   UNL     1      41.323 -15.690   1.862  1.00  0.00     0.192 HD
ENDROOT
BRANCH   1   5
HETATM    5  N   UNL     1      42.516 -16.249   3.379  1.00  0.00    -0.184 NA
HETATM    6  C   UNL     1      43.177 -17.189   2.777  1.00  0.00     0.152 C 
BRANCH   6   7
HETATM    7  C   UNL     1      43.783 -18.254   3.549  1.00  0.00     0.011 A 
HETATM    8  C   UNL     1      43.946 -19.620   3.146  1.00  0.00     0.004 A 
HETATM    9  C   UNL     1      43.624 -20.347   1.980  1.00  0.00     0.014 A 
HETATM   10  C   UNL     1      44.563 -20.297   4.200  1.00  0.00     0.043 A 
HETATM   11  C   UNL     1      43.929 -21.711   1.909  1.00  0.00     0.001 A 
HETATM   12  C   UNL     1      44.544 -22.356   2.978  1.00  0.00     0.002 A 
HETATM   13  C   UNL     1      44.873 -21.661   4.146  1.00  0.00     0.030 A 
HETATM   14  N   UNL     1      44.767 -19.380   5.205  1.00  0.00    -0.364 N 
HETATM   15  H   UNL     1      45.194 -19.594   6.096  1.00  0.00     0.165 HD
HETATM   16  C   UNL     1      44.304 -18.150   4.825  1.00  0.00     0.102 A 
ENDBRANCH   6   7
ENDBRANCH   1   5
BRANCH   2  17
HETATM   17  C   UNL     1      41.622 -13.219   1.346  1.00  0.00     0.224 C 
BRANCH  17  18
HETATM   18  N   UNL     1      42.251 -11.924   1.076  1.00  0.00    -0.381 N 
HETATM   19  H   UNL     1      42.110 -11.214   1.789  1.00  0.00     0.160 HD
BRANCH  18  20
HETATM   20  C   UNL     1      42.350 -11.427  -0.220  1.00  0.00     0.028 A 
HETATM   21  C   UNL     1      42.889 -10.144  -0.405  1.00  0.00     0.032 A 
HETATM   22  C   UNL     1      43.093  -9.617  -1.683  1.00  0.00     0.044 A 
HETATM   23  C   UNL     1      42.781 -10.385  -2.794  1.00  0.00     0.116 A 
HETATM   24  F   UNL     1      42.984  -9.889  -4.022  1.00  0.00    -0.206 F 
HETATM   25  C   UNL     1      42.274 -11.667  -2.647  1.00  0.00     0.044 A 
HETATM   26  C   UNL     1      42.070 -12.187  -1.365  1.00  0.00     0.032 A 
ENDBRANCH  18  20
ENDBRANCH  17  18
ENDBRANCH   2  17
TORSDOF 5
ENDMDL
MODEL 8
REMARK VINA RESULT:      -7.7      3.446      8.342
REMARK  5 active torsions:
REMARK  status: ('A' for Active; 'I' for Inactive)
REMARK    1  A    between atoms: C_8  and  C_9 
REMARK    2  A    between atoms: N_10  and  N_11 
REMARK       I    between atoms: N_11  and  C_12 
REMARK    3  A    between atoms: C_12  and  C_13 
REMARK    4  A    between atoms: C_13  and  N_14 
REMARK    5  A    between atoms: N_14  and  C_15 
ROOT
HETATM    1  N   UNL     1      41.986 -17.918   4.867  1.00  0.00    -0.246 N 
HETATM    2  C   UNL     1      43.071 -17.766   5.735  1.00  0.00     0.255 C 
HETATM    3  O   UNL     1      43.586 -16.697   6.051  1.00  0.00    -0.270 OA
HETATM    4  H   UNL     1      41.437 -18.769   4.949  1.00  0.00     0.192 HD
ENDROOT
BRANCH   1   5
HETATM    5  N   UNL     1      41.286 -16.867   4.317  1.00  0.00    -0.184 NA
HETATM    6  C   UNL     1      41.170 -16.839   3.025  1.00  0.00     0.152 C 
BRANCH   6   7
HETATM    7  C   UNL     1      40.498 -15.728   2.384  1.00  0.00     0.011 A 
HETATM    8  C   UNL     1      40.552 -15.379   0.995  1.00  0.00     0.004 A 
HETATM    9  C   UNL     1      41.197 -15.928  -0.133  1.00  0.00     0.014 A 
HETATM   10  C   UNL     1      39.769 -14.235   0.820  1.00  0.00     0.043 A 
HETATM   11  C   UNL     1      41.038 -15.322  -1.385  1.00  0.00     0.001 A 
HETATM   12  C   UNL     1      40.250 -14.182  -1.525  1.00  0.00     0.002 A 
HETATM   13  C   UNL     1      39.601 -13.616  -0.424  1.00  0.00     0.030 A 
HETATM   14  N   UNL     1      39.259 -13.901   2.054  1.00  0.00    -0.364 N 
HETATM   15  H   UNL     1      38.658 -13.108   2.229  1.00  0.00     0.165 HD
HETATM   16  C   UNL     1      39.688 -14.791   3.000  1.00  0.00     0.102 A 
ENDBRANCH   6   7
ENDBRANCH   1   5
BRANCH   2  17
HETATM   17  C   UNL     1      43.565 -19.101   6.298  1.00  0.00     0.224 C 
BRANCH  17  18
HETATM   18  N   UNL     1      44.746 -19.570   5.570  1.00  0.00    -0.381 N 
HETATM   19  H   UNL     1      45.560 -18.964   5.622  1.00  0.00     0.160 HD
BRANCH  18  20
HETATM   20  C   UNL     1      44.624 -20.268   4.372  1.00  0.00     0.028 A 
HETATM   21  C   UNL     1      44.730 -21.668   4.399  1.00  0.00     0.032 A 
HETATM   22  C   UNL     1      44.535 -22.436   3.248  1.00  0.00     0.044 A 
HETATM   23  C   UNL     1      44.205 -21.807   2.058  1.00  0.00     0.116 A 
HETATM   24  F   UNL     1      44.005 -22.539   0.954  1.00  0.00    -0.206 F 
HETATM   25  C   UNL     1      44.062 -20.429   2.003  1.00  0.00     0.044 A 
HETATM   26  C   UNL     1      44.262 -19.666   3.158  1.00  0.00     0.032 A 
ENDBRANCH  18  20
ENDBRANCH  17  18
ENDBRANCH   2  17
TORSDOF 5
ENDMDL
MODEL 9
REMARK VINA RESULT:      -7.6      4.163      8.752
REMARK  5 active torsions:
REMARK  status: ('A' for Active; 'I' for Inactive)
REMARK    1  A    between atoms: C_8  and  C_9 
REMARK    2  A    between atoms: N_10  and  N_11 
REMARK       I    between atoms: N_11  and  C_12 
REMARK    3  A    between atoms: C_12  and  C_13 
REMARK    4  A    between atoms: C_13  and  N_14 
REMARK    5  A    between atoms: N_14  and  C_15 
ROOT
HETATM    1  N   UNL     1      41.923 -17.150   5.382  1.00  0.00    -0.246 N 
HETATM    2  C   UNL     1      43.212 -17.293   5.904  1.00  0.00     0.255 C 
HETATM    3  O   UNL     1      43.984 -16.371   6.157  1.00  0.00    -0.270 OA
HETATM    4  H   UNL     1      41.268 -17.911   5.540  1.00  0.00     0.192 HD
ENDROOT
BRANCH   1   5
HETATM    5  N   UNL     1      41.309 -15.937   5.164  1.00  0.00    -0.184 NA
HETATM    6  C   UNL     1      41.011 -15.631   3.939  1.00  0.00     0.152 C 
BRANCH   6   7
HETATM    7  C   UNL     1      40.420 -14.343   3.640  1.00  0.00     0.011 A 
HETATM    8  C   UNL     1      39.426 -14.067   2.645  1.00  0.00     0.004 A 
HETATM    9  C   UNL     1      38.728 -14.854   1.705  1.00  0.00     0.014 A 
HETATM   10  C   UNL     1      39.157 -12.697   2.692  1.00  0.00     0.043 A 
HETATM   11  C   UNL     1      37.794 -14.251   0.854  1.00  0.00     0.001 A 
HETATM   12  C   UNL     1      37.550 -12.882   0.927  1.00  0.00     0.002 A 
HETATM   13  C   UNL     1      38.228 -12.078   1.848  1.00  0.00     0.030 A 
HETATM   14  N   UNL     1      39.957 -12.161   3.675  1.00  0.00    -0.364 N 
HETATM   15  H   UNL     1      39.977 -11.182   3.926  1.00  0.00     0.165 HD
HETATM   16  C   UNL     1      40.718 -13.140   4.252  1.00  0.00     0.102 A 
ENDBRANCH   6   7
ENDBRANCH   1   5
BRANCH   2  17
HETATM   17  C   UNL     1      43.581 -18.754   6.169  1.00  0.00     0.224 C 
BRANCH  17  18
HETATM   18  N   UNL     1      44.661 -19.190   5.279  1.00  0.00    -0.381 N 
HETATM   19  H   UNL     1      45.381 -18.497   5.097  1.00  0.00     0.160 HD
BRANCH  18  20
HETATM   20  C   UNL     1      44.415 -20.057   4.219  1.00  0.00     0.028 A 
HETATM   21  C   UNL     1      43.911 -19.524   3.021  1.00  0.00     0.032 A 
HETATM   22  C   UNL     1      43.720 -20.324   1.891  1.00  0.00     0.044 A 
HETATM   23  C   UNL     1      44.058 -21.668   1.943  1.00  0.00     0.116 A 
HETATM   24  F   UNL     1      43.887 -22.437   0.860  1.00  0.00    -0.206 F 
HETATM   25  C   UNL     1      44.586 -22.219   3.101  1.00  0.00     0.044 A 
HETATM   26  C   UNL     1      44.772 -21.414   4.229  1.00  0.00     0.032 A 
ENDBRANCH  18  20
ENDBRANCH  17  18
ENDBRANCH   2  17
TORSDOF 5
ENDMDL
MODEL 10
REMARK VINA RESULT:      -7.5      3.442      8.986
REMARK  5 active torsions:
REMARK  status: ('A' for Active; 'I' for Inactive)
REMARK    1  A    between atoms: C_8  and  C_9 
REMARK    2  A    between atoms: N_10  and  N_11 
REMARK       I    between atoms: N_11  and  C_12 
REMARK    3  A    between atoms: C_12  and  C_13 
REMARK    4  A    between atoms: C_13  and  N_14 
REMARK    5  A    between atoms: N_14  and  C_15 
ROOT
HETATM    1  N   UNL     1      41.103 -16.088   1.429  1.00  0.00    -0.246 N 
HETATM    2  C   UNL     1      42.069 -15.758   2.384  1.00  0.00     0.255 C 
HETATM    3  O   UNL     1      42.784 -14.759   2.358  1.00  0.00    -0.270 OA
HETATM    4  H   UNL     1      40.357 -16.715   1.717  1.00  0.00     0.192 HD
ENDROOT
BRANCH   1   5
HETATM    5  N   UNL     1      40.759 -15.280   0.368  1.00  0.00    -0.184 NA
HETATM    6  C   UNL     1      41.195 -15.619  -0.806  1.00  0.00     0.152 C 
BRANCH   6   7
HETATM    7  C   UNL     1      40.918 -14.775  -1.950  1.00  0.00     0.011 A 
HETATM    8  C   UNL     1      41.514 -13.506  -2.244  1.00  0.00     0.004 A 
HETATM    9  C   UNL     1      42.486 -12.704  -1.608  1.00  0.00     0.014 A 
HETATM   10  C   UNL     1      40.947 -13.042  -3.433  1.00  0.00     0.043 A 
HETATM   11  C   UNL     1      42.853 -11.479  -2.177  1.00  0.00     0.001 A 
HETATM   12  C   UNL     1      42.267 -11.045  -3.364  1.00  0.00     0.002 A 
HETATM   13  C   UNL     1      41.301 -11.819  -4.015  1.00  0.00     0.030 A 
HETATM   14  N   UNL     1      40.040 -13.991  -3.846  1.00  0.00    -0.364 N 
HETATM   15  H   UNL     1      39.474 -13.916  -4.679  1.00  0.00     0.165 HD
HETATM   16  C   UNL     1      40.016 -15.037  -2.965  1.00  0.00     0.102 A 
ENDBRANCH   6   7
ENDBRANCH   1   5
BRANCH   2  17
HETATM   17  C   UNL     1      42.144 -16.777   3.522  1.00  0.00     0.224 C 
BRANCH  17  18
HETATM   18  N   UNL     1      43.500 -17.316   3.653  1.00  0.00    -0.381 N 
HETATM   19  H   UNL     1      44.247 -16.688   3.371  1.00  0.00     0.160 HD
BRANCH  18  20
HETATM   20  C   UNL     1      43.765 -18.664   3.430  1.00  0.00     0.028 A 
HETATM   21  C   UNL     1      43.391 -19.223   2.196  1.00  0.00     0.032 A 
HETATM   22  C   UNL     1      43.701 -20.547   1.873  1.00  0.00     0.044 A 
HETATM   23  C   UNL     1      44.414 -21.319   2.777  1.00  0.00     0.116 A 
HETATM   24  F   UNL     1      44.723 -22.585   2.468  1.00  0.00    -0.206 F 
HETATM   25  C   UNL     1      44.824 -20.789   3.991  1.00  0.00     0.044 A 
HETATM   26  C   UNL     1      44.508 -19.464   4.309  1.00  0.00     0.032 A 
ENDBRANCH  18  20
ENDBRANCH  17  18
ENDBRANCH   2  17
TORSDOF 5
ENDMDL
