MODEL 1
REMARK VINA RESULT:      -8.3      0.000      0.000
REMARK  3 active torsions:
REMARK  status: ('A' for Active; 'I' for Inactive)
REMARK    1  A    between atoms: C_3  and  N_4 
REMARK       I    between atoms: N_4  and  C_5 
REMARK    2  A    between atoms: C_5  and  C_6 
REMARK    3  A    between atoms: C_6  and  C_7 
ROOT
HETATM    1  C   UNL     1      42.199 -16.931   4.591  1.00  0.00     0.286 C 
HETATM    2  N   UNL     1      42.007 -17.299   3.113  1.00  0.00    -0.056 N 
HETATM    3  H   UNL     1      42.863 -17.759   2.757  1.00  0.00     0.278 HD
HETATM    4  H   UNL     1      41.275 -18.019   3.033  1.00  0.00     0.278 HD
HETATM    5  C   UNL     1      41.653 -16.085   2.308  1.00  0.00     0.209 C 
HETATM    6  C   UNL     1      40.298 -15.559   2.831  1.00  0.00     0.115 C 
HETATM    7  N   UNL     1      40.337 -15.306   4.271  1.00  0.00    -0.353 N 
HETATM    8  C   UNL     1      41.006 -16.127   5.155  1.00  0.00     0.249 C 
HETATM    9  O   UNL     1      40.706 -16.129   6.343  1.00  0.00    -0.271 OA
HETATM   10  C   UNL     1      41.591 -16.428   0.827  1.00  0.00     0.035 C 
HETATM   11  C   UNL     1      41.174 -15.192   0.031  1.00  0.00     0.002 C 
HETATM   12  C   UNL     1      39.851 -14.609   0.534  1.00  0.00     0.002 C 
HETATM   13  C   UNL     1      39.869 -14.324   2.038  1.00  0.00     0.027 C 
HETATM   14  H   UNL     1      39.540 -14.834   4.697  1.00  0.00     0.163 HD
ENDROOT
BRANCH   1  15
HETATM   15  C   UNL     1      42.462 -18.193   5.404  1.00  0.00     0.146 C 
BRANCH  15  16
HETATM   16  C   UNL     1      43.943 -18.290   5.615  1.00  0.00     0.224 C 
HETATM   17  N   UNL     1      44.748 -19.168   4.973  1.00  0.00    -0.325 N 
HETATM   18  H   UNL     1      45.675 -19.211   5.401  1.00  0.00     0.169 HD
HETATM   19  O   UNL     1      44.403 -17.702   6.605  1.00  0.00    -0.273 OA
BRANCH  17  20
HETATM   20  C   UNL     1      44.567 -20.109   3.942  1.00  0.00     0.073 A 
HETATM   21  C   UNL     1      44.235 -19.829   2.620  1.00  0.00     0.033 A 
HETATM   22  C   UNL     1      44.061 -20.875   1.701  1.00  0.00     0.002 A 
HETATM   23  C   UNL     1      44.228 -22.204   2.093  1.00  0.00     0.003 A 
HETATM   24  C   UNL     1      44.590 -22.496   3.403  1.00  0.00     0.044 A 
HETATM   25  C   UNL     1      44.768 -21.452   4.304  1.00  0.00     0.143 A 
HETATM   26  F   UNL     1      45.096 -21.741   5.573  1.00  0.00    -0.204 F 
ENDBRANCH  17  20
ENDBRANCH  15  16
ENDBRANCH   1  15
TORSDOF 3
ENDMDL
MODEL 2
REMARK VINA RESULT:      -8.1      2.234      3.017
REMARK  3 active torsions:
REMARK  status: ('A' for Active; 'I' for Inactive)
REMARK    1  A    between atoms: C_3  and  N_4 
REMARK       I    between atoms: N_4  and  C_5 
REMARK    2  A    between atoms: C_5  and  C_6 
REMARK    3  A    between atoms: C_6  and  C_7 
ROOT
HETATM    1  C   UNL     1      41.906 -16.230   4.555  1.00  0.00     0.286 C 
HETATM    2  N   UNL     1      41.032 -15.444   3.569  1.00  0.00    -0.056 N 
HETATM    3  H   UNL     1      41.501 -15.402   2.646  1.00  0.00     0.278 HD
HETATM    4  H   UNL     1      40.163 -15.969   3.391  1.00  0.00     0.278 HD
HETATM    5  C   UNL     1      40.731 -14.077   4.102  1.00  0.00     0.209 C 
HETATM    6  C   UNL     1      39.914 -14.253   5.402  1.00  0.00     0.115 C 
HETATM    7  N   UNL     1      40.610 -15.109   6.363  1.00  0.00    -0.353 N 
HETATM    8  C   UNL     1      41.324 -16.227   5.986  1.00  0.00     0.249 C 
HETATM    9  O   UNL     1      41.550 -17.117   6.797  1.00  0.00    -0.271 OA
HETATM   10  C   UNL     1      39.975 -13.256   3.068  1.00  0.00     0.035 C 
HETATM   11  C   UNL     1      39.629 -11.886   3.653  1.00  0.00     0.002 C 
HETATM   12  C   UNL     1      38.848 -12.006   4.963  1.00  0.00     0.002 C 
HETATM   13  C   UNL     1      39.559 -12.888   5.993  1.00  0.00     0.027 C 
HETATM   14  H   UNL     1      40.223 -15.186   7.303  1.00  0.00     0.163 HD
ENDROOT
BRANCH   1  15
HETATM   15  C   UNL     1      42.117 -17.648   4.036  1.00  0.00     0.146 C 
BRANCH  15  16
HETATM   16  C   UNL     1      43.253 -17.604   3.059  1.00  0.00     0.224 C 
HETATM   17  N   UNL     1      44.177 -18.582   2.921  1.00  0.00    -0.325 N 
HETATM   18  H   UNL     1      44.970 -18.274   2.355  1.00  0.00     0.169 HD
HETATM   19  O   UNL     1      43.489 -16.508   2.530  1.00  0.00    -0.273 OA
BRANCH  17  20
HETATM   20  C   UNL     1      44.351 -19.867   3.469  1.00  0.00     0.073 A 
HETATM   21  C   UNL     1      44.659 -20.163   4.794  1.00  0.00     0.033 A 
HETATM   22  C   UNL     1      44.829 -21.496   5.196  1.00  0.00     0.002 A 
HETATM   23  C   UNL     1      44.681 -22.541   4.283  1.00  0.00     0.003 A 
HETATM   24  C   UNL     1      44.343 -22.261   2.964  1.00  0.00     0.044 A 
HETATM   25  C   UNL     1      44.170 -20.938   2.576  1.00  0.00     0.143 A 
HETATM   26  F   UNL     1      43.866 -20.672   1.296  1.00  0.00    -0.204 F 
ENDBRANCH  17  20
ENDBRANCH  15  16
ENDBRANCH   1  15
TORSDOF 3
ENDMDL
MODEL 3
REMARK VINA RESULT:      -8.1      1.725      2.071
REMARK  3 active torsions:
REMARK  status: ('A' for Active; 'I' for Inactive)
REMARK    1  A    between atoms: C_3  and  N_4 
REMARK       I    between atoms: N_4  and  C_5 
REMARK    2  A    between atoms: C_5  and  C_6 
REMARK    3  A    between atoms: C_6  and  C_7 
ROOT
HETATM    1  C   UNL     1      42.246 -16.655   5.668  1.00  0.00     0.286 C 
HETATM    2  N   UNL     1      42.491 -16.158   4.236  1.00  0.00    -0.056 N 
HETATM    3  H   UNL     1      43.501 -16.216   4.017  1.00  0.00     0.278 HD
HETATM    4  H   UNL     1      42.046 -16.806   3.570  1.00  0.00     0.278 HD
HETATM    5  C   UNL     1      41.963 -14.767   4.062  1.00  0.00     0.209 C 
HETATM    6  C   UNL     1      40.434 -14.818   4.275  1.00  0.00     0.115 C 
HETATM    7  N   UNL     1      40.090 -15.408   5.569  1.00  0.00    -0.353 N 
HETATM    8  C   UNL     1      40.774 -16.479   6.105  1.00  0.00     0.249 C 
HETATM    9  O   UNL     1      40.245 -17.185   6.956  1.00  0.00    -0.271 OA
HETATM   10  C   UNL     1      42.322 -14.230   2.684  1.00  0.00     0.035 C 
HETATM   11  C   UNL     1      41.727 -12.833   2.506  1.00  0.00     0.002 C 
HETATM   12  C   UNL     1      40.215 -12.823   2.742  1.00  0.00     0.002 C 
HETATM   13  C   UNL     1      39.828 -13.426   4.095  1.00  0.00     0.027 C 
HETATM   14  H   UNL     1      39.117 -15.372   5.869  1.00  0.00     0.163 HD
ENDROOT
BRANCH   1  15
HETATM   15  C   UNL     1      42.702 -18.103   5.793  1.00  0.00     0.146 C 
BRANCH  15  16
HETATM   16  C   UNL     1      44.199 -18.097   5.877  1.00  0.00     0.224 C 
HETATM   17  N   UNL     1      44.996 -19.046   5.335  1.00  0.00    -0.325 N 
HETATM   18  H   UNL     1      45.957 -18.969   5.673  1.00  0.00     0.169 HD
HETATM   19  O   UNL     1      44.706 -17.314   6.693  1.00  0.00    -0.273 OA
BRANCH  17  20
HETATM   20  C   UNL     1      44.782 -20.172   4.517  1.00  0.00     0.073 A 
HETATM   21  C   UNL     1      44.880 -21.504   4.907  1.00  0.00     0.033 A 
HETATM   22  C   UNL     1      44.663 -22.528   3.973  1.00  0.00     0.002 A 
HETATM   23  C   UNL     1      44.337 -22.230   2.649  1.00  0.00     0.003 A 
HETATM   24  C   UNL     1      44.205 -20.904   2.254  1.00  0.00     0.044 A 
HETATM   25  C   UNL     1      44.414 -19.896   3.188  1.00  0.00     0.143 A 
HETATM   26  F   UNL     1      44.308 -18.617   2.796  1.00  0.00    -0.204 F 
ENDBRANCH  17  20
ENDBRANCH  15  16
ENDBRANCH   1  15
TORSDOF 3
ENDMDL
MODEL 4
REMARK VINA RESULT:      -7.8      3.243      7.314
REMARK  3 active torsions:
REMARK  status: ('A' for Active; 'I' for Inactive)
REMARK    1  A    between atoms: C_3  and  N_4 
REMARK       I    between atoms: N_4  and  C_5 
REMARK    2  A    between atoms: C_5  and  C_6 
REMARK    3  A    between atoms: C_6  and  C_7 
ROOT
HETATM    1  C   UNL     1      42.603 -17.922   2.210  1.00  0.00     0.286 C 
HETATM    2  N   UNL     1      43.381 -19.137   1.687  1.00  0.00    -0.056 N 
HETATM    3  H   UNL     1      42.888 -19.539   0.870  1.00  0.00     0.278 HD
HETATM    4  H   UNL     1      44.289 -18.825   1.312  1.00  0.00     0.278 HD
HETATM    5  C   UNL     1      43.573 -20.150   2.775  1.00  0.00     0.209 C 
HETATM    6  C   UNL     1      44.432 -19.493   3.877  1.00  0.00     0.115 C 
HETATM    7  N   UNL     1      43.838 -18.243   4.350  1.00  0.00    -0.353 N 
HETATM    8  C   UNL     1      43.216 -17.346   3.506  1.00  0.00     0.249 C 
HETATM    9  O   UNL     1      43.089 -16.174   3.838  1.00  0.00    -0.271 OA
HETATM   10  C   UNL     1      44.229 -21.406   2.222  1.00  0.00     0.035 C 
HETATM   11  C   UNL     1      44.466 -22.403   3.357  1.00  0.00     0.002 C 
HETATM   12  C   UNL     1      45.286 -21.789   4.494  1.00  0.00     0.002 C 
HETATM   13  C   UNL     1      44.680 -20.483   5.016  1.00  0.00     0.027 C 
HETATM   14  H   UNL     1      44.252 -17.794   5.166  1.00  0.00     0.163 HD
ENDROOT
BRANCH   1  15
HETATM   15  C   UNL     1      42.505 -16.865   1.116  1.00  0.00     0.146 C 
BRANCH  15  16
HETATM   16  C   UNL     1      41.050 -16.589   0.888  1.00  0.00     0.224 C 
HETATM   17  N   UNL     1      40.578 -15.635   0.053  1.00  0.00    -0.325 N 
HETATM   18  H   UNL     1      39.579 -15.473   0.191  1.00  0.00     0.169 HD
HETATM   19  O   UNL     1      40.255 -17.098   1.691  1.00  0.00    -0.273 OA
BRANCH  17  20
HETATM   20  C   UNL     1      41.163 -14.743  -0.866  1.00  0.00     0.073 A 
HETATM   21  C   UNL     1      41.812 -13.551  -0.559  1.00  0.00     0.033 A 
HETATM   22  C   UNL     1      42.327 -12.746  -1.586  1.00  0.00     0.002 A 
HETATM   23  C   UNL     1      42.209 -13.130  -2.923  1.00  0.00     0.003 A 
HETATM   24  C   UNL     1      41.591 -14.334  -3.241  1.00  0.00     0.044 A 
HETATM   25  C   UNL     1      41.090 -15.129  -2.217  1.00  0.00     0.143 A 
HETATM   26  F   UNL     1      40.474 -16.279  -2.532  1.00  0.00    -0.204 F 
ENDBRANCH  17  20
ENDBRANCH  15  16
ENDBRANCH   1  15
TORSDOF 3
ENDMDL
MODEL 5
REMARK VINA RESULT:      -7.8      2.904      4.123
REMARK  3 active torsions:
REMARK  status: ('A' for Active; 'I' for Inactive)
REMARK    1  A    between atoms: C_3  and  N_4 
REMARK       I    between atoms: N_4  and  C_5 
REMARK    2  A    between atoms: C_5  and  C_6 
REMARK    3  A    between atoms: C_6  and  C_7 
ROOT
HETATM    1  C   UNL     1      40.940 -14.376   1.879  1.00  0.00     0.286 C 
HETATM    2  N   UNL     1      41.877 -13.617   0.930  1.00  0.00    -0.056 N 
HETATM    3  H   UNL     1      42.025 -12.655   1.285  1.00  0.00     0.278 HD
HETATM    4  H   UNL     1      42.813 -14.047   0.957  1.00  0.00     0.278 HD
HETATM    5  C   UNL     1      41.330 -13.616  -0.465  1.00  0.00     0.209 C 
HETATM    6  C   UNL     1      41.279 -15.083  -0.947  1.00  0.00     0.115 C 
HETATM    7  N   UNL     1      40.515 -15.925  -0.027  1.00  0.00    -0.353 N 
HETATM    8  C   UNL     1      40.576 -15.780   1.344  1.00  0.00     0.249 C 
HETATM    9  O   UNL     1      40.261 -16.709   2.077  1.00  0.00    -0.271 OA
HETATM   10  C   UNL     1      42.193 -12.754  -1.375  1.00  0.00     0.035 C 
HETATM   11  C   UNL     1      41.650 -12.812  -2.803  1.00  0.00     0.002 C 
HETATM   12  C   UNL     1      41.547 -14.250  -3.316  1.00  0.00     0.002 C 
HETATM   13  C   UNL     1      40.742 -15.152  -2.376  1.00  0.00     0.027 C 
HETATM   14  H   UNL     1      40.307 -16.881  -0.313  1.00  0.00     0.163 HD
ENDROOT
BRANCH   1  15
HETATM   15  C   UNL     1      41.563 -14.447   3.267  1.00  0.00     0.146 C 
BRANCH  15  16
HETATM   16  C   UNL     1      43.045 -14.289   3.103  1.00  0.00     0.224 C 
HETATM   17  N   UNL     1      43.902 -15.317   2.903  1.00  0.00    -0.325 N 
HETATM   18  H   UNL     1      44.874 -15.024   3.019  1.00  0.00     0.169 HD
HETATM   19  O   UNL     1      43.524 -13.188   3.410  1.00  0.00    -0.273 OA
BRANCH  17  20
HETATM   20  C   UNL     1      43.760 -16.701   2.695  1.00  0.00     0.073 A 
HETATM   21  C   UNL     1      43.801 -17.359   1.469  1.00  0.00     0.033 A 
HETATM   22  C   UNL     1      43.617 -18.749   1.410  1.00  0.00     0.002 A 
HETATM   23  C   UNL     1      43.404 -19.491   2.572  1.00  0.00     0.003 A 
HETATM   24  C   UNL     1      43.393 -18.851   3.806  1.00  0.00     0.044 A 
HETATM   25  C   UNL     1      43.583 -17.475   3.856  1.00  0.00     0.143 A 
HETATM   26  F   UNL     1      43.549 -16.859   5.048  1.00  0.00    -0.204 F 
ENDBRANCH  17  20
ENDBRANCH  15  16
ENDBRANCH   1  15
TORSDOF 3
ENDMDL
MODEL 6
REMARK VINA RESULT:      -7.8      1.781      2.259
REMARK  3 active torsions:
REMARK  status: ('A' for Active; 'I' for Inactive)
REMARK    1  A    between atoms: C_3  and  N_4 
REMARK       I    between atoms: N_4  and  C_5 
REMARK    2  A    between atoms: C_5  and  C_6 
REMARK    3  A    between atoms: C_6  and  C_7 
ROOT
HETATM    1  C   UNL     1      41.944 -16.515   2.715  1.00  0.00     0.286 C 
HETATM    2  N   UNL     1      41.406 -16.474   1.278  1.00  0.00    -0.056 N 
HETATM    3  H   UNL     1      42.178 -16.659   0.614  1.00  0.00     0.278 HD
HETATM    4  H   UNL     1      40.752 -17.258   1.137  1.00  0.00     0.278 HD
HETATM    5  C   UNL     1      40.736 -15.163   1.002  1.00  0.00     0.209 C 
HETATM    6  C   UNL     1      39.522 -15.050   1.950  1.00  0.00     0.115 C 
HETATM    7  N   UNL     1      39.915 -15.215   3.349  1.00  0.00    -0.353 N 
HETATM    8  C   UNL     1      40.869 -16.125   3.755  1.00  0.00     0.249 C 
HETATM    9  O   UNL     1      40.894 -16.516   4.915  1.00  0.00    -0.271 OA
HETATM   10  C   UNL     1      40.320 -15.076  -0.459  1.00  0.00     0.035 C 
HETATM   11  C   UNL     1      39.589 -13.756  -0.707  1.00  0.00     0.002 C 
HETATM   12  C   UNL     1      38.396 -13.579   0.234  1.00  0.00     0.002 C 
HETATM   13  C   UNL     1      38.781 -13.735   1.708  1.00  0.00     0.027 C 
HETATM   14  H   UNL     1      39.217 -15.029   4.068  1.00  0.00     0.163 HD
ENDROOT
BRANCH   1  15
HETATM   15  C   UNL     1      42.533 -17.891   3.004  1.00  0.00     0.146 C 
BRANCH  15  16
HETATM   16  C   UNL     1      43.832 -17.987   2.263  1.00  0.00     0.224 C 
HETATM   17  N   UNL     1      44.698 -19.020   2.375  1.00  0.00    -0.325 N 
HETATM   18  H   UNL     1      45.602 -18.802   1.952  1.00  0.00     0.169 HD
HETATM   19  O   UNL     1      44.237 -16.952   1.713  1.00  0.00    -0.273 OA
BRANCH  17  20
HETATM   20  C   UNL     1      44.679 -20.263   3.036  1.00  0.00     0.073 A 
HETATM   21  C   UNL     1      44.509 -21.510   2.442  1.00  0.00     0.033 A 
HETATM   22  C   UNL     1      44.486 -22.669   3.232  1.00  0.00     0.002 A 
HETATM   23  C   UNL     1      44.643 -22.592   4.617  1.00  0.00     0.003 A 
HETATM   24  C   UNL     1      44.846 -21.356   5.219  1.00  0.00     0.044 A 
HETATM   25  C   UNL     1      44.875 -20.214   4.427  1.00  0.00     0.143 A 
HETATM   26  F   UNL     1      45.047 -19.020   5.017  1.00  0.00    -0.204 F 
ENDBRANCH  17  20
ENDBRANCH  15  16
ENDBRANCH   1  15
TORSDOF 3
ENDMDL
MODEL 7
REMARK VINA RESULT:      -7.7      1.868      6.015
REMARK  3 active torsions:
REMARK  status: ('A' for Active; 'I' for Inactive)
REMARK    1  A    between atoms: C_3  and  N_4 
REMARK       I    between atoms: N_4  and  C_5 
REMARK    2  A    between atoms: C_5  and  C_6 
REMARK    3  A    between atoms: C_6  and  C_7 
ROOT
HETATM    1  C   UNL     1      43.340 -17.505   4.580  1.00  0.00     0.286 C 
HETATM    2  N   UNL     1      43.562 -18.067   3.170  1.00  0.00    -0.056 N 
HETATM    3  H   UNL     1      42.858 -17.669   2.523  1.00  0.00     0.278 HD
HETATM    4  H   UNL     1      44.465 -17.729   2.806  1.00  0.00     0.278 HD
HETATM    5  C   UNL     1      43.519 -19.565   3.184  1.00  0.00     0.209 C 
HETATM    6  C   UNL     1      44.689 -20.057   4.065  1.00  0.00     0.115 C 
HETATM    7  N   UNL     1      44.643 -19.464   5.401  1.00  0.00    -0.353 N 
HETATM    8  C   UNL     1      44.278 -18.152   5.624  1.00  0.00     0.249 C 
HETATM    9  O   UNL     1      44.619 -17.584   6.654  1.00  0.00    -0.271 OA
HETATM   10  C   UNL     1      43.609 -20.114   1.768  1.00  0.00     0.035 C 
HETATM   11  C   UNL     1      43.620 -21.642   1.810  1.00  0.00     0.002 C 
HETATM   12  C   UNL     1      44.742 -22.181   2.700  1.00  0.00     0.002 C 
HETATM   13  C   UNL     1      44.712 -21.584   4.110  1.00  0.00     0.027 C 
HETATM   14  H   UNL     1      45.291 -19.818   6.105  1.00  0.00     0.163 HD
ENDROOT
BRANCH   1  15
HETATM   15  C   UNL     1      43.485 -15.988   4.557  1.00  0.00     0.146 C 
BRANCH  15  16
HETATM   16  C   UNL     1      42.126 -15.404   4.796  1.00  0.00     0.224 C 
HETATM   17  N   UNL     1      41.317 -14.933   3.820  1.00  0.00    -0.325 N 
HETATM   18  H   UNL     1      40.534 -14.400   4.203  1.00  0.00     0.169 HD
HETATM   19  O   UNL     1      41.842 -15.118   5.969  1.00  0.00    -0.273 OA
BRANCH  17  20
HETATM   20  C   UNL     1      41.370 -14.909   2.413  1.00  0.00     0.073 A 
HETATM   21  C   UNL     1      41.795 -13.845   1.623  1.00  0.00     0.033 A 
HETATM   22  C   UNL     1      41.771 -13.953   0.224  1.00  0.00     0.002 A 
HETATM   23  C   UNL     1      41.335 -15.126  -0.393  1.00  0.00     0.003 A 
HETATM   24  C   UNL     1      40.938 -16.208   0.385  1.00  0.00     0.044 A 
HETATM   25  C   UNL     1      40.972 -16.094   1.769  1.00  0.00     0.143 A 
HETATM   26  F   UNL     1      40.566 -17.133   2.516  1.00  0.00    -0.204 F 
ENDBRANCH  17  20
ENDBRANCH  15  16
ENDBRANCH   1  15
TORSDOF 3
ENDMDL
MODEL 8
REMARK VINA RESULT:      -7.6      2.499      3.327
REMARK  3 active torsions:
REMARK  status: ('A' for Active; 'I' for Inactive)
REMARK    1  A    between atoms: C_3  and  N_4 
REMARK       I    between atoms: N_4  and  C_5 
REMARK    2  A    between atoms: C_5  and  C_6 
REMARK    3  A    between atoms: C_6  and  C_7 
ROOT
HETATM    1  C   UNL     1      41.723 -15.787   0.853  1.00  0.00     0.286 C 
HETATM    2  N   UNL     1      41.926 -15.625  -0.660  1.00  0.00    -0.056 N 
HETATM    3  H   UNL     1      42.935 -15.691  -0.883  1.00  0.00     0.278 HD
HETATM    4  H   UNL     1      41.502 -16.428  -1.148  1.00  0.00     0.278 HD
HETATM    5  C   UNL     1      41.334 -14.335  -1.138  1.00  0.00     0.209 C 
HETATM    6  C   UNL     1      39.812 -14.397  -0.883  1.00  0.00     0.115 C 
HETATM    7  N   UNL     1      39.513 -14.685   0.520  1.00  0.00    -0.353 N 
HETATM    8  C   UNL     1      40.251 -15.575   1.273  1.00  0.00     0.249 C 
HETATM    9  O   UNL     1      39.766 -16.085   2.275  1.00  0.00    -0.271 OA
HETATM   10  C   UNL     1      41.650 -14.118  -2.611  1.00  0.00     0.035 C 
HETATM   11  C   UNL     1      40.990 -12.825  -3.092  1.00  0.00     0.002 C 
HETATM   12  C   UNL     1      39.483 -12.822  -2.829  1.00  0.00     0.002 C 
HETATM   13  C   UNL     1      39.141 -13.110  -1.365  1.00  0.00     0.027 C 
HETATM   14  H   UNL     1      38.542 -14.620   0.826  1.00  0.00     0.163 HD
ENDROOT
BRANCH   1  15
HETATM   15  C   UNL     1      42.245 -17.147   1.299  1.00  0.00     0.146 C 
BRANCH  15  16
HETATM   16  C   UNL     1      43.275 -16.906   2.361  1.00  0.00     0.224 C 
HETATM   17  N   UNL     1      43.957 -17.886   2.997  1.00  0.00    -0.325 N 
HETATM   18  H   UNL     1      44.455 -17.530   3.815  1.00  0.00     0.169 HD
HETATM   19  O   UNL     1      43.320 -15.765   2.843  1.00  0.00    -0.273 OA
BRANCH  17  20
HETATM   20  C   UNL     1      44.039 -19.285   2.863  1.00  0.00     0.073 A 
HETATM   21  C   UNL     1      43.576 -20.039   1.788  1.00  0.00     0.033 A 
HETATM   22  C   UNL     1      43.703 -21.436   1.802  1.00  0.00     0.002 A 
HETATM   23  C   UNL     1      44.302 -22.088   2.881  1.00  0.00     0.003 A 
HETATM   24  C   UNL     1      44.797 -21.345   3.946  1.00  0.00     0.044 A 
HETATM   25  C   UNL     1      44.674 -19.961   3.920  1.00  0.00     0.143 A 
HETATM   26  F   UNL     1      45.133 -19.250   4.963  1.00  0.00    -0.204 F 
ENDBRANCH  17  20
ENDBRANCH  15  16
ENDBRANCH   1  15
TORSDOF 3
ENDMDL
MODEL 9
REMARK VINA RESULT:      -7.4      2.415      3.651
REMARK  3 active torsions:
REMARK  status: ('A' for Active; 'I' for Inactive)
REMARK    1  A    between atoms: C_3  and  N_4 
REMARK       I    between atoms: N_4  and  C_5 
REMARK    2  A    between atoms: C_5  and  C_6 
REMARK    3  A    between atoms: C_6  and  C_7 
ROOT
HETATM    1  C   UNL     1      40.817 -15.546   2.012  1.00  0.00     0.286 C 
HETATM    2  N   UNL     1      40.157 -14.179   2.241  1.00  0.00    -0.056 N 
HETATM    3  H   UNL     1      39.889 -14.086   3.237  1.00  0.00     0.278 HD
HETATM    4  H   UNL     1      40.854 -13.435   2.092  1.00  0.00     0.278 HD
HETATM    5  C   UNL     1      38.981 -14.001   1.329  1.00  0.00     0.209 C 
HETATM    6  C   UNL     1      39.510 -14.019  -0.122  1.00  0.00     0.115 C 
HETATM    7  N   UNL     1      40.277 -15.232  -0.400  1.00  0.00    -0.353 N 
HETATM    8  C   UNL     1      41.131 -15.803   0.521  1.00  0.00     0.249 C 
HETATM    9  O   UNL     1      42.029 -16.549   0.150  1.00  0.00    -0.271 OA
HETATM   10  C   UNL     1      38.253 -12.703   1.648  1.00  0.00     0.035 C 
HETATM   11  C   UNL     1      37.092 -12.513   0.671  1.00  0.00     0.002 C 
HETATM   12  C   UNL     1      37.559 -12.558  -0.785  1.00  0.00     0.002 C 
HETATM   13  C   UNL     1      38.357 -13.825  -1.107  1.00  0.00     0.027 C 
HETATM   14  H   UNL     1      40.561 -15.409  -1.363  1.00  0.00     0.163 HD
ENDROOT
BRANCH   1  15
HETATM   15  C   UNL     1      42.065 -15.664   2.879  1.00  0.00     0.146 C 
BRANCH  15  16
HETATM   16  C   UNL     1      41.680 -16.412   4.120  1.00  0.00     0.224 C 
HETATM   17  N   UNL     1      42.035 -17.691   4.379  1.00  0.00    -0.325 N 
HETATM   18  H   UNL     1      41.511 -18.075   5.168  1.00  0.00     0.169 HD
HETATM   19  O   UNL     1      40.791 -15.906   4.820  1.00  0.00    -0.273 OA
BRANCH  17  20
HETATM   20  C   UNL     1      42.861 -18.639   3.747  1.00  0.00     0.073 A 
HETATM   21  C   UNL     1      42.758 -19.073   2.428  1.00  0.00     0.033 A 
HETATM   22  C   UNL     1      43.640 -20.048   1.937  1.00  0.00     0.002 A 
HETATM   23  C   UNL     1      44.636 -20.585   2.754  1.00  0.00     0.003 A 
HETATM   24  C   UNL     1      44.770 -20.137   4.063  1.00  0.00     0.044 A 
HETATM   25  C   UNL     1      43.897 -19.167   4.538  1.00  0.00     0.143 A 
HETATM   26  F   UNL     1      44.016 -18.754   5.810  1.00  0.00    -0.204 F 
ENDBRANCH  17  20
ENDBRANCH  15  16
ENDBRANCH   1  15
TORSDOF 3
ENDMDL
MODEL 10
REMARK VINA RESULT:      -7.3      2.797      4.285
REMARK  3 active torsions:
REMARK  status: ('A' for Active; 'I' for Inactive)
REMARK    1  A    between atoms: C_3  and  N_4 
REMARK       I    between atoms: N_4  and  C_5 
REMARK    2  A    between atoms: C_5  and  C_6 
REMARK    3  A    between atoms: C_6  and  C_7 
ROOT
HETATM    1  C   UNL     1      40.268 -14.591   1.571  1.00  0.00     0.286 C 
HETATM    2  N   UNL     1      40.387 -15.493   0.335  1.00  0.00    -0.056 N 
HETATM    3  H   UNL     1      41.074 -16.246   0.519  1.00  0.00     0.278 HD
HETATM    4  H   UNL     1      39.496 -15.989   0.187  1.00  0.00     0.278 HD
HETATM    5  C   UNL     1      40.757 -14.688  -0.874  1.00  0.00     0.209 C 
HETATM    6  C   UNL     1      39.606 -13.692  -1.140  1.00  0.00     0.115 C 
HETATM    7  N   UNL     1      39.321 -12.871   0.036  1.00  0.00    -0.353 N 
HETATM    8  C   UNL     1      39.352 -13.373   1.321  1.00  0.00     0.249 C 
HETATM    9  O   UNL     1      38.745 -12.803   2.220  1.00  0.00    -0.271 OA
HETATM   10  C   UNL     1      41.001 -15.600  -2.067  1.00  0.00     0.035 C 
HETATM   11  C   UNL     1      41.321 -14.756  -3.301  1.00  0.00     0.002 C 
HETATM   12  C   UNL     1      40.225 -13.727  -3.588  1.00  0.00     0.002 C 
HETATM   13  C   UNL     1      39.914 -12.846  -2.376  1.00  0.00     0.027 C 
HETATM   14  H   UNL     1      38.671 -12.094  -0.068  1.00  0.00     0.163 HD
ENDROOT
BRANCH   1  15
HETATM   15  C   UNL     1      39.798 -15.415   2.763  1.00  0.00     0.146 C 
BRANCH  15  16
HETATM   16  C   UNL     1      40.774 -15.188   3.879  1.00  0.00     0.224 C 
HETATM   17  N   UNL     1      41.950 -15.843   4.007  1.00  0.00    -0.325 N 
HETATM   18  H   UNL     1      42.367 -15.694   4.927  1.00  0.00     0.169 HD
HETATM   19  O   UNL     1      40.362 -14.545   4.855  1.00  0.00    -0.273 OA
BRANCH  17  20
HETATM   20  C   UNL     1      42.661 -16.767   3.218  1.00  0.00     0.073 A 
HETATM   21  C   UNL     1      43.476 -16.467   2.130  1.00  0.00     0.033 A 
HETATM   22  C   UNL     1      44.107 -17.498   1.418  1.00  0.00     0.002 A 
HETATM   23  C   UNL     1      43.938 -18.832   1.792  1.00  0.00     0.003 A 
HETATM   24  C   UNL     1      43.152 -19.143   2.896  1.00  0.00     0.044 A 
HETATM   25  C   UNL     1      42.538 -18.115   3.600  1.00  0.00     0.143 A 
HETATM   26  F   UNL     1      41.762 -18.423   4.652  1.00  0.00    -0.204 F 
ENDBRANCH  17  20
ENDBRANCH  15  16
ENDBRANCH   1  15
TORSDOF 3
ENDMDL
