MODEL 1
REMARK VINA RESULT:      -8.7      0.000      0.000
REMARK  2 active torsions:
REMARK  status: ('A' for Active; 'I' for Inactive)
REMARK    1  A    between atoms: C_10  and  C_11 
REMARK    2  A    between atoms: C_12  and  O_13 
ROOT
HETATM    1  C   UNL     1      38.721 -15.608  -4.273  1.00  0.00     0.076 C 
HETATM    2  C   UNL     1      39.666 -14.954  -3.347  1.00  0.00     0.050 A 
HETATM    3  O   UNL     1      39.874 -15.569  -2.150  1.00  0.00    -0.312 OA
HETATM    4  C   UNL     1      40.759 -14.800  -1.433  1.00  0.00     0.121 A 
HETATM    5  C   UNL     1      41.181 -15.140  -0.113  1.00  0.00     0.163 A 
HETATM    6  N   UNL     1      41.938 -14.413   0.674  1.00  0.00    -0.221 NA
HETATM    7  C   UNL     1      42.047 -15.114   1.872  1.00  0.00     0.149 A 
HETATM    8  C   UNL     1      41.354 -16.314   1.772  1.00  0.00     0.046 A 
HETATM    9  C   UNL     1      41.110 -17.482   2.663  1.00  0.00     0.070 C 
HETATM   10  C   UNL     1      41.494 -17.352   4.143  1.00  0.00     0.045 C 
HETATM   11  C   UNL     1      41.526 -15.919   4.699  1.00  0.00     0.132 C 
HETATM   12  N   UNL     1      42.608 -15.073   4.252  1.00  0.00    -0.355 N 
HETATM   13  C   UNL     1      42.819 -14.573   2.992  1.00  0.00     0.272 C 
HETATM   14  O   UNL     1      43.661 -13.685   2.861  1.00  0.00    -0.266 OA
HETATM   15  N   UNL     1      40.818 -16.301   0.503  1.00  0.00    -0.340 N 
HETATM   16  H   UNL     1      40.244 -17.015   0.078  1.00  0.00     0.167 HD
HETATM   17  C   UNL     1      41.114 -13.703  -2.197  1.00  0.00     0.043 A 
HETATM   18  C   UNL     1      40.416 -13.802  -3.424  1.00  0.00     0.035 A 
HETATM   19  H   UNL     1      43.154 -14.585   4.949  1.00  0.00     0.162 HD
ENDROOT
BRANCH  10  20
HETATM   20  C   UNL     1      42.692 -18.235   4.507  1.00  0.00    -0.019 A 
HETATM   21  C   UNL     1      43.096 -18.388   5.855  1.00  0.00     0.074 A 
HETATM   22  C   UNL     1      44.202 -19.186   6.171  1.00  0.00     0.037 A 
HETATM   23  C   UNL     1      44.897 -19.864   5.170  1.00  0.00     0.003 A 
HETATM   24  C   UNL     1      44.484 -19.758   3.848  1.00  0.00     0.001 A 
HETATM   25  C   UNL     1      43.387 -18.959   3.522  1.00  0.00     0.010 A 
BRANCH  21  26
HETATM   26  O   UNL     1      42.351 -17.718   6.792  1.00  0.00    -0.355 OA
HETATM   27  C   UNL     1      43.037 -17.199   7.925  1.00  0.00     0.210 C 
ENDBRANCH  21  26
ENDBRANCH  10  20
TORSDOF 2
ENDMDL
MODEL 2
REMARK VINA RESULT:      -8.1      2.538      7.662
REMARK  2 active torsions:
REMARK  status: ('A' for Active; 'I' for Inactive)
REMARK    1  A    between atoms: C_10  and  C_11 
REMARK    2  A    between atoms: C_12  and  O_13 
ROOT
HETATM    1  C   UNL     1      44.331 -21.906   1.799  1.00  0.00     0.076 C 
HETATM    2  C   UNL     1      44.210 -20.611   2.497  1.00  0.00     0.050 A 
HETATM    3  O   UNL     1      43.585 -19.607   1.822  1.00  0.00    -0.312 OA
HETATM    4  C   UNL     1      43.594 -18.493   2.625  1.00  0.00     0.121 A 
HETATM    5  C   UNL     1      43.040 -17.244   2.216  1.00  0.00     0.163 A 
HETATM    6  N   UNL     1      43.098 -16.112   2.878  1.00  0.00    -0.221 NA
HETATM    7  C   UNL     1      42.471 -15.159   2.081  1.00  0.00     0.149 A 
HETATM    8  C   UNL     1      41.998 -15.760   0.921  1.00  0.00     0.046 A 
HETATM    9  C   UNL     1      41.245 -15.313  -0.282  1.00  0.00     0.070 C 
HETATM   10  C   UNL     1      41.073 -13.804  -0.504  1.00  0.00     0.045 C 
HETATM   11  C   UNL     1      42.141 -12.909   0.145  1.00  0.00     0.132 C 
HETATM   12  N   UNL     1      42.102 -12.792   1.585  1.00  0.00    -0.355 N 
HETATM   13  C   UNL     1      42.370 -13.763   2.515  1.00  0.00     0.272 C 
HETATM   14  O   UNL     1      42.511 -13.413   3.686  1.00  0.00    -0.266 OA
HETATM   15  N   UNL     1      42.373 -17.081   1.039  1.00  0.00    -0.340 N 
HETATM   16  H   UNL     1      42.202 -17.823   0.374  1.00  0.00     0.167 HD
HETATM   17  C   UNL     1      44.220 -18.811   3.818  1.00  0.00     0.043 A 
HETATM   18  C   UNL     1      44.612 -20.168   3.737  1.00  0.00     0.035 A 
HETATM   19  H   UNL     1      42.113 -11.866   1.991  1.00  0.00     0.162 HD
ENDROOT
BRANCH  10  20
HETATM   20  C   UNL     1      39.620 -13.355  -0.312  1.00  0.00    -0.019 A 
HETATM   21  C   UNL     1      39.036 -12.403  -1.181  1.00  0.00     0.074 A 
HETATM   22  C   UNL     1      37.712 -11.992  -0.985  1.00  0.00     0.037 A 
HETATM   23  C   UNL     1      36.946 -12.536   0.046  1.00  0.00     0.003 A 
HETATM   24  C   UNL     1      37.493 -13.503   0.878  1.00  0.00     0.001 A 
HETATM   25  C   UNL     1      38.814 -13.915   0.695  1.00  0.00     0.010 A 
BRANCH  21  26
HETATM   26  O   UNL     1      39.836 -11.931  -2.192  1.00  0.00    -0.355 OA
HETATM   27  C   UNL     1      39.468 -12.260  -3.526  1.00  0.00     0.210 C 
ENDBRANCH  21  26
ENDBRANCH  10  20
TORSDOF 2
ENDMDL
MODEL 3
REMARK VINA RESULT:      -8.1      3.556      7.328
REMARK  2 active torsions:
REMARK  status: ('A' for Active; 'I' for Inactive)
REMARK    1  A    between atoms: C_10  and  C_11 
REMARK    2  A    between atoms: C_12  and  O_13 
ROOT
HETATM    1  C   UNL     1      44.612 -22.264   1.737  1.00  0.00     0.076 C 
HETATM    2  C   UNL     1      44.551 -21.615   3.062  1.00  0.00     0.050 A 
HETATM    3  O   UNL     1      44.203 -20.298   3.081  1.00  0.00    -0.312 OA
HETATM    4  C   UNL     1      44.224 -19.880   4.390  1.00  0.00     0.121 A 
HETATM    5  C   UNL     1      43.933 -18.538   4.775  1.00  0.00     0.163 A 
HETATM    6  N   UNL     1      44.030 -18.034   5.983  1.00  0.00    -0.221 NA
HETATM    7  C   UNL     1      43.695 -16.688   5.876  1.00  0.00     0.149 A 
HETATM    8  C   UNL     1      43.358 -16.396   4.560  1.00  0.00     0.046 A 
HETATM    9  C   UNL     1      42.902 -15.188   3.818  1.00  0.00     0.070 C 
HETATM   10  C   UNL     1      42.986 -13.831   4.530  1.00  0.00     0.045 C 
HETATM   11  C   UNL     1      44.035 -13.730   5.649  1.00  0.00     0.132 C 
HETATM   12  N   UNL     1      43.756 -14.453   6.868  1.00  0.00    -0.355 N 
HETATM   13  C   UNL     1      43.715 -15.812   7.050  1.00  0.00     0.272 C 
HETATM   14  O   UNL     1      43.692 -16.237   8.204  1.00  0.00    -0.266 OA
HETATM   15  N   UNL     1      43.517 -17.589   3.889  1.00  0.00    -0.340 N 
HETATM   16  H   UNL     1      43.366 -17.757   2.904  1.00  0.00     0.167 HD
HETATM   17  C   UNL     1      44.576 -20.951   5.193  1.00  0.00     0.043 A 
HETATM   18  C   UNL     1      44.783 -22.063   4.342  1.00  0.00     0.035 A 
HETATM   19  H   UNL     1      43.824 -13.956   7.747  1.00  0.00     0.162 HD
ENDROOT
BRANCH  10  20
HETATM   20  C   UNL     1      41.600 -13.269   4.863  1.00  0.00    -0.019 A 
HETATM   21  C   UNL     1      41.013 -12.265   4.056  1.00  0.00     0.074 A 
HETATM   22  C   UNL     1      39.753 -11.750   4.381  1.00  0.00     0.037 A 
HETATM   23  C   UNL     1      39.048 -12.240   5.480  1.00  0.00     0.003 A 
HETATM   24  C   UNL     1      39.592 -13.256   6.254  1.00  0.00     0.001 A 
HETATM   25  C   UNL     1      40.852 -13.772   5.942  1.00  0.00     0.010 A 
BRANCH  21  26
HETATM   26  O   UNL     1      41.747 -11.849   2.973  1.00  0.00    -0.355 OA
HETATM   27  C   UNL     1      41.239 -12.156   1.680  1.00  0.00     0.210 C 
ENDBRANCH  21  26
ENDBRANCH  10  20
TORSDOF 2
ENDMDL
MODEL 4
REMARK VINA RESULT:      -7.7      2.083      7.827
REMARK  2 active torsions:
REMARK  status: ('A' for Active; 'I' for Inactive)
REMARK    1  A    between atoms: C_10  and  C_11 
REMARK    2  A    between atoms: C_12  and  O_13 
ROOT
HETATM    1  C   UNL     1      45.033 -22.160   5.105  1.00  0.00     0.076 C 
HETATM    2  C   UNL     1      44.395 -20.937   5.631  1.00  0.00     0.050 A 
HETATM    3  O   UNL     1      44.009 -20.006   4.714  1.00  0.00    -0.312 OA
HETATM    4  C   UNL     1      43.464 -18.947   5.398  1.00  0.00     0.121 A 
HETATM    5  C   UNL     1      42.976 -17.777   4.745  1.00  0.00     0.163 A 
HETATM    6  N   UNL     1      42.537 -16.685   5.326  1.00  0.00    -0.221 NA
HETATM    7  C   UNL     1      42.214 -15.798   4.304  1.00  0.00     0.149 A 
HETATM    8  C   UNL     1      42.441 -16.404   3.074  1.00  0.00     0.046 A 
HETATM    9  C   UNL     1      42.278 -16.014   1.646  1.00  0.00     0.070 C 
HETATM   10  C   UNL     1      41.994 -14.539   1.330  1.00  0.00     0.045 C 
HETATM   11  C   UNL     1      42.476 -13.527   2.383  1.00  0.00     0.132 C 
HETATM   12  N   UNL     1      41.750 -13.493   3.631  1.00  0.00    -0.355 N 
HETATM   13  C   UNL     1      41.702 -14.459   4.603  1.00  0.00     0.272 C 
HETATM   14  O   UNL     1      41.221 -14.152   5.693  1.00  0.00    -0.266 OA
HETATM   15  N   UNL     1      42.922 -17.656   3.388  1.00  0.00    -0.340 N 
HETATM   16  H   UNL     1      43.202 -18.380   2.741  1.00  0.00     0.167 HD
HETATM   17  C   UNL     1      43.500 -19.227   6.753  1.00  0.00     0.043 A 
HETATM   18  C   UNL     1      44.095 -20.503   6.902  1.00  0.00     0.035 A 
HETATM   19  H   UNL     1      41.423 -12.598   3.970  1.00  0.00     0.162 HD
ENDROOT
BRANCH  10  20
HETATM   20  C   UNL     1      40.569 -14.327   0.805  1.00  0.00    -0.019 A 
HETATM   21  C   UNL     1      40.344 -13.940  -0.537  1.00  0.00     0.074 A 
HETATM   22  C   UNL     1      39.038 -13.735  -0.999  1.00  0.00     0.037 A 
HETATM   23  C   UNL     1      37.947 -13.940  -0.155  1.00  0.00     0.003 A 
HETATM   24  C   UNL     1      38.152 -14.363   1.151  1.00  0.00     0.001 A 
HETATM   25  C   UNL     1      39.451 -14.564   1.624  1.00  0.00     0.010 A 
BRANCH  21  26
HETATM   26  O   UNL     1      41.459 -13.784  -1.321  1.00  0.00    -0.355 OA
HETATM   27  C   UNL     1      41.271 -13.766  -2.731  1.00  0.00     0.210 C 
ENDBRANCH  21  26
ENDBRANCH  10  20
TORSDOF 2
ENDMDL
MODEL 5
REMARK VINA RESULT:      -7.6      2.977      7.073
REMARK  2 active torsions:
REMARK  status: ('A' for Active; 'I' for Inactive)
REMARK    1  A    between atoms: C_10  and  C_11 
REMARK    2  A    between atoms: C_12  and  O_13 
ROOT
HETATM    1  C   UNL     1      44.700 -20.983   5.432  1.00  0.00     0.076 C 
HETATM    2  C   UNL     1      44.366 -20.370   4.131  1.00  0.00     0.050 A 
HETATM    3  O   UNL     1      43.555 -19.276   4.161  1.00  0.00    -0.312 OA
HETATM    4  C   UNL     1      43.349 -18.873   2.864  1.00  0.00     0.121 A 
HETATM    5  C   UNL     1      42.520 -17.763   2.525  1.00  0.00     0.163 A 
HETATM    6  N   UNL     1      42.191 -17.377   1.315  1.00  0.00    -0.221 NA
HETATM    7  C   UNL     1      41.336 -16.290   1.468  1.00  0.00     0.149 A 
HETATM    8  C   UNL     1      41.182 -16.006   2.819  1.00  0.00     0.046 A 
HETATM    9  C   UNL     1      40.446 -14.989   3.619  1.00  0.00     0.070 C 
HETATM   10  C   UNL     1      39.407 -14.119   2.897  1.00  0.00     0.045 C 
HETATM   11  C   UNL     1      38.795 -14.729   1.626  1.00  0.00     0.132 C 
HETATM   12  N   UNL     1      39.655 -14.819   0.469  1.00  0.00    -0.355 N 
HETATM   13  C   UNL     1      40.759 -15.616   0.302  1.00  0.00     0.272 C 
HETATM   14  O   UNL     1      41.222 -15.724  -0.833  1.00  0.00    -0.266 OA
HETATM   15  N   UNL     1      41.946 -16.956   3.462  1.00  0.00    -0.340 N 
HETATM   16  H   UNL     1      42.071 -17.063   4.459  1.00  0.00     0.167 HD
HETATM   17  C   UNL     1      44.049 -19.717   2.020  1.00  0.00     0.043 A 
HETATM   18  C   UNL     1      44.703 -20.674   2.831  1.00  0.00     0.035 A 
HETATM   19  H   UNL     1      39.315 -14.455  -0.411  1.00  0.00     0.162 HD
ENDROOT
BRANCH  10  20
HETATM   20  C   UNL     1      39.858 -12.658   2.785  1.00  0.00    -0.019 A 
HETATM   21  C   UNL     1      39.503 -11.714   3.778  1.00  0.00     0.074 A 
HETATM   22  C   UNL     1      39.909 -10.379   3.654  1.00  0.00     0.037 A 
HETATM   23  C   UNL     1      40.691  -9.973   2.574  1.00  0.00     0.003 A 
HETATM   24  C   UNL     1      41.084 -10.899   1.617  1.00  0.00     0.001 A 
HETATM   25  C   UNL     1      40.679 -12.230   1.727  1.00  0.00     0.010 A 
BRANCH  21  26
HETATM   26  O   UNL     1      38.758 -12.186   4.829  1.00  0.00    -0.355 OA
HETATM   27  C   UNL     1      39.380 -12.227   6.107  1.00  0.00     0.210 C 
ENDBRANCH  21  26
ENDBRANCH  10  20
TORSDOF 2
ENDMDL
MODEL 6
REMARK VINA RESULT:      -7.4      3.217      5.677
REMARK  2 active torsions:
REMARK  status: ('A' for Active; 'I' for Inactive)
REMARK    1  A    between atoms: C_10  and  C_11 
REMARK    2  A    between atoms: C_12  and  O_13 
ROOT
HETATM    1  C   UNL     1      41.766 -10.607   7.686  1.00  0.00     0.076 C 
HETATM    2  C   UNL     1      40.982 -11.529   6.839  1.00  0.00     0.050 A 
HETATM    3  O   UNL     1      41.680 -12.494   6.179  1.00  0.00    -0.312 OA
HETATM    4  C   UNL     1      40.782 -13.225   5.438  1.00  0.00     0.121 A 
HETATM    5  C   UNL     1      41.178 -14.308   4.599  1.00  0.00     0.163 A 
HETATM    6  N   UNL     1      40.404 -14.988   3.786  1.00  0.00    -0.221 NA
HETATM    7  C   UNL     1      41.223 -15.909   3.140  1.00  0.00     0.149 A 
HETATM    8  C   UNL     1      42.523 -15.787   3.614  1.00  0.00     0.046 A 
HETATM    9  C   UNL     1      43.821 -16.470   3.358  1.00  0.00     0.070 C 
HETATM   10  C   UNL     1      43.912 -17.412   2.150  1.00  0.00     0.045 C 
HETATM   11  C   UNL     1      42.921 -17.131   1.009  1.00  0.00     0.132 C 
HETATM   12  N   UNL     1      41.534 -17.445   1.263  1.00  0.00    -0.355 N 
HETATM   13  C   UNL     1      40.678 -16.829   2.139  1.00  0.00     0.272 C 
HETATM   14  O   UNL     1      39.478 -17.084   2.045  1.00  0.00    -0.266 OA
HETATM   15  N   UNL     1      42.461 -14.766   4.538  1.00  0.00    -0.340 N 
HETATM   16  H   UNL     1      43.224 -14.395   5.087  1.00  0.00     0.167 HD
HETATM   17  C   UNL     1      39.513 -12.717   5.651  1.00  0.00     0.043 A 
HETATM   18  C   UNL     1      39.640 -11.632   6.550  1.00  0.00     0.035 A 
HETATM   19  H   UNL     1      41.039 -18.011   0.585  1.00  0.00     0.162 HD
ENDROOT
BRANCH  10  20
HETATM   20  C   UNL     1      44.044 -18.879   2.573  1.00  0.00    -0.019 A 
HETATM   21  C   UNL     1      44.409 -19.220   3.897  1.00  0.00     0.074 A 
HETATM   22  C   UNL     1      44.540 -20.565   4.265  1.00  0.00     0.037 A 
HETATM   23  C   UNL     1      44.284 -21.581   3.344  1.00  0.00     0.003 A 
HETATM   24  C   UNL     1      43.882 -21.260   2.055  1.00  0.00     0.001 A 
HETATM   25  C   UNL     1      43.754 -19.922   1.676  1.00  0.00     0.010 A 
BRANCH  21  26
HETATM   26  O   UNL     1      44.618 -18.173   4.759  1.00  0.00    -0.355 OA
HETATM   27  C   UNL     1      45.024 -18.489   6.086  1.00  0.00     0.210 C 
ENDBRANCH  21  26
ENDBRANCH  10  20
TORSDOF 2
ENDMDL
MODEL 7
REMARK VINA RESULT:      -7.4      2.996      7.752
REMARK  2 active torsions:
REMARK  status: ('A' for Active; 'I' for Inactive)
REMARK    1  A    between atoms: C_10  and  C_11 
REMARK    2  A    between atoms: C_12  and  O_13 
ROOT
HETATM    1  C   UNL     1      44.902 -19.641   5.141  1.00  0.00     0.076 C 
HETATM    2  C   UNL     1      44.312 -19.411   3.807  1.00  0.00     0.050 A 
HETATM    3  O   UNL     1      43.876 -18.149   3.541  1.00  0.00    -0.312 OA
HETATM    4  C   UNL     1      43.349 -18.147   2.272  1.00  0.00     0.121 A 
HETATM    5  C   UNL     1      42.774 -16.985   1.678  1.00  0.00     0.163 A 
HETATM    6  N   UNL     1      42.161 -16.924   0.520  1.00  0.00    -0.221 NA
HETATM    7  C   UNL     1      41.726 -15.610   0.373  1.00  0.00     0.149 A 
HETATM    8  C   UNL     1      42.127 -14.863   1.474  1.00  0.00     0.046 A 
HETATM    9  C   UNL     1      42.003 -13.442   1.902  1.00  0.00     0.070 C 
HETATM   10  C   UNL     1      41.045 -12.535   1.117  1.00  0.00     0.045 C 
HETATM   11  C   UNL     1      39.896 -13.251   0.390  1.00  0.00     0.132 C 
HETATM   12  N   UNL     1      40.250 -14.032  -0.773  1.00  0.00    -0.355 N 
HETATM   13  C   UNL     1      40.980 -15.192  -0.816  1.00  0.00     0.272 C 
HETATM   14  O   UNL     1      40.979 -15.832  -1.866  1.00  0.00    -0.266 OA
HETATM   15  N   UNL     1      42.790 -15.762   2.281  1.00  0.00    -0.340 N 
HETATM   16  H   UNL     1      43.217 -15.575   3.177  1.00  0.00     0.167 HD
HETATM   17  C   UNL     1      43.470 -19.419   1.740  1.00  0.00     0.043 A 
HETATM   18  C   UNL     1      44.089 -20.228   2.722  1.00  0.00     0.035 A 
HETATM   19  H   UNL     1      39.735 -13.877  -1.629  1.00  0.00     0.162 HD
ENDROOT
BRANCH  10  20
HETATM   20  C   UNL     1      41.794 -11.475   0.302  1.00  0.00    -0.019 A 
HETATM   21  C   UNL     1      41.734 -10.108   0.663  1.00  0.00     0.074 A 
HETATM   22  C   UNL     1      42.411  -9.150  -0.100  1.00  0.00     0.037 A 
HETATM   23  C   UNL     1      43.175  -9.531  -1.203  1.00  0.00     0.003 A 
HETATM   24  C   UNL     1      43.278 -10.873  -1.542  1.00  0.00     0.001 A 
HETATM   25  C   UNL     1      42.602 -11.837  -0.791  1.00  0.00     0.010 A 
BRANCH  21  26
HETATM   26  O   UNL     1      40.989  -9.805   1.775  1.00  0.00    -0.355 OA
HETATM   27  C   UNL     1      40.606  -8.447   1.956  1.00  0.00     0.210 C 
ENDBRANCH  21  26
ENDBRANCH  10  20
TORSDOF 2
ENDMDL
MODEL 8
REMARK VINA RESULT:      -7.4      4.054      6.062
REMARK  2 active torsions:
REMARK  status: ('A' for Active; 'I' for Inactive)
REMARK    1  A    between atoms: C_10  and  C_11 
REMARK    2  A    between atoms: C_12  and  O_13 
ROOT
HETATM    1  C   UNL     1      41.065  -9.798   7.711  1.00  0.00     0.076 C 
HETATM    2  C   UNL     1      40.562 -10.865   6.823  1.00  0.00     0.050 A 
HETATM    3  O   UNL     1      41.346 -11.971   6.691  1.00  0.00    -0.312 OA
HETATM    4  C   UNL     1      40.719 -12.825   5.816  1.00  0.00     0.121 A 
HETATM    5  C   UNL     1      41.280 -14.078   5.428  1.00  0.00     0.163 A 
HETATM    6  N   UNL     1      40.799 -14.901   4.526  1.00  0.00    -0.221 NA
HETATM    7  C   UNL     1      41.695 -15.963   4.447  1.00  0.00     0.149 A 
HETATM    8  C   UNL     1      42.725 -15.772   5.359  1.00  0.00     0.046 A 
HETATM    9  C   UNL     1      43.940 -16.528   5.771  1.00  0.00     0.070 C 
HETATM   10  C   UNL     1      44.375 -17.718   4.904  1.00  0.00     0.045 C 
HETATM   11  C   UNL     1      43.924 -17.673   3.435  1.00  0.00     0.132 C 
HETATM   12  N   UNL     1      42.519 -17.888   3.181  1.00  0.00    -0.355 N 
HETATM   13  C   UNL     1      41.469 -17.069   3.513  1.00  0.00     0.272 C 
HETATM   14  O   UNL     1      40.373 -17.309   3.009  1.00  0.00    -0.266 OA
HETATM   15  N   UNL     1      42.432 -14.570   5.966  1.00  0.00    -0.340 N 
HETATM   16  H   UNL     1      42.968 -14.106   6.685  1.00  0.00     0.167 HD
HETATM   17  C   UNL     1      39.527 -12.250   5.411  1.00  0.00     0.043 A 
HETATM   18  C   UNL     1      39.425 -10.996   6.057  1.00  0.00     0.035 A 
HETATM   19  H   UNL     1      42.257 -18.577   2.489  1.00  0.00     0.162 HD
ENDROOT
BRANCH  10  20
HETATM   20  C   UNL     1      44.176 -19.057   5.623  1.00  0.00    -0.019 A 
HETATM   21  C   UNL     1      44.474 -20.278   4.973  1.00  0.00     0.074 A 
HETATM   22  C   UNL     1      44.272 -21.494   5.637  1.00  0.00     0.037 A 
HETATM   23  C   UNL     1      43.807 -21.517   6.951  1.00  0.00     0.003 A 
HETATM   24  C   UNL     1      43.553 -20.324   7.615  1.00  0.00     0.001 A 
HETATM   25  C   UNL     1      43.744 -19.106   6.960  1.00  0.00     0.010 A 
BRANCH  21  26
HETATM   26  O   UNL     1      44.956 -20.184   3.692  1.00  0.00    -0.355 OA
HETATM   27  C   UNL     1      44.650 -21.247   2.797  1.00  0.00     0.210 C 
ENDBRANCH  21  26
ENDBRANCH  10  20
TORSDOF 2
ENDMDL
MODEL 9
REMARK VINA RESULT:      -7.2      3.080      7.996
REMARK  2 active torsions:
REMARK  status: ('A' for Active; 'I' for Inactive)
REMARK    1  A    between atoms: C_10  and  C_11 
REMARK    2  A    between atoms: C_12  and  O_13 
ROOT
HETATM    1  C   UNL     1      44.206 -18.799   8.058  1.00  0.00     0.076 C 
HETATM    2  C   UNL     1      44.008 -18.773   6.595  1.00  0.00     0.050 A 
HETATM    3  O   UNL     1      43.219 -17.778   6.103  1.00  0.00    -0.312 OA
HETATM    4  C   UNL     1      43.144 -17.941   4.740  1.00  0.00     0.121 A 
HETATM    5  C   UNL     1      42.373 -17.081   3.903  1.00  0.00     0.163 A 
HETATM    6  N   UNL     1      42.166 -17.226   2.616  1.00  0.00    -0.221 NA
HETATM    7  C   UNL     1      41.322 -16.188   2.233  1.00  0.00     0.149 A 
HETATM    8  C   UNL     1      41.048 -15.383   3.332  1.00  0.00     0.046 A 
HETATM    9  C   UNL     1      40.260 -14.144   3.577  1.00  0.00     0.070 C 
HETATM   10  C   UNL     1      39.311 -13.663   2.470  1.00  0.00     0.045 C 
HETATM   11  C   UNL     1      38.809 -14.750   1.505  1.00  0.00     0.132 C 
HETATM   12  N   UNL     1      39.772 -15.284   0.571  1.00  0.00    -0.355 N 
HETATM   13  C   UNL     1      40.871 -16.057   0.846  1.00  0.00     0.272 C 
HETATM   14  O   UNL     1      41.437 -16.608  -0.098  1.00  0.00    -0.266 OA
HETATM   15  N   UNL     1      41.729 -15.975   4.373  1.00  0.00    -0.340 N 
HETATM   16  H   UNL     1      41.758 -15.665   5.335  1.00  0.00     0.167 HD
HETATM   17  C   UNL     1      43.904 -19.040   4.382  1.00  0.00     0.043 A 
HETATM   18  C   UNL     1      44.459 -19.572   5.569  1.00  0.00     0.035 A 
HETATM   19  H   UNL     1      39.524 -15.315  -0.409  1.00  0.00     0.162 HD
ENDROOT
BRANCH  10  20
HETATM   20  C   UNL     1      39.799 -12.365   1.817  1.00  0.00    -0.019 A 
HETATM   21  C   UNL     1      38.896 -11.312   1.539  1.00  0.00     0.074 A 
HETATM   22  C   UNL     1      39.353 -10.137   0.929  1.00  0.00     0.037 A 
HETATM   23  C   UNL     1      40.704  -9.979   0.618  1.00  0.00     0.003 A 
HETATM   24  C   UNL     1      41.607 -10.987   0.927  1.00  0.00     0.001 A 
HETATM   25  C   UNL     1      41.161 -12.164   1.529  1.00  0.00     0.010 A 
BRANCH  21  26
HETATM   26  O   UNL     1      37.588 -11.521   1.897  1.00  0.00    -0.355 OA
HETATM   27  C   UNL     1      36.597 -11.342   0.891  1.00  0.00     0.210 C 
ENDBRANCH  21  26
ENDBRANCH  10  20
TORSDOF 2
ENDMDL
MODEL 10
REMARK VINA RESULT:      -7.1      3.311      7.622
REMARK  2 active torsions:
REMARK  status: ('A' for Active; 'I' for Inactive)
REMARK    1  A    between atoms: C_10  and  C_11 
REMARK    2  A    between atoms: C_12  and  O_13 
ROOT
HETATM    1  C   UNL     1      44.362 -20.098   5.515  1.00  0.00     0.076 C 
HETATM    2  C   UNL     1      44.049 -19.666   4.138  1.00  0.00     0.050 A 
HETATM    3  O   UNL     1      43.269 -18.558   4.007  1.00  0.00    -0.312 OA
HETATM    4  C   UNL     1      43.078 -18.337   2.664  1.00  0.00     0.121 A 
HETATM    5  C   UNL     1      42.282 -17.264   2.166  1.00  0.00     0.163 A 
HETATM    6  N   UNL     1      41.967 -17.045   0.910  1.00  0.00    -0.221 NA
HETATM    7  C   UNL     1      41.143 -15.924   0.902  1.00  0.00     0.149 A 
HETATM    8  C   UNL     1      40.993 -15.447   2.198  1.00  0.00     0.046 A 
HETATM    9  C   UNL     1      40.283 -14.307   2.841  1.00  0.00     0.070 C 
HETATM   10  C   UNL     1      39.272 -13.520   1.995  1.00  0.00     0.045 C 
HETATM   11  C   UNL     1      38.646 -14.288   0.820  1.00  0.00     0.132 C 
HETATM   12  N   UNL     1      39.507 -14.565  -0.307  1.00  0.00    -0.355 N 
HETATM   13  C   UNL     1      40.589 -15.407  -0.352  1.00  0.00     0.272 C 
HETATM   14  O   UNL     1      41.052 -15.688  -1.456  1.00  0.00    -0.266 OA
HETATM   15  N   UNL     1      41.728 -16.317   2.974  1.00  0.00    -0.340 N 
HETATM   16  H   UNL     1      41.847 -16.285   3.977  1.00  0.00     0.167 HD
HETATM   17  C   UNL     1      43.757 -19.311   1.953  1.00  0.00     0.043 A 
HETATM   18  C   UNL     1      44.381 -20.161   2.897  1.00  0.00     0.035 A 
HETATM   19  H   UNL     1      39.180 -14.320  -1.232  1.00  0.00     0.162 HD
ENDROOT
BRANCH  10  20
HETATM   20  C   UNL     1      39.763 -12.103   1.681  1.00  0.00    -0.019 A 
HETATM   21  C   UNL     1      38.879 -11.000   1.745  1.00  0.00     0.074 A 
HETATM   22  C   UNL     1      39.339  -9.713   1.440  1.00  0.00     0.037 A 
HETATM   23  C   UNL     1      40.675  -9.498   1.102  1.00  0.00     0.003 A 
HETATM   24  C   UNL     1      41.562 -10.566   1.079  1.00  0.00     0.001 A 
HETATM   25  C   UNL     1      41.113 -11.854   1.375  1.00  0.00     0.010 A 
BRANCH  21  26
HETATM   26  O   UNL     1      37.586 -11.277   2.112  1.00  0.00    -0.355 OA
HETATM   27  C   UNL     1      36.547 -10.632   1.385  1.00  0.00     0.210 C 
ENDBRANCH  21  26
ENDBRANCH  10  20
TORSDOF 2
ENDMDL
