MODEL 1
REMARK VINA RESULT:      -8.1      0.000      0.000
REMARK  6 active torsions:
REMARK  status: ('A' for Active; 'I' for Inactive)
REMARK    1  A    between atoms: C_5  and  N_6 
REMARK    2  A    between atoms: N_6  and  C_7 
REMARK    3  A    between atoms: C_7  and  C_8 
REMARK    4  A    between atoms: N_10  and  C_12 
REMARK    5  A    between atoms: C_12  and  C_13 
REMARK    6  A    between atoms: C_14  and  O_15 
ROOT
HETATM    1  C   UNL     1      43.231 -14.442   6.166  1.00  0.00     0.026 C 
HETATM    2  C   UNL     1      43.499 -15.099   4.816  1.00  0.00     0.241 C 
HETATM    3  N   UNL     1      42.126 -15.218   4.202  1.00  0.00    -0.067 N 
HETATM    4  H   UNL     1      42.180 -14.967   3.198  1.00  0.00     0.280 HD
HETATM    5  C   UNL     1      41.216 -14.221   4.891  1.00  0.00     0.235 C 
HETATM    6  C   UNL     1      42.145 -13.433   5.804  1.00  0.00     0.035 C 
ENDROOT
BRANCH   1   7
HETATM    7  C   UNL     1      44.458 -13.801   6.822  1.00  0.00     0.100 C 
BRANCH   7   8
HETATM    8  N   UNL     1      44.403 -13.967   8.269  1.00  0.00    -0.279 NA
HETATM    9  H   UNL     1      43.587 -14.497   8.592  1.00  0.00     0.129 HD
BRANCH   8  10
HETATM   10  C   UNL     1      44.606 -12.896   9.148  1.00  0.00     0.080 A 
HETATM   11  N   UNL     1      43.852 -12.689  10.242  1.00  0.00    -0.351 N 
HETATM   12  C   UNL     1      44.045 -11.667  11.101  1.00  0.00     0.006 A 
HETATM   13  H   UNL     1      43.107 -13.343  10.450  1.00  0.00     0.167 HD
HETATM   14  C   UNL     1      43.182 -11.566  12.318  1.00  0.00     0.068 C 
HETATM   15  C   UNL     1      45.054 -10.740  10.843  1.00  0.00     0.024 A 
HETATM   16  C   UNL     1      45.841 -10.889   9.710  1.00  0.00     0.005 A 
HETATM   17  C   UNL     1      45.616 -11.970   8.863  1.00  0.00     0.042 A 
ENDBRANCH   8  10
ENDBRANCH   7   8
ENDBRANCH   1   7
BRANCH   3  18
HETATM   18  C   UNL     1      41.575 -16.626   4.166  1.00  0.00     0.276 C 
BRANCH  18  19
HETATM   19  C   UNL     1      42.512 -17.618   3.538  1.00  0.00     0.002 A 
HETATM   20  C   UNL     1      43.150 -18.597   4.312  1.00  0.00     0.091 A 
HETATM   21  C   UNL     1      43.991 -19.546   3.723  1.00  0.00     0.044 A 
HETATM   22 BR   UNL     1      44.846 -20.864   4.776  1.00  0.00    -0.048 Br
HETATM   23  C   UNL     1      44.209 -19.522   2.348  1.00  0.00     0.022 A 
HETATM   24  C   UNL     1      43.583 -18.553   1.564  1.00  0.00     0.002 A 
HETATM   25  C   UNL     1      42.735 -17.610   2.153  1.00  0.00     0.012 A 
BRANCH  20  26
HETATM   26  O   UNL     1      42.934 -18.575   5.670  1.00  0.00    -0.359 OA
HETATM   27  H   UNL     1      42.124 -18.033   5.807  1.00  0.00     0.218 HD
ENDBRANCH  20  26
ENDBRANCH  18  19
ENDBRANCH   3  18
TORSDOF 6
ENDMDL
MODEL 2
REMARK VINA RESULT:      -7.9      4.364      7.431
REMARK  6 active torsions:
REMARK  status: ('A' for Active; 'I' for Inactive)
REMARK    1  A    between atoms: C_5  and  N_6 
REMARK    2  A    between atoms: N_6  and  C_7 
REMARK    3  A    between atoms: C_7  and  C_8 
REMARK    4  A    between atoms: N_10  and  C_12 
REMARK    5  A    between atoms: C_12  and  C_13 
REMARK    6  A    between atoms: C_14  and  O_15 
ROOT
HETATM    1  C   UNL     1      41.339 -15.389   3.771  1.00  0.00     0.026 C 
HETATM    2  C   UNL     1      41.403 -16.891   3.515  1.00  0.00     0.241 C 
HETATM    3  N   UNL     1      42.681 -17.312   4.197  1.00  0.00    -0.067 N 
HETATM    4  H   UNL     1      42.521 -18.207   4.696  1.00  0.00     0.280 HD
HETATM    5  C   UNL     1      43.034 -16.256   5.224  1.00  0.00     0.235 C 
HETATM    6  C   UNL     1      41.846 -15.304   5.208  1.00  0.00     0.035 C 
ENDROOT
BRANCH   1   7
HETATM    7  C   UNL     1      39.953 -14.765   3.582  1.00  0.00     0.100 C 
BRANCH   7   8
HETATM    8  N   UNL     1      39.241 -15.433   2.500  1.00  0.00    -0.279 NA
HETATM    9  H   UNL     1      39.506 -16.417   2.378  1.00  0.00     0.129 HD
BRANCH   8  10
HETATM   10  C   UNL     1      39.107 -14.856   1.231  1.00  0.00     0.080 A 
HETATM   11  N   UNL     1      40.028 -14.987   0.260  1.00  0.00    -0.351 N 
HETATM   12  C   UNL     1      39.903 -14.444  -0.968  1.00  0.00     0.006 A 
HETATM   13  H   UNL     1      40.857 -15.539   0.449  1.00  0.00     0.167 HD
HETATM   14  C   UNL     1      40.965 -14.703  -1.989  1.00  0.00     0.068 C 
HETATM   15  C   UNL     1      38.782 -13.670  -1.261  1.00  0.00     0.024 A 
HETATM   16  C   UNL     1      37.815 -13.477  -0.285  1.00  0.00     0.005 A 
HETATM   17  C   UNL     1      37.978 -14.072   0.961  1.00  0.00     0.042 A 
ENDBRANCH   8  10
ENDBRANCH   7   8
ENDBRANCH   1   7
BRANCH   3  18
HETATM   18  C   UNL     1      43.813 -17.653   3.255  1.00  0.00     0.276 C 
BRANCH  18  19
HETATM   19  C   UNL     1      43.977 -19.129   3.027  1.00  0.00     0.002 A 
HETATM   20  C   UNL     1      44.451 -19.966   4.046  1.00  0.00     0.091 A 
HETATM   21  C   UNL     1      44.567 -21.346   3.849  1.00  0.00     0.044 A 
HETATM   22 BR   UNL     1      45.207 -22.468   5.231  1.00  0.00    -0.048 Br
HETATM   23  C   UNL     1      44.213 -21.904   2.623  1.00  0.00     0.022 A 
HETATM   24  C   UNL     1      43.741 -21.084   1.599  1.00  0.00     0.002 A 
HETATM   25  C   UNL     1      43.618 -19.706   1.800  1.00  0.00     0.012 A 
BRANCH  20  26
HETATM   26  O   UNL     1      44.817 -19.379   5.234  1.00  0.00    -0.359 OA
HETATM   27  H   UNL     1      45.588 -18.804   5.026  1.00  0.00     0.218 HD
ENDBRANCH  20  26
ENDBRANCH  18  19
ENDBRANCH   3  18
TORSDOF 6
ENDMDL
MODEL 3
REMARK VINA RESULT:      -7.8      4.158      7.322
REMARK  6 active torsions:
REMARK  status: ('A' for Active; 'I' for Inactive)
REMARK    1  A    between atoms: C_5  and  N_6 
REMARK    2  A    between atoms: N_6  and  C_7 
REMARK    3  A    between atoms: C_7  and  C_8 
REMARK    4  A    between atoms: N_10  and  C_12 
REMARK    5  A    between atoms: C_12  and  C_13 
REMARK    6  A    between atoms: C_14  and  O_15 
ROOT
HETATM    1  C   UNL     1      41.508 -15.802   1.642  1.00  0.00     0.026 C 
HETATM    2  C   UNL     1      40.680 -16.325   2.811  1.00  0.00     0.241 C 
HETATM    3  N   UNL     1      39.668 -15.231   3.045  1.00  0.00    -0.067 N 
HETATM    4  H   UNL     1      38.741 -15.659   3.229  1.00  0.00     0.280 HD
HETATM    5  C   UNL     1      39.566 -14.407   1.778  1.00  0.00     0.235 C 
HETATM    6  C   UNL     1      40.434 -15.152   0.774  1.00  0.00     0.035 C 
ENDROOT
BRANCH   1   7
HETATM    7  C   UNL     1      42.319 -16.869   0.902  1.00  0.00     0.100 C 
BRANCH   7   8
HETATM    8  N   UNL     1      43.606 -17.070   1.556  1.00  0.00    -0.279 NA
HETATM    9  H   UNL     1      44.411 -16.909   0.941  1.00  0.00     0.129 HD
BRANCH   8  10
HETATM   10  C   UNL     1      43.873 -18.200   2.339  1.00  0.00     0.080 A 
HETATM   11  N   UNL     1      43.943 -19.445   1.836  1.00  0.00    -0.351 N 
HETATM   12  C   UNL     1      44.210 -20.539   2.580  1.00  0.00     0.006 A 
HETATM   13  H   UNL     1      43.807 -19.575   0.841  1.00  0.00     0.167 HD
HETATM   14  C   UNL     1      44.320 -21.868   1.905  1.00  0.00     0.068 C 
HETATM   15  C   UNL     1      44.392 -20.401   3.955  1.00  0.00     0.024 A 
HETATM   16  C   UNL     1      44.300 -19.142   4.530  1.00  0.00     0.005 A 
HETATM   17  C   UNL     1      44.041 -18.041   3.721  1.00  0.00     0.042 A 
ENDBRANCH   8  10
ENDBRANCH   7   8
ENDBRANCH   1   7
BRANCH   3  18
HETATM   18  C   UNL     1      39.909 -14.410   4.292  1.00  0.00     0.276 C 
BRANCH  18  19
HETATM   19  C   UNL     1      41.244 -14.674   4.930  1.00  0.00     0.002 A 
HETATM   20  C   UNL     1      41.404 -15.708   5.863  1.00  0.00     0.091 A 
HETATM   21  C   UNL     1      42.654 -15.980   6.429  1.00  0.00     0.044 A 
HETATM   22 BR   UNL     1      42.861 -17.379   7.684  1.00  0.00    -0.048 Br
HETATM   23  C   UNL     1      43.760 -15.213   6.070  1.00  0.00     0.022 A 
HETATM   24  C   UNL     1      43.616 -14.179   5.145  1.00  0.00     0.002 A 
HETATM   25  C   UNL     1      42.368 -13.914   4.574  1.00  0.00     0.012 A 
BRANCH  20  26
HETATM   26  O   UNL     1      40.286 -16.428   6.214  1.00  0.00    -0.359 OA
HETATM   27  H   UNL     1      39.613 -15.765   6.489  1.00  0.00     0.218 HD
ENDBRANCH  20  26
ENDBRANCH  18  19
ENDBRANCH   3  18
TORSDOF 6
ENDMDL
MODEL 4
REMARK VINA RESULT:      -7.8      4.980      8.730
REMARK  6 active torsions:
REMARK  status: ('A' for Active; 'I' for Inactive)
REMARK    1  A    between atoms: C_5  and  N_6 
REMARK    2  A    between atoms: N_6  and  C_7 
REMARK    3  A    between atoms: C_7  and  C_8 
REMARK    4  A    between atoms: N_10  and  C_12 
REMARK    5  A    between atoms: C_12  and  C_13 
REMARK    6  A    between atoms: C_14  and  O_15 
ROOT
HETATM    1  C   UNL     1      40.466 -14.930   2.210  1.00  0.00     0.026 C 
HETATM    2  C   UNL     1      40.900 -16.391   2.173  1.00  0.00     0.241 C 
HETATM    3  N   UNL     1      41.671 -16.563   3.458  1.00  0.00    -0.067 N 
HETATM    4  H   UNL     1      41.420 -17.474   3.886  1.00  0.00     0.280 HD
HETATM    5  C   UNL     1      41.251 -15.461   4.409  1.00  0.00     0.235 C 
HETATM    6  C   UNL     1      40.115 -14.753   3.684  1.00  0.00     0.035 C 
ENDROOT
BRANCH   1   7
HETATM    7  C   UNL     1      39.310 -14.580   1.267  1.00  0.00     0.100 C 
BRANCH   7   8
HETATM    8  N   UNL     1      39.813 -13.891   0.085  1.00  0.00    -0.279 NA
HETATM    9  H   UNL     1      39.510 -12.913   0.019  1.00  0.00     0.129 HD
BRANCH   8  10
HETATM   10  C   UNL     1      39.741 -14.459  -1.193  1.00  0.00     0.080 A 
HETATM   11  N   UNL     1      38.626 -14.445  -1.943  1.00  0.00    -0.351 N 
HETATM   12  C   UNL     1      38.549 -14.980  -3.179  1.00  0.00     0.006 A 
HETATM   13  H   UNL     1      37.797 -13.993  -1.574  1.00  0.00     0.167 HD
HETATM   14  C   UNL     1      37.272 -14.856  -3.948  1.00  0.00     0.068 C 
HETATM   15  C   UNL     1      39.665 -15.620  -3.717  1.00  0.00     0.024 A 
HETATM   16  C   UNL     1      40.833 -15.690  -2.971  1.00  0.00     0.005 A 
HETATM   17  C   UNL     1      40.870 -15.108  -1.708  1.00  0.00     0.042 A 
ENDBRANCH   8  10
ENDBRANCH   7   8
ENDBRANCH   1   7
BRANCH   3  18
HETATM   18  C   UNL     1      43.168 -16.679   3.280  1.00  0.00     0.276 C 
BRANCH  18  19
HETATM   19  C   UNL     1      43.715 -18.020   3.683  1.00  0.00     0.002 A 
HETATM   20  C   UNL     1      43.715 -19.097   2.786  1.00  0.00     0.091 A 
HETATM   21  C   UNL     1      44.259 -20.334   3.146  1.00  0.00     0.044 A 
HETATM   22 BR   UNL     1      44.256 -21.781   1.928  1.00  0.00    -0.048 Br
HETATM   23  C   UNL     1      44.808 -20.508   4.415  1.00  0.00     0.022 A 
HETATM   24  C   UNL     1      44.813 -19.447   5.319  1.00  0.00     0.002 A 
HETATM   25  C   UNL     1      44.277 -18.208   4.955  1.00  0.00     0.012 A 
BRANCH  20  26
HETATM   26  O   UNL     1      43.142 -18.898   1.552  1.00  0.00    -0.359 OA
HETATM   27  H   UNL     1      43.584 -19.530   0.943  1.00  0.00     0.218 HD
ENDBRANCH  20  26
ENDBRANCH  18  19
ENDBRANCH   3  18
TORSDOF 6
ENDMDL
MODEL 5
REMARK VINA RESULT:      -7.7      2.371      2.827
REMARK  6 active torsions:
REMARK  status: ('A' for Active; 'I' for Inactive)
REMARK    1  A    between atoms: C_5  and  N_6 
REMARK    2  A    between atoms: N_6  and  C_7 
REMARK    3  A    between atoms: C_7  and  C_8 
REMARK    4  A    between atoms: N_10  and  C_12 
REMARK    5  A    between atoms: C_12  and  C_13 
REMARK    6  A    between atoms: C_14  and  O_15 
ROOT
HETATM    1  C   UNL     1      43.535 -15.425   5.821  1.00  0.00     0.026 C 
HETATM    2  C   UNL     1      42.087 -15.784   6.138  1.00  0.00     0.241 C 
HETATM    3  N   UNL     1      42.108 -17.289   6.233  1.00  0.00    -0.067 N 
HETATM    4  H   UNL     1      41.525 -17.587   7.038  1.00  0.00     0.280 HD
HETATM    5  C   UNL     1      43.536 -17.723   6.497  1.00  0.00     0.235 C 
HETATM    6  C   UNL     1      44.294 -16.418   6.697  1.00  0.00     0.035 C 
ENDROOT
BRANCH   1   7
HETATM    7  C   UNL     1      43.910 -13.966   6.097  1.00  0.00     0.100 C 
BRANCH   7   8
HETATM    8  N   UNL     1      44.785 -13.880   7.259  1.00  0.00    -0.279 NA
HETATM    9  H   UNL     1      44.840 -14.751   7.798  1.00  0.00     0.129 HD
BRANCH   8  10
HETATM   10  C   UNL     1      44.720 -12.810   8.161  1.00  0.00     0.080 A 
HETATM   11  N   UNL     1      43.570 -12.204   8.503  1.00  0.00    -0.351 N 
HETATM   12  C   UNL     1      43.495 -11.181   9.379  1.00  0.00     0.006 A 
HETATM   13  H   UNL     1      42.704 -12.542   8.099  1.00  0.00     0.167 HD
HETATM   14  C   UNL     1      42.154 -10.620   9.729  1.00  0.00     0.068 C 
HETATM   15  C   UNL     1      44.666 -10.682   9.947  1.00  0.00     0.024 A 
HETATM   16  C   UNL     1      45.884 -11.251   9.603  1.00  0.00     0.005 A 
HETATM   17  C   UNL     1      45.910 -12.317   8.710  1.00  0.00     0.042 A 
ENDBRANCH   8  10
ENDBRANCH   7   8
ENDBRANCH   1   7
BRANCH   3  18
HETATM   18  C   UNL     1      41.458 -18.000   5.068  1.00  0.00     0.276 C 
BRANCH  18  19
HETATM   19  C   UNL     1      42.149 -17.752   3.757  1.00  0.00     0.002 A 
HETATM   20  C   UNL     1      41.598 -16.881   2.806  1.00  0.00     0.091 A 
HETATM   21  C   UNL     1      42.259 -16.618   1.602  1.00  0.00     0.044 A 
HETATM   22 BR   UNL     1      41.509 -15.440   0.327  1.00  0.00    -0.048 Br
HETATM   23  C   UNL     1      43.481 -17.231   1.333  1.00  0.00     0.022 A 
HETATM   24  C   UNL     1      44.040 -18.102   2.268  1.00  0.00     0.002 A 
HETATM   25  C   UNL     1      43.382 -18.357   3.475  1.00  0.00     0.012 A 
BRANCH  20  26
HETATM   26  O   UNL     1      40.379 -16.314   3.093  1.00  0.00    -0.359 OA
HETATM   27  H   UNL     1      39.822 -17.039   3.458  1.00  0.00     0.218 HD
ENDBRANCH  20  26
ENDBRANCH  18  19
ENDBRANCH   3  18
TORSDOF 6
ENDMDL
MODEL 6
REMARK VINA RESULT:      -7.6      5.057      8.461
REMARK  6 active torsions:
REMARK  status: ('A' for Active; 'I' for Inactive)
REMARK    1  A    between atoms: C_5  and  N_6 
REMARK    2  A    between atoms: N_6  and  C_7 
REMARK    3  A    between atoms: C_7  and  C_8 
REMARK    4  A    between atoms: N_10  and  C_12 
REMARK    5  A    between atoms: C_12  and  C_13 
REMARK    6  A    between atoms: C_14  and  O_15 
ROOT
HETATM    1  C   UNL     1      40.962 -15.638   2.348  1.00  0.00     0.026 C 
HETATM    2  C   UNL     1      41.195 -17.139   2.210  1.00  0.00     0.241 C 
HETATM    3  N   UNL     1      42.075 -17.470   3.390  1.00  0.00    -0.067 N 
HETATM    4  H   UNL     1      41.756 -18.362   3.813  1.00  0.00     0.280 HD
HETATM    5  C   UNL     1      41.909 -16.373   4.422  1.00  0.00     0.235 C 
HETATM    6  C   UNL     1      40.802 -15.492   3.859  1.00  0.00     0.035 C 
ENDROOT
BRANCH   1   7
HETATM    7  C   UNL     1      39.765 -15.100   1.559  1.00  0.00     0.100 C 
BRANCH   7   8
HETATM    8  N   UNL     1      40.220 -14.247   0.468  1.00  0.00    -0.279 NA
HETATM    9  H   UNL     1      39.946 -13.264   0.573  1.00  0.00     0.129 HD
BRANCH   8  10
HETATM   10  C   UNL     1      40.057 -14.607  -0.875  1.00  0.00     0.080 A 
HETATM   11  N   UNL     1      38.935 -14.358  -1.573  1.00  0.00    -0.351 N 
HETATM   12  C   UNL     1      38.772 -14.692  -2.870  1.00  0.00     0.006 A 
HETATM   13  H   UNL     1      38.172 -13.877  -1.111  1.00  0.00     0.167 HD
HETATM   14  C   UNL     1      37.502 -14.314  -3.564  1.00  0.00     0.068 C 
HETATM   15  C   UNL     1      39.795 -15.364  -3.536  1.00  0.00     0.024 A 
HETATM   16  C   UNL     1      40.963 -15.674  -2.853  1.00  0.00     0.005 A 
HETATM   17  C   UNL     1      41.093 -15.293  -1.521  1.00  0.00     0.042 A 
ENDBRANCH   8  10
ENDBRANCH   7   8
ENDBRANCH   1   7
BRANCH   3  18
HETATM   18  C   UNL     1      43.515 -17.764   3.036  1.00  0.00     0.276 C 
BRANCH  18  19
HETATM   19  C   UNL     1      43.804 -19.231   2.882  1.00  0.00     0.002 A 
HETATM   20  C   UNL     1      44.315 -19.980   3.951  1.00  0.00     0.091 A 
HETATM   21  C   UNL     1      44.548 -21.353   3.821  1.00  0.00     0.044 A 
HETATM   22 BR   UNL     1      45.236 -22.357   5.269  1.00  0.00    -0.048 Br
HETATM   23  C   UNL     1      44.276 -21.993   2.614  1.00  0.00     0.022 A 
HETATM   24  C   UNL     1      43.769 -21.260   1.541  1.00  0.00     0.002 A 
HETATM   25  C   UNL     1      43.529 -19.889   1.674  1.00  0.00     0.012 A 
BRANCH  20  26
HETATM   26  O   UNL     1      44.598 -19.313   5.119  1.00  0.00    -0.359 OA
HETATM   27  H   UNL     1      43.781 -18.817   5.352  1.00  0.00     0.218 HD
ENDBRANCH  20  26
ENDBRANCH  18  19
ENDBRANCH   3  18
TORSDOF 6
ENDMDL
MODEL 7
REMARK VINA RESULT:      -7.5      6.633      9.013
REMARK  6 active torsions:
REMARK  status: ('A' for Active; 'I' for Inactive)
REMARK    1  A    between atoms: C_5  and  N_6 
REMARK    2  A    between atoms: N_6  and  C_7 
REMARK    3  A    between atoms: C_7  and  C_8 
REMARK    4  A    between atoms: N_10  and  C_12 
REMARK    5  A    between atoms: C_12  and  C_13 
REMARK    6  A    between atoms: C_14  and  O_15 
ROOT
HETATM    1  C   UNL     1      41.044 -16.253   1.457  1.00  0.00     0.026 C 
HETATM    2  C   UNL     1      41.913 -16.603   0.254  1.00  0.00     0.241 C 
HETATM    3  N   UNL     1      41.802 -15.384  -0.629  1.00  0.00    -0.067 N 
HETATM    4  H   UNL     1      42.737 -15.163  -1.021  1.00  0.00     0.280 HD
HETATM    5  C   UNL     1      41.363 -14.219   0.234  1.00  0.00     0.235 C 
HETATM    6  C   UNL     1      41.373 -14.775   1.651  1.00  0.00     0.035 C 
ENDROOT
BRANCH   1   7
HETATM    7  C   UNL     1      41.308 -17.099   2.706  1.00  0.00     0.100 C 
BRANCH   7   8
HETATM    8  N   UNL     1      42.735 -17.132   3.003  1.00  0.00    -0.279 NA
HETATM    9  H   UNL     1      43.304 -16.585   2.348  1.00  0.00     0.129 HD
BRANCH   8  10
HETATM   10  C   UNL     1      43.409 -18.328   3.277  1.00  0.00     0.080 A 
HETATM   11  N   UNL     1      43.402 -19.385   2.446  1.00  0.00    -0.351 N 
HETATM   12  C   UNL     1      44.058 -20.537   2.696  1.00  0.00     0.006 A 
HETATM   13  H   UNL     1      42.894 -19.312   1.573  1.00  0.00     0.167 HD
HETATM   14  C   UNL     1      44.028 -21.627   1.673  1.00  0.00     0.068 C 
HETATM   15  C   UNL     1      44.759 -20.678   3.892  1.00  0.00     0.024 A 
HETATM   16  C   UNL     1      44.772 -19.629   4.800  1.00  0.00     0.005 A 
HETATM   17  C   UNL     1      44.097 -18.453   4.491  1.00  0.00     0.042 A 
ENDBRANCH   8  10
ENDBRANCH   7   8
ENDBRANCH   1   7
BRANCH   3  18
HETATM   18  C   UNL     1      40.958 -15.581  -1.867  1.00  0.00     0.276 C 
BRANCH  18  19
HETATM   19  C   UNL     1      40.540 -14.292  -2.516  1.00  0.00     0.002 A 
HETATM   20  C   UNL     1      41.484 -13.455  -3.128  1.00  0.00     0.091 A 
HETATM   21  C   UNL     1      41.092 -12.274  -3.767  1.00  0.00     0.044 A 
HETATM   22 BR   UNL     1      42.372 -11.152  -4.590  1.00  0.00    -0.048 Br
HETATM   23  C   UNL     1      39.746 -11.915  -3.797  1.00  0.00     0.022 A 
HETATM   24  C   UNL     1      38.796 -12.737  -3.191  1.00  0.00     0.002 A 
HETATM   25  C   UNL     1      39.188 -13.921  -2.560  1.00  0.00     0.012 A 
BRANCH  20  26
HETATM   26  O   UNL     1      42.805 -13.826  -3.056  1.00  0.00    -0.359 OA
HETATM   27  H   UNL     1      42.922 -14.543  -3.720  1.00  0.00     0.218 HD
ENDBRANCH  20  26
ENDBRANCH  18  19
ENDBRANCH   3  18
TORSDOF 6
ENDMDL
MODEL 8
REMARK VINA RESULT:      -7.5      5.775      8.501
REMARK  6 active torsions:
REMARK  status: ('A' for Active; 'I' for Inactive)
REMARK    1  A    between atoms: C_5  and  N_6 
REMARK    2  A    between atoms: N_6  and  C_7 
REMARK    3  A    between atoms: C_7  and  C_8 
REMARK    4  A    between atoms: N_10  and  C_12 
REMARK    5  A    between atoms: C_12  and  C_13 
REMARK    6  A    between atoms: C_14  and  O_15 
ROOT
HETATM    1  C   UNL     1      42.300 -16.355   3.409  1.00  0.00     0.026 C 
HETATM    2  C   UNL     1      42.486 -16.393   1.896  1.00  0.00     0.241 C 
HETATM    3  N   UNL     1      42.266 -14.960   1.477  1.00  0.00    -0.067 N 
HETATM    4  H   UNL     1      42.971 -14.704   0.760  1.00  0.00     0.280 HD
HETATM    5  C   UNL     1      42.484 -14.078   2.689  1.00  0.00     0.235 C 
HETATM    6  C   UNL     1      42.977 -15.035   3.766  1.00  0.00     0.035 C 
ENDROOT
BRANCH   1   7
HETATM    7  C   UNL     1      42.886 -17.556   4.158  1.00  0.00     0.100 C 
BRANCH   7   8
HETATM    8  N   UNL     1      43.975 -18.148   3.390  1.00  0.00    -0.279 NA
HETATM    9  H   UNL     1      44.123 -17.705   2.478  1.00  0.00     0.129 HD
BRANCH   8  10
HETATM   10  C   UNL     1      44.104 -19.533   3.231  1.00  0.00     0.080 A 
HETATM   11  N   UNL     1      44.601 -20.341   4.184  1.00  0.00    -0.351 N 
HETATM   12  C   UNL     1      44.720 -21.677   4.045  1.00  0.00     0.006 A 
HETATM   13  H   UNL     1      44.887 -19.932   5.067  1.00  0.00     0.167 HD
HETATM   14  C   UNL     1      45.233 -22.485   5.194  1.00  0.00     0.068 C 
HETATM   15  C   UNL     1      44.348 -22.274   2.841  1.00  0.00     0.024 A 
HETATM   16  C   UNL     1      43.859 -21.481   1.813  1.00  0.00     0.005 A 
HETATM   17  C   UNL     1      43.736 -20.110   2.009  1.00  0.00     0.042 A 
ENDBRANCH   8  10
ENDBRANCH   7   8
ENDBRANCH   1   7
BRANCH   3  18
HETATM   18  C   UNL     1      40.957 -14.708   0.764  1.00  0.00     0.276 C 
BRANCH  18  19
HETATM   19  C   UNL     1      41.113 -14.507  -0.717  1.00  0.00     0.002 A 
HETATM   20  C   UNL     1      41.575 -13.289  -1.234  1.00  0.00     0.091 A 
HETATM   21  C   UNL     1      41.758 -13.113  -2.609  1.00  0.00     0.044 A 
HETATM   22 BR   UNL     1      42.385 -11.467  -3.297  1.00  0.00    -0.048 Br
HETATM   23  C   UNL     1      41.474 -14.158  -3.486  1.00  0.00     0.022 A 
HETATM   24  C   UNL     1      41.011 -15.375  -2.987  1.00  0.00     0.002 A 
HETATM   25  C   UNL     1      40.836 -15.552  -1.611  1.00  0.00     0.012 A 
BRANCH  20  26
HETATM   26  O   UNL     1      41.821 -12.272  -0.342  1.00  0.00    -0.359 OA
HETATM   27  H   UNL     1      41.537 -12.608   0.538  1.00  0.00     0.218 HD
ENDBRANCH  20  26
ENDBRANCH  18  19
ENDBRANCH   3  18
TORSDOF 6
ENDMDL
MODEL 9
REMARK VINA RESULT:      -7.5      1.622      2.160
REMARK  6 active torsions:
REMARK  status: ('A' for Active; 'I' for Inactive)
REMARK    1  A    between atoms: C_5  and  N_6 
REMARK    2  A    between atoms: N_6  and  C_7 
REMARK    3  A    between atoms: C_7  and  C_8 
REMARK    4  A    between atoms: N_10  and  C_12 
REMARK    5  A    between atoms: C_12  and  C_13 
REMARK    6  A    between atoms: C_14  and  O_15 
ROOT
HETATM    1  C   UNL     1      43.562 -14.455   6.495  1.00  0.00     0.026 C 
HETATM    2  C   UNL     1      43.941 -15.617   5.584  1.00  0.00     0.241 C 
HETATM    3  N   UNL     1      42.662 -15.919   4.843  1.00  0.00    -0.067 N 
HETATM    4  H   UNL     1      42.882 -16.103   3.846  1.00  0.00     0.280 HD
HETATM    5  C   UNL     1      41.779 -14.690   4.913  1.00  0.00     0.235 C 
HETATM    6  C   UNL     1      42.652 -13.637   5.583  1.00  0.00     0.035 C 
ENDROOT
BRANCH   1   7
HETATM    7  C   UNL     1      44.748 -13.654   7.041  1.00  0.00     0.100 C 
BRANCH   7   8
HETATM    8  N   UNL     1      44.713 -13.628   8.497  1.00  0.00    -0.279 NA
HETATM    9  H   UNL     1      44.200 -14.414   8.911  1.00  0.00     0.129 HD
BRANCH   8  10
HETATM   10  C   UNL     1      44.389 -12.468   9.213  1.00  0.00     0.080 A 
HETATM   11  N   UNL     1      43.344 -11.680   8.904  1.00  0.00    -0.351 N 
HETATM   12  C   UNL     1      43.017 -10.567   9.593  1.00  0.00     0.006 A 
HETATM   13  H   UNL     1      42.753 -11.941   8.123  1.00  0.00     0.167 HD
HETATM   14  C   UNL     1      41.798  -9.798   9.196  1.00  0.00     0.068 C 
HETATM   15  C   UNL     1      43.812 -10.171  10.667  1.00  0.00     0.024 A 
HETATM   16  C   UNL     1      44.922 -10.931  11.008  1.00  0.00     0.005 A 
HETATM   17  C   UNL     1      45.209 -12.081  10.280  1.00  0.00     0.042 A 
ENDBRANCH   8  10
ENDBRANCH   7   8
ENDBRANCH   1   7
BRANCH   3  18
HETATM   18  C   UNL     1      41.973 -17.193   5.275  1.00  0.00     0.276 C 
BRANCH  18  19
HETATM   19  C   UNL     1      42.854 -18.407   5.192  1.00  0.00     0.002 A 
HETATM   20  C   UNL     1      43.195 -18.966   3.952  1.00  0.00     0.091 A 
HETATM   21  C   UNL     1      44.047 -20.071   3.870  1.00  0.00     0.044 A 
HETATM   22 BR   UNL     1      44.502 -20.817   2.192  1.00  0.00    -0.048 Br
HETATM   23  C   UNL     1      44.566 -20.635   5.033  1.00  0.00     0.022 A 
HETATM   24  C   UNL     1      44.235 -20.091   6.274  1.00  0.00     0.002 A 
HETATM   25  C   UNL     1      43.390 -18.981   6.354  1.00  0.00     0.012 A 
BRANCH  20  26
HETATM   26  O   UNL     1      42.643 -18.401   2.826  1.00  0.00    -0.359 OA
HETATM   27  H   UNL     1      41.752 -18.081   3.092  1.00  0.00     0.218 HD
ENDBRANCH  20  26
ENDBRANCH  18  19
ENDBRANCH   3  18
TORSDOF 6
ENDMDL
MODEL 10
REMARK VINA RESULT:      -7.4      6.059      8.463
REMARK  6 active torsions:
REMARK  status: ('A' for Active; 'I' for Inactive)
REMARK    1  A    between atoms: C_5  and  N_6 
REMARK    2  A    between atoms: N_6  and  C_7 
REMARK    3  A    between atoms: C_7  and  C_8 
REMARK    4  A    between atoms: N_10  and  C_12 
REMARK    5  A    between atoms: C_12  and  C_13 
REMARK    6  A    between atoms: C_14  and  O_15 
ROOT
HETATM    1  C   UNL     1      42.476 -16.639   2.099  1.00  0.00     0.026 C 
HETATM    2  C   UNL     1      41.851 -16.250   3.434  1.00  0.00     0.241 C 
HETATM    3  N   UNL     1      40.389 -16.077   3.104  1.00  0.00    -0.067 N 
HETATM    4  H   UNL     1      39.817 -16.496   3.861  1.00  0.00     0.280 HD
HETATM    5  C   UNL     1      40.105 -16.834   1.822  1.00  0.00     0.235 C 
HETATM    6  C   UNL     1      41.408 -17.561   1.519  1.00  0.00     0.035 C 
ENDROOT
BRANCH   1   7
HETATM    7  C   UNL     1      43.853 -17.300   2.204  1.00  0.00     0.100 C 
BRANCH   7   8
HETATM    8  N   UNL     1      43.897 -18.199   3.351  1.00  0.00    -0.279 NA
HETATM    9  H   UNL     1      44.508 -17.871   4.107  1.00  0.00     0.129 HD
BRANCH   8  10
HETATM   10  C   UNL     1      44.079 -19.580   3.207  1.00  0.00     0.080 A 
HETATM   11  N   UNL     1      44.562 -20.365   4.186  1.00  0.00    -0.351 N 
HETATM   12  C   UNL     1      44.732 -21.697   4.061  1.00  0.00     0.006 A 
HETATM   13  H   UNL     1      44.797 -19.942   5.076  1.00  0.00     0.167 HD
HETATM   14  C   UNL     1      45.222 -22.481   5.236  1.00  0.00     0.068 C 
HETATM   15  C   UNL     1      44.431 -22.313   2.847  1.00  0.00     0.024 A 
HETATM   16  C   UNL     1      43.959 -21.543   1.793  1.00  0.00     0.005 A 
HETATM   17  C   UNL     1      43.783 -20.176   1.974  1.00  0.00     0.042 A 
ENDBRANCH   8  10
ENDBRANCH   7   8
ENDBRANCH   1   7
BRANCH   3  18
HETATM   18  C   UNL     1      39.917 -14.641   3.083  1.00  0.00     0.276 C 
BRANCH  18  19
HETATM   19  C   UNL     1      39.507 -14.166   1.718  1.00  0.00     0.002 A 
HETATM   20  C   UNL     1      40.445 -13.614   0.835  1.00  0.00     0.091 A 
HETATM   21  C   UNL     1      40.073 -13.208  -0.450  1.00  0.00     0.044 A 
HETATM   22 BR   UNL     1      41.347 -12.466  -1.635  1.00  0.00    -0.048 Br
HETATM   23  C   UNL     1      38.751 -13.347  -0.867  1.00  0.00     0.022 A 
HETATM   24  C   UNL     1      37.805 -13.893   0.001  1.00  0.00     0.002 A 
HETATM   25  C   UNL     1      38.180 -14.306   1.283  1.00  0.00     0.012 A 
BRANCH  20  26
HETATM   26  O   UNL     1      41.735 -13.467   1.288  1.00  0.00    -0.359 OA
HETATM   27  H   UNL     1      41.996 -14.343   1.650  1.00  0.00     0.218 HD
ENDBRANCH  20  26
ENDBRANCH  18  19
ENDBRANCH   3  18
TORSDOF 6
ENDMDL
