MODEL 1
REMARK VINA RESULT:      -8.9      0.000      0.000
REMARK  5 active torsions:
REMARK  status: ('A' for Active; 'I' for Inactive)
REMARK    1  A    between atoms: O_2  and  C_3 
REMARK    2  A    between atoms: C_5  and  C_6 
REMARK    3  A    between atoms: C_6  and  C_7 
REMARK       I    between atoms: C_7  and  N_8 
REMARK    4  A    between atoms: N_11  and  C_12 
REMARK    5  A    between atoms: C_16  and  C_17 
ROOT
HETATM    1  C   UNL     1      40.370 -10.852   7.950  1.00  0.00     0.224 C 
HETATM    2  N   UNL     1      40.522 -11.638   6.821  1.00  0.00    -0.349 N 
HETATM    3  C   UNL     1      41.666 -11.629   5.906  1.00  0.00     0.145 C 
HETATM    4  C   UNL     1      42.067 -13.054   5.474  1.00  0.00     0.144 C 
HETATM    5  N   UNL     1      40.908 -13.839   4.978  1.00  0.00    -0.363 N 
HETATM    6  C   UNL     1      39.745 -13.811   5.906  1.00  0.00     0.144 C 
HETATM    7  C   UNL     1      39.368 -12.377   6.307  1.00  0.00     0.145 C 
HETATM    8  O   UNL     1      39.307 -10.814   8.576  1.00  0.00    -0.273 OA
ENDROOT
BRANCH   5   9
HETATM    9  C   UNL     1      41.157 -15.030   4.342  1.00  0.00     0.122 A 
HETATM   10  N   UNL     1      40.315 -15.574   3.409  1.00  0.00    -0.262 N 
HETATM   11  H   UNL     1      39.426 -15.207   3.095  1.00  0.00     0.191 HD
HETATM   12  N   UNL     1      40.737 -16.734   2.884  1.00  0.00    -0.173 NA
HETATM   13  C   UNL     1      41.884 -16.998   3.531  1.00  0.00     0.090 A 
HETATM   14  C   UNL     1      42.166 -15.962   4.466  1.00  0.00     0.084 A 
BRANCH  13  15
HETATM   15  C   UNL     1      42.667 -18.209   3.250  1.00  0.00    -0.005 A 
HETATM   16  C   UNL     1      43.540 -18.752   4.207  1.00  0.00     0.015 A 
HETATM   17  C   UNL     1      44.279 -19.907   3.928  1.00  0.00     0.024 A 
HETATM   18  C   UNL     1      44.154 -20.530   2.689  1.00  0.00     0.034 A 
HETATM   19 CL   UNL     1      45.063 -21.949   2.349  1.00  0.00    -0.084 Cl
HETATM   20  C   UNL     1      43.296 -20.008   1.726  1.00  0.00     0.024 A 
HETATM   21  C   UNL     1      42.558 -18.853   2.006  1.00  0.00     0.015 A 
ENDBRANCH  13  15
ENDBRANCH   5   9
BRANCH   1  22
HETATM   22  C   UNL     1      41.554 -10.025   8.436  1.00  0.00     0.141 C 
BRANCH  22  23
HETATM   23  C   UNL     1      42.462 -10.753   9.400  1.00  0.00    -0.047 A 
HETATM   24  C   UNL     1      43.645 -11.371   8.955  1.00  0.00     0.044 A 
HETATM   25  C   UNL     1      44.497 -12.016   9.854  1.00  0.00     0.068 A 
HETATM   26  C   UNL     1      44.175 -12.024  11.212  1.00  0.00     0.037 A 
HETATM   27  C   UNL     1      43.020 -11.394  11.672  1.00  0.00     0.003 A 
HETATM   28  C   UNL     1      42.169 -10.757  10.771  1.00  0.00     0.007 A 
BRANCH  25  29
HETATM   29  O   UNL     1      45.662 -12.660   9.536  1.00  0.00    -0.356 OA
HETATM   30  C   UNL     1      46.252 -12.338   8.282  1.00  0.00     0.210 C 
ENDBRANCH  25  29
ENDBRANCH  22  23
ENDBRANCH   1  22
TORSDOF 5
ENDMDL
MODEL 2
REMARK VINA RESULT:      -8.8      1.570      2.191
REMARK  5 active torsions:
REMARK  status: ('A' for Active; 'I' for Inactive)
REMARK    1  A    between atoms: O_2  and  C_3 
REMARK    2  A    between atoms: C_5  and  C_6 
REMARK    3  A    between atoms: C_6  and  C_7 
REMARK       I    between atoms: C_7  and  N_8 
REMARK    4  A    between atoms: N_11  and  C_12 
REMARK    5  A    between atoms: C_16  and  C_17 
ROOT
HETATM    1  C   UNL     1      39.883 -11.220   7.955  1.00  0.00     0.224 C 
HETATM    2  N   UNL     1      40.303 -11.870   6.807  1.00  0.00    -0.349 N 
HETATM    3  C   UNL     1      41.398 -11.453   5.926  1.00  0.00     0.145 C 
HETATM    4  C   UNL     1      42.251 -12.652   5.463  1.00  0.00     0.144 C 
HETATM    5  N   UNL     1      41.421 -13.752   4.910  1.00  0.00    -0.363 N 
HETATM    6  C   UNL     1      40.296 -14.140   5.804  1.00  0.00     0.144 C 
HETATM    7  C   UNL     1      39.464 -12.925   6.237  1.00  0.00     0.145 C 
HETATM    8  O   UNL     1      38.855 -11.556   8.550  1.00  0.00    -0.273 OA
ENDROOT
BRANCH   5   9
HETATM    9  C   UNL     1      42.058 -14.771   4.245  1.00  0.00     0.122 A 
HETATM   10  N   UNL     1      42.723 -14.594   3.062  1.00  0.00    -0.262 N 
HETATM   11  H   UNL     1      42.812 -13.740   2.527  1.00  0.00     0.191 HD
HETATM   12  N   UNL     1      43.299 -15.703   2.574  1.00  0.00    -0.173 NA
HETATM   13  C   UNL     1      42.959 -16.669   3.443  1.00  0.00     0.090 A 
HETATM   14  C   UNL     1      42.165 -16.124   4.492  1.00  0.00     0.084 A 
BRANCH  13  15
HETATM   15  C   UNL     1      43.389 -18.062   3.257  1.00  0.00    -0.005 A 
HETATM   16  C   UNL     1      44.131 -18.734   4.242  1.00  0.00     0.015 A 
HETATM   17  C   UNL     1      44.534 -20.060   4.053  1.00  0.00     0.024 A 
HETATM   18  C   UNL     1      44.201 -20.728   2.877  1.00  0.00     0.034 A 
HETATM   19 CL   UNL     1      44.697 -22.358   2.648  1.00  0.00    -0.084 Cl
HETATM   20  C   UNL     1      43.467 -20.080   1.888  1.00  0.00     0.024 A 
HETATM   21  C   UNL     1      43.065 -18.753   2.078  1.00  0.00     0.015 A 
ENDBRANCH  13  15
ENDBRANCH   5   9
BRANCH   1  22
HETATM   22  C   UNL     1      40.722 -10.073   8.500  1.00  0.00     0.141 C 
BRANCH  22  23
HETATM   23  C   UNL     1      41.643 -10.463   9.633  1.00  0.00    -0.047 A 
HETATM   24  C   UNL     1      41.156 -10.606  10.945  1.00  0.00     0.044 A 
HETATM   25  C   UNL     1      42.003 -10.997  11.984  1.00  0.00     0.068 A 
HETATM   26  C   UNL     1      43.343 -11.269  11.705  1.00  0.00     0.037 A 
HETATM   27  C   UNL     1      43.835 -11.157  10.405  1.00  0.00     0.003 A 
HETATM   28  C   UNL     1      42.988 -10.760   9.372  1.00  0.00     0.007 A 
BRANCH  25  29
HETATM   29  O   UNL     1      41.646 -11.155  13.296  1.00  0.00    -0.356 OA
HETATM   30  C   UNL     1      42.316 -10.336  14.246  1.00  0.00     0.210 C 
ENDBRANCH  25  29
ENDBRANCH  22  23
ENDBRANCH   1  22
TORSDOF 5
ENDMDL
MODEL 3
REMARK VINA RESULT:      -8.4      6.655      9.333
REMARK  5 active torsions:
REMARK  status: ('A' for Active; 'I' for Inactive)
REMARK    1  A    between atoms: O_2  and  C_3 
REMARK    2  A    between atoms: C_5  and  C_6 
REMARK    3  A    between atoms: C_6  and  C_7 
REMARK       I    between atoms: C_7  and  N_8 
REMARK    4  A    between atoms: N_11  and  C_12 
REMARK    5  A    between atoms: C_16  and  C_17 
ROOT
HETATM    1  C   UNL     1      41.761 -16.097   4.253  1.00  0.00     0.224 C 
HETATM    2  N   UNL     1      41.298 -15.362   3.175  1.00  0.00    -0.349 N 
HETATM    3  C   UNL     1      42.122 -14.674   2.178  1.00  0.00     0.145 C 
HETATM    4  C   UNL     1      41.564 -14.849   0.751  1.00  0.00     0.144 C 
HETATM    5  N   UNL     1      40.118 -14.517   0.668  1.00  0.00    -0.363 N 
HETATM    6  C   UNL     1      39.302 -15.201   1.708  1.00  0.00     0.144 C 
HETATM    7  C   UNL     1      39.882 -14.998   3.115  1.00  0.00     0.145 C 
HETATM    8  O   UNL     1      40.997 -16.514   5.129  1.00  0.00    -0.273 OA
ENDROOT
BRANCH   5   9
HETATM    9  C   UNL     1      39.552 -14.398  -0.577  1.00  0.00     0.122 A 
HETATM   10  N   UNL     1      40.119 -14.916  -1.711  1.00  0.00    -0.262 N 
HETATM   11  H   UNL     1      40.998 -15.408  -1.790  1.00  0.00     0.191 HD
HETATM   12  N   UNL     1      39.409 -14.715  -2.832  1.00  0.00    -0.173 NA
HETATM   13  C   UNL     1      38.351 -13.989  -2.434  1.00  0.00     0.090 A 
HETATM   14  C   UNL     1      38.420 -13.755  -1.031  1.00  0.00     0.084 A 
BRANCH  13  15
HETATM   15  C   UNL     1      37.321 -13.542  -3.382  1.00  0.00    -0.005 A 
HETATM   16  C   UNL     1      36.933 -12.195  -3.456  1.00  0.00     0.015 A 
HETATM   17  C   UNL     1      35.952 -11.782  -4.364  1.00  0.00     0.024 A 
HETATM   18  C   UNL     1      35.348 -12.713  -5.207  1.00  0.00     0.034 A 
HETATM   19 CL   UNL     1      34.143 -12.202  -6.322  1.00  0.00    -0.084 Cl
HETATM   20  C   UNL     1      35.717 -14.053  -5.148  1.00  0.00     0.024 A 
HETATM   21  C   UNL     1      36.698 -14.464  -4.240  1.00  0.00     0.015 A 
ENDBRANCH  13  15
ENDBRANCH   5   9
BRANCH   1  22
HETATM   22  C   UNL     1      43.249 -16.408   4.348  1.00  0.00     0.141 C 
BRANCH  22  23
HETATM   23  C   UNL     1      43.627 -17.780   3.841  1.00  0.00    -0.047 A 
HETATM   24  C   UNL     1      44.214 -18.732   4.694  1.00  0.00     0.044 A 
HETATM   25  C   UNL     1      44.535 -20.009   4.229  1.00  0.00     0.068 A 
HETATM   26  C   UNL     1      44.245 -20.345   2.906  1.00  0.00     0.037 A 
HETATM   27  C   UNL     1      43.641 -19.422   2.054  1.00  0.00     0.003 A 
HETATM   28  C   UNL     1      43.329 -18.146   2.520  1.00  0.00     0.007 A 
BRANCH  25  29
HETATM   29  O   UNL     1      45.118 -21.007   4.961  1.00  0.00    -0.356 OA
HETATM   30  C   UNL     1      44.770 -22.343   4.615  1.00  0.00     0.210 C 
ENDBRANCH  25  29
ENDBRANCH  22  23
ENDBRANCH   1  22
TORSDOF 5
ENDMDL
MODEL 4
REMARK VINA RESULT:      -8.4      4.083      9.191
REMARK  5 active torsions:
REMARK  status: ('A' for Active; 'I' for Inactive)
REMARK    1  A    between atoms: O_2  and  C_3 
REMARK    2  A    between atoms: C_5  and  C_6 
REMARK    3  A    between atoms: C_6  and  C_7 
REMARK       I    between atoms: C_7  and  N_8 
REMARK    4  A    between atoms: N_11  and  C_12 
REMARK    5  A    between atoms: C_16  and  C_17 
ROOT
HETATM    1  C   UNL     1      42.134 -16.232   1.935  1.00  0.00     0.224 C 
HETATM    2  N   UNL     1      41.704 -15.182   2.728  1.00  0.00    -0.349 N 
HETATM    3  C   UNL     1      40.685 -15.251   3.780  1.00  0.00     0.145 C 
HETATM    4  C   UNL     1      41.090 -14.438   5.026  1.00  0.00     0.144 C 
HETATM    5  N   UNL     1      41.506 -13.054   4.683  1.00  0.00    -0.363 N 
HETATM    6  C   UNL     1      42.517 -13.002   3.593  1.00  0.00     0.144 C 
HETATM    7  C   UNL     1      42.078 -13.815   2.366  1.00  0.00     0.145 C 
HETATM    8  O   UNL     1      42.884 -16.051   0.971  1.00  0.00    -0.273 OA
ENDROOT
BRANCH   5   9
HETATM    9  C   UNL     1      41.660 -12.152   5.707  1.00  0.00     0.122 A 
HETATM   10  N   UNL     1      41.347 -10.824   5.591  1.00  0.00    -0.262 N 
HETATM   11  H   UNL     1      41.003 -10.342   4.772  1.00  0.00     0.191 HD
HETATM   12  N   UNL     1      41.548 -10.103   6.705  1.00  0.00    -0.173 NA
HETATM   13  C   UNL     1      42.063 -10.980   7.583  1.00  0.00     0.090 A 
HETATM   14  C   UNL     1      42.166 -12.267   6.985  1.00  0.00     0.084 A 
BRANCH  13  15
HETATM   15  C   UNL     1      42.440 -10.576   8.945  1.00  0.00    -0.005 A 
HETATM   16  C   UNL     1      41.633  -9.707   9.698  1.00  0.00     0.015 A 
HETATM   17  C   UNL     1      42.002  -9.331  10.994  1.00  0.00     0.024 A 
HETATM   18  C   UNL     1      43.182  -9.818  11.550  1.00  0.00     0.034 A 
HETATM   19 CL   UNL     1      43.633  -9.353  13.143  1.00  0.00    -0.084 Cl
HETATM   20  C   UNL     1      43.997 -10.678  10.821  1.00  0.00     0.024 A 
HETATM   21  C   UNL     1      43.627 -11.053   9.525  1.00  0.00     0.015 A 
ENDBRANCH  13  15
ENDBRANCH   5   9
BRANCH   1  22
HETATM   22  C   UNL     1      41.679 -17.645   2.274  1.00  0.00     0.141 C 
BRANCH  22  23
HETATM   23  C   UNL     1      42.769 -18.528   2.836  1.00  0.00    -0.047 A 
HETATM   24  C   UNL     1      43.155 -18.433   4.185  1.00  0.00     0.044 A 
HETATM   25  C   UNL     1      44.141 -19.271   4.708  1.00  0.00     0.068 A 
HETATM   26  C   UNL     1      44.731 -20.228   3.882  1.00  0.00     0.037 A 
HETATM   27  C   UNL     1      44.342 -20.353   2.549  1.00  0.00     0.003 A 
HETATM   28  C   UNL     1      43.362 -19.509   2.028  1.00  0.00     0.007 A 
BRANCH  25  29
HETATM   29  O   UNL     1      44.605 -19.260   5.996  1.00  0.00    -0.356 OA
HETATM   30  C   UNL     1      45.196 -18.051   6.455  1.00  0.00     0.210 C 
ENDBRANCH  25  29
ENDBRANCH  22  23
ENDBRANCH   1  22
TORSDOF 5
ENDMDL
MODEL 5
REMARK VINA RESULT:      -8.3      4.341      9.381
REMARK  5 active torsions:
REMARK  status: ('A' for Active; 'I' for Inactive)
REMARK    1  A    between atoms: O_2  and  C_3 
REMARK    2  A    between atoms: C_5  and  C_6 
REMARK    3  A    between atoms: C_6  and  C_7 
REMARK       I    between atoms: C_7  and  N_8 
REMARK    4  A    between atoms: N_11  and  C_12 
REMARK    5  A    between atoms: C_16  and  C_17 
ROOT
HETATM    1  C   UNL     1      41.519 -15.604   2.312  1.00  0.00     0.224 C 
HETATM    2  N   UNL     1      41.198 -14.578   3.183  1.00  0.00    -0.349 N 
HETATM    3  C   UNL     1      40.312 -14.674   4.346  1.00  0.00     0.145 C 
HETATM    4  C   UNL     1      40.870 -13.904   5.560  1.00  0.00     0.144 C 
HETATM    5  N   UNL     1      41.258 -12.512   5.213  1.00  0.00    -0.363 N 
HETATM    6  C   UNL     1      42.133 -12.433   4.011  1.00  0.00     0.144 C 
HETATM    7  C   UNL     1      41.541 -13.202   2.821  1.00  0.00     0.145 C 
HETATM    8  O   UNL     1      42.151 -15.398   1.271  1.00  0.00    -0.273 OA
ENDROOT
BRANCH   5   9
HETATM    9  C   UNL     1      41.543 -11.646   6.239  1.00  0.00     0.122 A 
HETATM   10  N   UNL     1      41.539 -10.284   6.094  1.00  0.00    -0.262 N 
HETATM   11  H   UNL     1      41.362  -9.755   5.250  1.00  0.00     0.191 HD
HETATM   12  N   UNL     1      41.824  -9.602   7.214  1.00  0.00    -0.173 NA
HETATM   13  C   UNL     1      42.077 -10.551   8.130  1.00  0.00     0.090 A 
HETATM   14  C   UNL     1      41.929 -11.842   7.548  1.00  0.00     0.084 A 
BRANCH  13  15
HETATM   15  C   UNL     1      42.447 -10.211   9.511  1.00  0.00    -0.005 A 
HETATM   16  C   UNL     1      43.633 -10.696  10.088  1.00  0.00     0.015 A 
HETATM   17  C   UNL     1      43.975 -10.364  11.403  1.00  0.00     0.024 A 
HETATM   18  C   UNL     1      43.135  -9.546  12.155  1.00  0.00     0.034 A 
HETATM   19 CL   UNL     1      43.559  -9.140  13.771  1.00  0.00    -0.084 Cl
HETATM   20  C   UNL     1      41.956  -9.057  11.603  1.00  0.00     0.024 A 
HETATM   21  C   UNL     1      41.614  -9.390  10.288  1.00  0.00     0.015 A 
ENDBRANCH  13  15
ENDBRANCH   5   9
BRANCH   1  22
HETATM   22  C   UNL     1      41.093 -17.025   2.658  1.00  0.00     0.141 C 
BRANCH  22  23
HETATM   23  C   UNL     1      42.187 -17.867   3.272  1.00  0.00    -0.047 A 
HETATM   24  C   UNL     1      42.869 -18.835   2.512  1.00  0.00     0.044 A 
HETATM   25  C   UNL     1      43.900 -19.589   3.074  1.00  0.00     0.068 A 
HETATM   26  C   UNL     1      44.267 -19.360   4.401  1.00  0.00     0.037 A 
HETATM   27  C   UNL     1      43.618 -18.388   5.160  1.00  0.00     0.003 A 
HETATM   28  C   UNL     1      42.585 -17.641   4.597  1.00  0.00     0.007 A 
BRANCH  25  29
HETATM   29  O   UNL     1      44.622 -20.563   2.439  1.00  0.00    -0.356 OA
HETATM   30  C   UNL     1      43.882 -21.581   1.776  1.00  0.00     0.210 C 
ENDBRANCH  25  29
ENDBRANCH  22  23
ENDBRANCH   1  22
TORSDOF 5
ENDMDL
MODEL 6
REMARK VINA RESULT:      -8.2      5.828      8.678
REMARK  5 active torsions:
REMARK  status: ('A' for Active; 'I' for Inactive)
REMARK    1  A    between atoms: O_2  and  C_3 
REMARK    2  A    between atoms: C_5  and  C_6 
REMARK    3  A    between atoms: C_6  and  C_7 
REMARK       I    between atoms: C_7  and  N_8 
REMARK    4  A    between atoms: N_11  and  C_12 
REMARK    5  A    between atoms: C_16  and  C_17 
ROOT
HETATM    1  C   UNL     1      42.516 -16.825   5.526  1.00  0.00     0.224 C 
HETATM    2  N   UNL     1      42.211 -16.033   4.433  1.00  0.00    -0.349 N 
HETATM    3  C   UNL     1      43.169 -15.457   3.485  1.00  0.00     0.145 C 
HETATM    4  C   UNL     1      42.667 -15.552   2.030  1.00  0.00     0.144 C 
HETATM    5  N   UNL     1      41.284 -15.030   1.878  1.00  0.00    -0.363 N 
HETATM    6  C   UNL     1      40.332 -15.603   2.868  1.00  0.00     0.144 C 
HETATM    7  C   UNL     1      40.861 -15.483   4.305  1.00  0.00     0.145 C 
HETATM    8  O   UNL     1      41.660 -17.139   6.358  1.00  0.00    -0.273 OA
ENDROOT
BRANCH   5   9
HETATM    9  C   UNL     1      40.804 -14.833   0.607  1.00  0.00     0.122 A 
HETATM   10  N   UNL     1      41.549 -15.057  -0.520  1.00  0.00    -0.262 N 
HETATM   11  H   UNL     1      42.513 -15.357  -0.570  1.00  0.00     0.191 HD
HETATM   12  N   UNL     1      40.902 -14.826  -1.673  1.00  0.00    -0.173 NA
HETATM   13  C   UNL     1      39.692 -14.382  -1.295  1.00  0.00     0.090 A 
HETATM   14  C   UNL     1      39.603 -14.354   0.125  1.00  0.00     0.084 A 
BRANCH  13  15
HETATM   15  C   UNL     1      38.669 -13.999  -2.279  1.00  0.00    -0.005 A 
HETATM   16  C   UNL     1      38.205 -12.677  -2.372  1.00  0.00     0.015 A 
HETATM   17  C   UNL     1      37.232 -12.325  -3.314  1.00  0.00     0.024 A 
HETATM   18  C   UNL     1      36.712 -13.292  -4.171  1.00  0.00     0.034 A 
HETATM   19 CL   UNL     1      35.517 -12.857  -5.328  1.00  0.00    -0.084 Cl
HETATM   20  C   UNL     1      37.158 -14.608  -4.095  1.00  0.00     0.024 A 
HETATM   21  C   UNL     1      38.130 -14.959  -3.152  1.00  0.00     0.015 A 
ENDBRANCH  13  15
ENDBRANCH   5   9
BRANCH   1  22
HETATM   22  C   UNL     1      43.942 -17.332   5.693  1.00  0.00     0.141 C 
BRANCH  22  23
HETATM   23  C   UNL     1      44.145 -18.765   5.256  1.00  0.00    -0.047 A 
HETATM   24  C   UNL     1      44.376 -19.085   3.906  1.00  0.00     0.044 A 
HETATM   25  C   UNL     1      44.593 -20.406   3.511  1.00  0.00     0.068 A 
HETATM   26  C   UNL     1      44.602 -21.413   4.476  1.00  0.00     0.037 A 
HETATM   27  C   UNL     1      44.401 -21.110   5.822  1.00  0.00     0.003 A 
HETATM   28  C   UNL     1      44.177 -19.790   6.211  1.00  0.00     0.007 A 
BRANCH  25  29
HETATM   29  O   UNL     1      44.813 -20.836   2.230  1.00  0.00    -0.356 OA
HETATM   30  C   UNL     1      43.956 -21.861   1.742  1.00  0.00     0.210 C 
ENDBRANCH  25  29
ENDBRANCH  22  23
ENDBRANCH   1  22
TORSDOF 5
ENDMDL
MODEL 7
REMARK VINA RESULT:      -8.2      4.384      9.337
REMARK  5 active torsions:
REMARK  status: ('A' for Active; 'I' for Inactive)
REMARK    1  A    between atoms: O_2  and  C_3 
REMARK    2  A    between atoms: C_5  and  C_6 
REMARK    3  A    between atoms: C_6  and  C_7 
REMARK       I    between atoms: C_7  and  N_8 
REMARK    4  A    between atoms: N_11  and  C_12 
REMARK    5  A    between atoms: C_16  and  C_17 
ROOT
HETATM    1  C   UNL     1      43.173 -16.893   1.781  1.00  0.00     0.224 C 
HETATM    2  N   UNL     1      42.346 -15.911   2.297  1.00  0.00    -0.349 N 
HETATM    3  C   UNL     1      40.929 -16.062   2.638  1.00  0.00     0.145 C 
HETATM    4  C   UNL     1      40.578 -15.356   3.963  1.00  0.00     0.144 C 
HETATM    5  N   UNL     1      41.056 -13.950   3.995  1.00  0.00    -0.363 N 
HETATM    6  C   UNL     1      42.489 -13.813   3.616  1.00  0.00     0.144 C 
HETATM    7  C   UNL     1      42.800 -14.519   2.289  1.00  0.00     0.145 C 
HETATM    8  O   UNL     1      44.312 -16.636   1.379  1.00  0.00    -0.273 OA
ENDROOT
BRANCH   5   9
HETATM    9  C   UNL     1      40.607 -13.137   5.006  1.00  0.00     0.122 A 
HETATM   10  N   UNL     1      39.294 -12.775   5.150  1.00  0.00    -0.262 N 
HETATM   11  H   UNL     1      38.519 -13.020   4.550  1.00  0.00     0.191 HD
HETATM   12  N   UNL     1      39.045 -11.990   6.210  1.00  0.00    -0.173 NA
HETATM   13  C   UNL     1      40.250 -11.781   6.764  1.00  0.00     0.090 A 
HETATM   14  C   UNL     1      41.253 -12.468   6.024  1.00  0.00     0.084 A 
BRANCH  13  15
HETATM   15  C   UNL     1      40.414 -10.946   7.962  1.00  0.00    -0.005 A 
HETATM   16  C   UNL     1      41.682 -10.509   8.379  1.00  0.00     0.015 A 
HETATM   17  C   UNL     1      41.824  -9.713   9.521  1.00  0.00     0.024 A 
HETATM   18  C   UNL     1      40.701  -9.348  10.259  1.00  0.00     0.034 A 
HETATM   19 CL   UNL     1      40.879  -8.369  11.661  1.00  0.00    -0.084 Cl
HETATM   20  C   UNL     1      39.436  -9.772   9.864  1.00  0.00     0.024 A 
HETATM   21  C   UNL     1      39.295 -10.568   8.722  1.00  0.00     0.015 A 
ENDBRANCH  13  15
ENDBRANCH   5   9
BRANCH   1  22
HETATM   22  C   UNL     1      42.666 -18.327   1.722  1.00  0.00     0.141 C 
BRANCH  22  23
HETATM   23  C   UNL     1      43.431 -19.290   2.601  1.00  0.00    -0.047 A 
HETATM   24  C   UNL     1      43.721 -18.974   3.941  1.00  0.00     0.044 A 
HETATM   25  C   UNL     1      44.400 -19.879   4.758  1.00  0.00     0.068 A 
HETATM   26  C   UNL     1      44.774 -21.120   4.239  1.00  0.00     0.037 A 
HETATM   27  C   UNL     1      44.471 -21.458   2.921  1.00  0.00     0.003 A 
HETATM   28  C   UNL     1      43.799 -20.549   2.106  1.00  0.00     0.007 A 
BRANCH  25  29
HETATM   29  O   UNL     1      44.748 -19.676   6.067  1.00  0.00    -0.356 OA
HETATM   30  C   UNL     1      44.943 -18.329   6.477  1.00  0.00     0.210 C 
ENDBRANCH  25  29
ENDBRANCH  22  23
ENDBRANCH   1  22
TORSDOF 5
ENDMDL
MODEL 8
REMARK VINA RESULT:      -8.1      5.532      8.116
REMARK  5 active torsions:
REMARK  status: ('A' for Active; 'I' for Inactive)
REMARK    1  A    between atoms: O_2  and  C_3 
REMARK    2  A    between atoms: C_5  and  C_6 
REMARK    3  A    between atoms: C_6  and  C_7 
REMARK       I    between atoms: C_7  and  N_8 
REMARK    4  A    between atoms: N_11  and  C_12 
REMARK    5  A    between atoms: C_16  and  C_17 
ROOT
HETATM    1  C   UNL     1      42.040 -16.835   6.523  1.00  0.00     0.224 C 
HETATM    2  N   UNL     1      42.053 -15.920   5.485  1.00  0.00    -0.349 N 
HETATM    3  C   UNL     1      43.236 -15.262   4.923  1.00  0.00     0.145 C 
HETATM    4  C   UNL     1      43.174 -15.184   3.385  1.00  0.00     0.144 C 
HETATM    5  N   UNL     1      41.888 -14.620   2.901  1.00  0.00    -0.363 N 
HETATM    6  C   UNL     1      40.698 -15.280   3.505  1.00  0.00     0.144 C 
HETATM    7  C   UNL     1      40.789 -15.332   5.037  1.00  0.00     0.145 C 
HETATM    8  O   UNL     1      40.984 -17.222   7.033  1.00  0.00    -0.273 OA
ENDROOT
BRANCH   5   9
HETATM    9  C   UNL     1      41.791 -14.273   1.576  1.00  0.00     0.122 A 
HETATM   10  N   UNL     1      41.255 -15.095   0.622  1.00  0.00    -0.262 N 
HETATM   11  H   UNL     1      40.898 -16.033   0.748  1.00  0.00     0.191 HD
HETATM   12  N   UNL     1      41.229 -14.575  -0.614  1.00  0.00    -0.173 NA
HETATM   13  C   UNL     1      41.820 -13.375  -0.486  1.00  0.00     0.090 A 
HETATM   14  C   UNL     1      42.202 -13.162   0.869  1.00  0.00     0.084 A 
BRANCH  13  15
HETATM   15  C   UNL     1      42.004 -12.479  -1.636  1.00  0.00    -0.005 A 
HETATM   16  C   UNL     1      41.502 -12.809  -2.905  1.00  0.00     0.015 A 
HETATM   17  C   UNL     1      41.682 -11.946  -3.992  1.00  0.00     0.024 A 
HETATM   18  C   UNL     1      42.367 -10.746  -3.821  1.00  0.00     0.034 A 
HETATM   19 CL   UNL     1      42.587  -9.688  -5.158  1.00  0.00    -0.084 Cl
HETATM   20  C   UNL     1      42.874 -10.401  -2.572  1.00  0.00     0.024 A 
HETATM   21  C   UNL     1      42.693 -11.264  -1.486  1.00  0.00     0.015 A 
ENDBRANCH  13  15
ENDBRANCH   5   9
BRANCH   1  22
HETATM   22  C   UNL     1      43.364 -17.387   7.034  1.00  0.00     0.141 C 
BRANCH  22  23
HETATM   23  C   UNL     1      43.716 -18.753   6.492  1.00  0.00    -0.047 A 
HETATM   24  C   UNL     1      44.233 -18.904   5.192  1.00  0.00     0.044 A 
HETATM   25  C   UNL     1      44.587 -20.164   4.706  1.00  0.00     0.068 A 
HETATM   26  C   UNL     1      44.443 -21.279   5.532  1.00  0.00     0.037 A 
HETATM   27  C   UNL     1      43.956 -21.142   6.831  1.00  0.00     0.003 A 
HETATM   28  C   UNL     1      43.598 -19.884   7.311  1.00  0.00     0.007 A 
BRANCH  25  29
HETATM   29  O   UNL     1      45.084 -20.434   3.460  1.00  0.00    -0.356 OA
HETATM   30  C   UNL     1      44.454 -21.479   2.729  1.00  0.00     0.210 C 
ENDBRANCH  25  29
ENDBRANCH  22  23
ENDBRANCH   1  22
TORSDOF 5
ENDMDL
MODEL 9
REMARK VINA RESULT:      -7.8      6.525      8.747
REMARK  5 active torsions:
REMARK  status: ('A' for Active; 'I' for Inactive)
REMARK    1  A    between atoms: O_2  and  C_3 
REMARK    2  A    between atoms: C_5  and  C_6 
REMARK    3  A    between atoms: C_6  and  C_7 
REMARK       I    between atoms: C_7  and  N_8 
REMARK    4  A    between atoms: N_11  and  C_12 
REMARK    5  A    between atoms: C_16  and  C_17 
ROOT
HETATM    1  C   UNL     1      38.824 -12.606  -2.017  1.00  0.00     0.224 C 
HETATM    2  N   UNL     1      39.319 -13.724  -1.367  1.00  0.00    -0.349 N 
HETATM    3  C   UNL     1      40.031 -14.844  -1.988  1.00  0.00     0.145 C 
HETATM    4  C   UNL     1      41.226 -15.310  -1.132  1.00  0.00     0.144 C 
HETATM    5  N   UNL     1      40.843 -15.552   0.283  1.00  0.00    -0.363 N 
HETATM    6  C   UNL     1      40.094 -14.417   0.887  1.00  0.00     0.144 C 
HETATM    7  C   UNL     1      38.908 -13.985   0.013  1.00  0.00     0.145 C 
HETATM    8  O   UNL     1      38.103 -11.786  -1.441  1.00  0.00    -0.273 OA
ENDROOT
BRANCH   5   9
HETATM    9  C   UNL     1      41.744 -16.195   1.095  1.00  0.00     0.122 A 
HETATM   10  N   UNL     1      42.775 -15.553   1.728  1.00  0.00    -0.262 N 
HETATM   11  H   UNL     1      43.020 -14.574   1.668  1.00  0.00     0.191 HD
HETATM   12  N   UNL     1      43.540 -16.345   2.495  1.00  0.00    -0.173 NA
HETATM   13  C   UNL     1      43.026 -17.575   2.325  1.00  0.00     0.090 A 
HETATM   14  C   UNL     1      41.913 -17.520   1.439  1.00  0.00     0.084 A 
BRANCH  13  15
HETATM   15  C   UNL     1      43.599 -18.750   2.997  1.00  0.00    -0.005 A 
HETATM   16  C   UNL     1      43.928 -18.721   4.361  1.00  0.00     0.015 A 
HETATM   17  C   UNL     1      44.471 -19.847   4.990  1.00  0.00     0.024 A 
HETATM   18  C   UNL     1      44.692 -21.012   4.260  1.00  0.00     0.034 A 
HETATM   19 CL   UNL     1      45.360 -22.394   5.036  1.00  0.00    -0.084 Cl
HETATM   20  C   UNL     1      44.375 -21.061   2.906  1.00  0.00     0.024 A 
HETATM   21  C   UNL     1      43.832 -19.935   2.279  1.00  0.00     0.015 A 
ENDBRANCH  13  15
ENDBRANCH   5   9
BRANCH   1  22
HETATM   22  C   UNL     1      39.195 -12.380  -3.477  1.00  0.00     0.141 C 
BRANCH  22  23
HETATM   23  C   UNL     1      40.386 -11.471  -3.679  1.00  0.00    -0.047 A 
HETATM   24  C   UNL     1      41.360 -11.319  -2.676  1.00  0.00     0.044 A 
HETATM   25  C   UNL     1      42.474 -10.503  -2.878  1.00  0.00     0.068 A 
HETATM   26  C   UNL     1      42.628  -9.850  -4.102  1.00  0.00     0.037 A 
HETATM   27  C   UNL     1      41.684 -10.010  -5.116  1.00  0.00     0.003 A 
HETATM   28  C   UNL     1      40.570 -10.820  -4.907  1.00  0.00     0.007 A 
BRANCH  25  29
HETATM   29  O   UNL     1      43.475 -10.270  -1.974  1.00  0.00    -0.356 OA
HETATM   30  C   UNL     1      43.133  -9.512  -0.820  1.00  0.00     0.210 C 
ENDBRANCH  25  29
ENDBRANCH  22  23
ENDBRANCH   1  22
TORSDOF 5
ENDMDL
MODEL 10
REMARK VINA RESULT:      -7.7      6.971      9.520
REMARK  5 active torsions:
REMARK  status: ('A' for Active; 'I' for Inactive)
REMARK    1  A    between atoms: O_2  and  C_3 
REMARK    2  A    between atoms: C_5  and  C_6 
REMARK    3  A    between atoms: C_6  and  C_7 
REMARK       I    between atoms: C_7  and  N_8 
REMARK    4  A    between atoms: N_11  and  C_12 
REMARK    5  A    between atoms: C_16  and  C_17 
ROOT
HETATM    1  C   UNL     1      41.889 -15.981   3.859  1.00  0.00     0.224 C 
HETATM    2  N   UNL     1      42.165 -15.538   2.577  1.00  0.00    -0.349 N 
HETATM    3  C   UNL     1      42.351 -16.378   1.391  1.00  0.00     0.145 C 
HETATM    4  C   UNL     1      41.662 -15.779   0.148  1.00  0.00     0.144 C 
HETATM    5  N   UNL     1      42.023 -14.354  -0.063  1.00  0.00    -0.363 N 
HETATM    6  C   UNL     1      41.856 -13.523   1.161  1.00  0.00     0.144 C 
HETATM    7  C   UNL     1      42.562 -14.144   2.375  1.00  0.00     0.145 C 
HETATM    8  O   UNL     1      41.900 -15.215   4.827  1.00  0.00    -0.273 OA
ENDROOT
BRANCH   5   9
HETATM    9  C   UNL     1      41.675 -13.768  -1.255  1.00  0.00     0.122 A 
HETATM   10  N   UNL     1      40.938 -14.406  -2.217  1.00  0.00    -0.262 N 
HETATM   11  H   UNL     1      40.588 -15.354  -2.196  1.00  0.00     0.191 HD
HETATM   12  N   UNL     1      40.682 -13.666  -3.306  1.00  0.00    -0.173 NA
HETATM   13  C   UNL     1      41.319 -12.505  -3.081  1.00  0.00     0.090 A 
HETATM   14  C   UNL     1      41.968 -12.542  -1.815  1.00  0.00     0.084 A 
BRANCH  13  15
HETATM   15  C   UNL     1      41.295 -11.409  -4.060  1.00  0.00    -0.005 A 
HETATM   16  C   UNL     1      42.476 -10.764  -4.461  1.00  0.00     0.015 A 
HETATM   17  C   UNL     1      42.441  -9.723  -5.396  1.00  0.00     0.024 A 
HETATM   18  C   UNL     1      41.225  -9.316  -5.937  1.00  0.00     0.034 A 
HETATM   19 CL   UNL     1      41.185  -8.037  -7.086  1.00  0.00    -0.084 Cl
HETATM   20  C   UNL     1      40.042  -9.941  -5.552  1.00  0.00     0.024 A 
HETATM   21  C   UNL     1      40.079 -10.981  -4.618  1.00  0.00     0.015 A 
ENDBRANCH  13  15
ENDBRANCH   5   9
BRANCH   1  22
HETATM   22  C   UNL     1      41.550 -17.450   4.073  1.00  0.00     0.141 C 
BRANCH  22  23
HETATM   23  C   UNL     1      42.754 -18.339   4.287  1.00  0.00    -0.047 A 
HETATM   24  C   UNL     1      43.219 -19.187   3.265  1.00  0.00     0.044 A 
HETATM   25  C   UNL     1      44.349 -19.983   3.456  1.00  0.00     0.068 A 
HETATM   26  C   UNL     1      45.035 -19.915   4.669  1.00  0.00     0.037 A 
HETATM   27  C   UNL     1      44.602 -19.061   5.682  1.00  0.00     0.003 A 
HETATM   28  C   UNL     1      43.469 -18.272   5.491  1.00  0.00     0.007 A 
BRANCH  25  29
HETATM   29  O   UNL     1      44.883 -20.853   2.543  1.00  0.00    -0.356 OA
HETATM   30  C   UNL     1      43.981 -21.752   1.910  1.00  0.00     0.210 C 
ENDBRANCH  25  29
ENDBRANCH  22  23
ENDBRANCH   1  22
TORSDOF 5
ENDMDL
