MODEL 1
REMARK VINA RESULT:      -9.2      0.000      0.000
REMARK  7 active torsions:
REMARK  status: ('A' for Active; 'I' for Inactive)
REMARK    1  A    between atoms: C_2  and  O_3 
REMARK    2  A    between atoms: O_3  and  C_4 
REMARK    3  A    between atoms: C_5  and  C_6 
REMARK       I    between atoms: C_6  and  N_7 
REMARK    4  A    between atoms: N_7  and  C_8 
REMARK    5  A    between atoms: C_8  and  C_9 
REMARK    6  A    between atoms: C_9  and  N_10 
REMARK    7  A    between atoms: N_14  and  C_15 
ROOT
HETATM    1  C   UNL     1      42.215 -10.578   8.047  1.00  0.00     0.255 C 
HETATM    2  N   UNL     1      41.946 -11.815   7.499  1.00  0.00    -0.355 N 
HETATM    3  O   UNL     1      42.114  -9.539   7.402  1.00  0.00    -0.268 OA
HETATM    4  H   UNL     1      42.103 -12.626   8.095  1.00  0.00     0.162 HD
ENDROOT
BRANCH   2   5
HETATM    5  C   UNL     1      41.813 -12.040   6.065  1.00  0.00     0.150 C 
BRANCH   5   6
HETATM    6  C   UNL     1      41.274 -13.429   5.659  1.00  0.00     0.254 C 
BRANCH   6   7
HETATM    7  N   UNL     1      42.026 -14.571   6.292  1.00  0.00    -0.067 N 
HETATM    8  H   UNL     1      42.088 -14.356   7.309  1.00  0.00     0.280 HD
HETATM    9  C   UNL     1      41.301 -15.916   6.250  1.00  0.00     0.254 C 
HETATM   10  C   UNL     1      42.116 -16.980   7.018  1.00  0.00     0.150 C 
HETATM   11  N   UNL     1      43.482 -17.087   6.467  1.00  0.00    -0.378 N 
HETATM   12  C   UNL     1      44.223 -15.807   6.523  1.00  0.00     0.150 C 
HETATM   13  C   UNL     1      43.453 -14.696   5.773  1.00  0.00     0.254 C 
BRANCH  11  14
HETATM   14  C   UNL     1      43.788 -18.010   5.469  1.00  0.00     0.030 A 
HETATM   15  C   UNL     1      43.359 -17.869   4.138  1.00  0.00     0.031 A 
HETATM   16  C   UNL     1      43.651 -18.827   3.155  1.00  0.00     0.026 A 
HETATM   17  C   UNL     1      44.376 -19.962   3.487  1.00  0.00     0.034 A 
HETATM   18 CL   UNL     1      44.729 -21.138   2.286  1.00  0.00    -0.084 Cl
HETATM   19  C   UNL     1      44.802 -20.147   4.793  1.00  0.00     0.026 A 
HETATM   20  C   UNL     1      44.502 -19.186   5.767  1.00  0.00     0.031 A 
ENDBRANCH  11  14
ENDBRANCH   6   7
ENDBRANCH   5   6
ENDBRANCH   2   5
BRANCH   1  21
HETATM   21  C   UNL     1      42.606 -10.576   9.472  1.00  0.00     0.076 A 
HETATM   22  C   UNL     1      43.945 -10.876   9.786  1.00  0.00     0.085 A 
HETATM   23  C   UNL     1      44.344 -10.840  11.121  1.00  0.00     0.039 A 
HETATM   24  C   UNL     1      43.419 -10.538  12.125  1.00  0.00     0.015 A 
HETATM   25  C   UNL     1      42.076 -10.272  11.822  1.00  0.00    -0.025 A 
HETATM   26  C   UNL     1      41.640 -10.295  10.477  1.00  0.00    -0.007 A 
HETATM   27  C   UNL     1      41.165  -9.988  12.852  1.00  0.00     0.012 A 
HETATM   28  C   UNL     1      40.264 -10.054  10.229  1.00  0.00     0.013 A 
HETATM   29  C   UNL     1      39.369  -9.776  11.264  1.00  0.00     0.001 A 
HETATM   30  C   UNL     1      39.822  -9.738  12.576  1.00  0.00     0.001 A 
BRANCH  22  31
HETATM   31  O   UNL     1      44.799 -11.133   8.743  1.00  0.00    -0.350 OA
BRANCH  31  32
HETATM   32  C   UNL     1      45.391 -12.435   8.726  1.00  0.00     0.171 C 
HETATM   33  C   UNL     1      46.687 -12.346   7.941  1.00  0.00     0.034 C 
ENDBRANCH  31  32
ENDBRANCH  22  31
ENDBRANCH   1  21
TORSDOF 7
ENDMDL
MODEL 2
REMARK VINA RESULT:      -9.0      4.944      9.475
REMARK  7 active torsions:
REMARK  status: ('A' for Active; 'I' for Inactive)
REMARK    1  A    between atoms: C_2  and  O_3 
REMARK    2  A    between atoms: O_3  and  C_4 
REMARK    3  A    between atoms: C_5  and  C_6 
REMARK       I    between atoms: C_6  and  N_7 
REMARK    4  A    between atoms: N_7  and  C_8 
REMARK    5  A    between atoms: C_8  and  C_9 
REMARK    6  A    between atoms: C_9  and  N_10 
REMARK    7  A    between atoms: N_14  and  C_15 
ROOT
HETATM    1  C   UNL     1      44.087 -18.036   5.381  1.00  0.00     0.255 C 
HETATM    2  N   UNL     1      42.881 -17.570   5.863  1.00  0.00    -0.355 N 
HETATM    3  O   UNL     1      45.144 -17.861   5.980  1.00  0.00    -0.268 OA
HETATM    4  H   UNL     1      42.062 -17.720   5.276  1.00  0.00     0.162 HD
ENDROOT
BRANCH   2   5
HETATM    5  C   UNL     1      42.776 -16.594   6.940  1.00  0.00     0.150 C 
BRANCH   5   6
HETATM    6  C   UNL     1      43.385 -15.207   6.639  1.00  0.00     0.254 C 
BRANCH   6   7
HETATM    7  N   UNL     1      42.376 -14.207   6.138  1.00  0.00    -0.067 N 
HETATM    8  H   UNL     1      42.185 -13.557   6.930  1.00  0.00     0.280 HD
HETATM    9  C   UNL     1      42.883 -13.286   5.029  1.00  0.00     0.254 C 
HETATM   10  C   UNL     1      41.802 -12.241   4.672  1.00  0.00     0.150 C 
HETATM   11  N   UNL     1      40.542 -12.907   4.286  1.00  0.00    -0.378 N 
HETATM   12  C   UNL     1      40.007 -13.782   5.353  1.00  0.00     0.150 C 
HETATM   13  C   UNL     1      41.048 -14.851   5.758  1.00  0.00     0.254 C 
BRANCH  11  14
HETATM   14  C   UNL     1      40.262 -13.205   2.954  1.00  0.00     0.030 A 
HETATM   15  C   UNL     1      41.052 -12.748   1.884  1.00  0.00     0.031 A 
HETATM   16  C   UNL     1      40.734 -13.032   0.547  1.00  0.00     0.026 A 
HETATM   17  C   UNL     1      39.604 -13.779   0.247  1.00  0.00     0.034 A 
HETATM   18 CL   UNL     1      39.209 -14.123  -1.388  1.00  0.00    -0.084 Cl
HETATM   19  C   UNL     1      38.789 -14.233   1.273  1.00  0.00     0.026 A 
HETATM   20  C   UNL     1      39.114 -13.940   2.604  1.00  0.00     0.031 A 
ENDBRANCH  11  14
ENDBRANCH   6   7
ENDBRANCH   5   6
ENDBRANCH   2   5
BRANCH   1  21
HETATM   21  C   UNL     1      44.026 -18.787   4.110  1.00  0.00     0.076 A 
HETATM   22  C   UNL     1      43.673 -18.079   2.946  1.00  0.00     0.085 A 
HETATM   23  C   UNL     1      43.649 -18.759   1.729  1.00  0.00     0.039 A 
HETATM   24  C   UNL     1      43.944 -20.125   1.681  1.00  0.00     0.015 A 
HETATM   25  C   UNL     1      44.264 -20.844   2.841  1.00  0.00    -0.025 A 
HETATM   26  C   UNL     1      44.302 -20.182   4.091  1.00  0.00    -0.007 A 
HETATM   27  C   UNL     1      44.539 -22.219   2.765  1.00  0.00     0.012 A 
HETATM   28  C   UNL     1      44.595 -20.962   5.238  1.00  0.00     0.013 A 
HETATM   29  C   UNL     1      44.864 -22.329   5.147  1.00  0.00     0.001 A 
HETATM   30  C   UNL     1      44.841 -22.956   3.908  1.00  0.00     0.001 A 
BRANCH  22  31
HETATM   31  O   UNL     1      43.426 -16.735   3.071  1.00  0.00    -0.350 OA
BRANCH  31  32
HETATM   32  C   UNL     1      42.342 -16.222   2.290  1.00  0.00     0.171 C 
HETATM   33  C   UNL     1      41.065 -16.878   2.781  1.00  0.00     0.034 C 
ENDBRANCH  31  32
ENDBRANCH  22  31
ENDBRANCH   1  21
TORSDOF 7
ENDMDL
MODEL 3
REMARK VINA RESULT:      -9.0      1.120      2.875
REMARK  7 active torsions:
REMARK  status: ('A' for Active; 'I' for Inactive)
REMARK    1  A    between atoms: C_2  and  O_3 
REMARK    2  A    between atoms: O_3  and  C_4 
REMARK    3  A    between atoms: C_5  and  C_6 
REMARK       I    between atoms: C_6  and  N_7 
REMARK    4  A    between atoms: N_7  and  C_8 
REMARK    5  A    between atoms: C_8  and  C_9 
REMARK    6  A    between atoms: C_9  and  N_10 
REMARK    7  A    between atoms: N_14  and  C_15 
ROOT
HETATM    1  C   UNL     1      43.839 -10.976   9.467  1.00  0.00     0.255 C 
HETATM    2  N   UNL     1      43.656 -12.187   8.832  1.00  0.00    -0.355 N 
HETATM    3  O   UNL     1      44.949 -10.479   9.623  1.00  0.00    -0.268 OA
HETATM    4  H   UNL     1      42.704 -12.545   8.789  1.00  0.00     0.162 HD
ENDROOT
BRANCH   2   5
HETATM    5  C   UNL     1      44.745 -13.116   8.558  1.00  0.00     0.150 C 
BRANCH   5   6
HETATM    6  C   UNL     1      44.801 -13.668   7.118  1.00  0.00     0.254 C 
BRANCH   6   7
HETATM    7  N   UNL     1      43.693 -14.641   6.807  1.00  0.00    -0.067 N 
HETATM    8  H   UNL     1      42.834 -14.266   7.263  1.00  0.00     0.280 HD
HETATM    9  C   UNL     1      43.310 -14.724   5.330  1.00  0.00     0.254 C 
HETATM   10  C   UNL     1      42.099 -15.667   5.149  1.00  0.00     0.150 C 
HETATM   11  N   UNL     1      42.393 -17.003   5.706  1.00  0.00    -0.378 N 
HETATM   12  C   UNL     1      42.737 -16.960   7.145  1.00  0.00     0.150 C 
HETATM   13  C   UNL     1      43.943 -16.025   7.392  1.00  0.00     0.254 C 
BRANCH  11  14
HETATM   14  C   UNL     1      42.919 -18.018   4.909  1.00  0.00     0.030 A 
HETATM   15  C   UNL     1      43.840 -18.968   5.386  1.00  0.00     0.031 A 
HETATM   16  C   UNL     1      44.382 -19.963   4.558  1.00  0.00     0.026 A 
HETATM   17  C   UNL     1      44.019 -20.024   3.221  1.00  0.00     0.034 A 
HETATM   18 CL   UNL     1      44.686 -21.237   2.204  1.00  0.00    -0.084 Cl
HETATM   19  C   UNL     1      43.128 -19.095   2.707  1.00  0.00     0.026 A 
HETATM   20  C   UNL     1      42.595 -18.104   3.542  1.00  0.00     0.031 A 
ENDBRANCH  11  14
ENDBRANCH   6   7
ENDBRANCH   5   6
ENDBRANCH   2   5
BRANCH   1  21
HETATM   21  C   UNL     1      42.609 -10.297   9.925  1.00  0.00     0.076 A 
HETATM   22  C   UNL     1      41.765  -9.736   8.948  1.00  0.00     0.085 A 
HETATM   23  C   UNL     1      40.581  -9.126   9.354  1.00  0.00     0.039 A 
HETATM   24  C   UNL     1      40.257  -9.053  10.713  1.00  0.00     0.015 A 
HETATM   25  C   UNL     1      41.108  -9.580  11.695  1.00  0.00    -0.025 A 
HETATM   26  C   UNL     1      42.316 -10.210  11.314  1.00  0.00    -0.007 A 
HETATM   27  C   UNL     1      40.766  -9.478  13.053  1.00  0.00     0.012 A 
HETATM   28  C   UNL     1      43.158 -10.694  12.348  1.00  0.00     0.013 A 
HETATM   29  C   UNL     1      42.806 -10.582  13.694  1.00  0.00     0.001 A 
HETATM   30  C   UNL     1      41.606  -9.978  14.046  1.00  0.00     0.001 A 
BRANCH  22  31
HETATM   31  O   UNL     1      42.138  -9.874   7.634  1.00  0.00    -0.350 OA
BRANCH  31  32
HETATM   32  C   UNL     1      41.087 -10.188   6.715  1.00  0.00     0.171 C 
HETATM   33  C   UNL     1      41.387 -11.548   6.113  1.00  0.00     0.034 C 
ENDBRANCH  31  32
ENDBRANCH  22  31
ENDBRANCH   1  21
TORSDOF 7
ENDMDL
MODEL 4
REMARK VINA RESULT:      -9.0      6.647     10.815
REMARK  7 active torsions:
REMARK  status: ('A' for Active; 'I' for Inactive)
REMARK    1  A    between atoms: C_2  and  O_3 
REMARK    2  A    between atoms: O_3  and  C_4 
REMARK    3  A    between atoms: C_5  and  C_6 
REMARK       I    between atoms: C_6  and  N_7 
REMARK    4  A    between atoms: N_7  and  C_8 
REMARK    5  A    between atoms: C_8  and  C_9 
REMARK    6  A    between atoms: C_9  and  N_10 
REMARK    7  A    between atoms: N_14  and  C_15 
ROOT
HETATM    1  C   UNL     1      43.470 -17.658   2.263  1.00  0.00     0.255 C 
HETATM    2  N   UNL     1      42.120 -17.471   2.049  1.00  0.00    -0.355 N 
HETATM    3  O   UNL     1      44.323 -17.202   1.508  1.00  0.00    -0.268 OA
HETATM    4  H   UNL     1      41.483 -17.925   2.701  1.00  0.00     0.162 HD
ENDROOT
BRANCH   2   5
HETATM    5  C   UNL     1      41.572 -16.992   0.786  1.00  0.00     0.150 C 
BRANCH   5   6
HETATM    6  C   UNL     1      40.898 -15.604   0.840  1.00  0.00     0.254 C 
BRANCH   6   7
HETATM    7  N   UNL     1      40.188 -15.234  -0.437  1.00  0.00    -0.067 N 
HETATM    8  H   UNL     1      39.364 -15.866  -0.511  1.00  0.00     0.280 HD
HETATM    9  C   UNL     1      39.574 -13.835  -0.446  1.00  0.00     0.254 C 
HETATM   10  C   UNL     1      38.787 -13.611  -1.757  1.00  0.00     0.150 C 
HETATM   11  N   UNL     1      39.659 -13.824  -2.929  1.00  0.00    -0.378 N 
HETATM   12  C   UNL     1      40.245 -15.183  -2.967  1.00  0.00     0.150 C 
HETATM   13  C   UNL     1      41.044 -15.470  -1.675  1.00  0.00     0.254 C 
BRANCH  11  14
HETATM   14  C   UNL     1      40.349 -12.766  -3.518  1.00  0.00     0.030 A 
HETATM   15  C   UNL     1      41.751 -12.658  -3.493  1.00  0.00     0.031 A 
HETATM   16  C   UNL     1      42.425 -11.567  -4.064  1.00  0.00     0.026 A 
HETATM   17  C   UNL     1      41.705 -10.547  -4.668  1.00  0.00     0.034 A 
HETATM   18 CL   UNL     1      42.528  -9.208  -5.362  1.00  0.00    -0.084 Cl
HETATM   19  C   UNL     1      40.320 -10.607  -4.697  1.00  0.00     0.026 A 
HETATM   20  C   UNL     1      39.657 -11.699  -4.121  1.00  0.00     0.031 A 
ENDBRANCH  11  14
ENDBRANCH   6   7
ENDBRANCH   5   6
ENDBRANCH   2   5
BRANCH   1  21
HETATM   21  C   UNL     1      43.830 -18.418   3.478  1.00  0.00     0.076 A 
HETATM   22  C   UNL     1      43.895 -17.717   4.697  1.00  0.00     0.085 A 
HETATM   23  C   UNL     1      44.194 -18.422   5.861  1.00  0.00     0.039 A 
HETATM   24  C   UNL     1      44.450 -19.796   5.805  1.00  0.00     0.015 A 
HETATM   25  C   UNL     1      44.420 -20.495   4.590  1.00  0.00    -0.025 A 
HETATM   26  C   UNL     1      44.115 -19.809   3.391  1.00  0.00    -0.007 A 
HETATM   27  C   UNL     1      44.698 -21.871   4.562  1.00  0.00     0.012 A 
HETATM   28  C   UNL     1      44.133 -20.556   2.185  1.00  0.00     0.013 A 
HETATM   29  C   UNL     1      44.414 -21.923   2.173  1.00  0.00     0.001 A 
HETATM   30  C   UNL     1      44.692 -22.582   3.364  1.00  0.00     0.001 A 
BRANCH  22  31
HETATM   31  O   UNL     1      43.603 -16.376   4.673  1.00  0.00    -0.350 OA
BRANCH  31  32
HETATM   32  C   UNL     1      42.782 -15.896   5.741  1.00  0.00     0.171 C 
HETATM   33  C   UNL     1      41.332 -16.115   5.349  1.00  0.00     0.034 C 
ENDBRANCH  31  32
ENDBRANCH  22  31
ENDBRANCH   1  21
TORSDOF 7
ENDMDL
MODEL 5
REMARK VINA RESULT:      -8.9      6.255     10.378
REMARK  7 active torsions:
REMARK  status: ('A' for Active; 'I' for Inactive)
REMARK    1  A    between atoms: C_2  and  O_3 
REMARK    2  A    between atoms: O_3  and  C_4 
REMARK    3  A    between atoms: C_5  and  C_6 
REMARK       I    between atoms: C_6  and  N_7 
REMARK    4  A    between atoms: N_7  and  C_8 
REMARK    5  A    between atoms: C_8  and  C_9 
REMARK    6  A    between atoms: C_9  and  N_10 
REMARK    7  A    between atoms: N_14  and  C_15 
ROOT
HETATM    1  C   UNL     1      42.776 -17.317   2.756  1.00  0.00     0.255 C 
HETATM    2  N   UNL     1      41.439 -17.136   3.042  1.00  0.00    -0.355 N 
HETATM    3  O   UNL     1      43.330 -16.747   1.820  1.00  0.00    -0.268 OA
HETATM    4  H   UNL     1      41.054 -17.685   3.809  1.00  0.00     0.162 HD
ENDROOT
BRANCH   2   5
HETATM    5  C   UNL     1      40.503 -16.511   2.116  1.00  0.00     0.150 C 
BRANCH   5   6
HETATM    6  C   UNL     1      40.372 -14.977   2.239  1.00  0.00     0.254 C 
BRANCH   6   7
HETATM    7  N   UNL     1      40.576 -14.253   0.933  1.00  0.00    -0.067 N 
HETATM    8  H   UNL     1      41.504 -13.784   0.998  1.00  0.00     0.280 HD
HETATM    9  C   UNL     1      40.712 -15.160  -0.288  1.00  0.00     0.254 C 
HETATM   10  C   UNL     1      41.022 -14.315  -1.544  1.00  0.00     0.150 C 
HETATM   11  N   UNL     1      39.980 -13.288  -1.749  1.00  0.00    -0.378 N 
HETATM   12  C   UNL     1      39.845 -12.372  -0.594  1.00  0.00     0.150 C 
HETATM   13  C   UNL     1      39.539 -13.162   0.699  1.00  0.00     0.254 C 
BRANCH  11  14
HETATM   14  C   UNL     1      38.873 -13.535  -2.558  1.00  0.00     0.030 A 
HETATM   15  C   UNL     1      38.614 -14.788  -3.142  1.00  0.00     0.031 A 
HETATM   16  C   UNL     1      37.510 -15.006  -3.980  1.00  0.00     0.026 A 
HETATM   17  C   UNL     1      36.639 -13.965  -4.264  1.00  0.00     0.034 A 
HETATM   18 CL   UNL     1      35.291 -14.228  -5.296  1.00  0.00    -0.084 Cl
HETATM   19  C   UNL     1      36.870 -12.709  -3.724  1.00  0.00     0.026 A 
HETATM   20  C   UNL     1      37.977 -12.501  -2.890  1.00  0.00     0.031 A 
ENDBRANCH  11  14
ENDBRANCH   6   7
ENDBRANCH   5   6
ENDBRANCH   2   5
BRANCH   1  21
HETATM   21  C   UNL     1      43.513 -18.218   3.666  1.00  0.00     0.076 A 
HETATM   22  C   UNL     1      43.921 -17.706   4.911  1.00  0.00     0.085 A 
HETATM   23  C   UNL     1      44.582 -18.550   5.800  1.00  0.00     0.039 A 
HETATM   24  C   UNL     1      44.856 -19.874   5.442  1.00  0.00     0.015 A 
HETATM   25  C   UNL     1      44.483 -20.383   4.189  1.00  0.00    -0.025 A 
HETATM   26  C   UNL     1      43.806 -19.552   3.266  1.00  0.00    -0.007 A 
HETATM   27  C   UNL     1      44.785 -21.711   3.850  1.00  0.00     0.012 A 
HETATM   28  C   UNL     1      43.483 -20.105   2.000  1.00  0.00     0.013 A 
HETATM   29  C   UNL     1      43.793 -21.427   1.676  1.00  0.00     0.001 A 
HETATM   30  C   UNL     1      44.440 -22.232   2.604  1.00  0.00     0.001 A 
BRANCH  22  31
HETATM   31  O   UNL     1      43.590 -16.406   5.201  1.00  0.00    -0.350 OA
BRANCH  31  32
HETATM   32  C   UNL     1      43.512 -16.074   6.590  1.00  0.00     0.171 C 
HETATM   33  C   UNL     1      44.508 -14.960   6.858  1.00  0.00     0.034 C 
ENDBRANCH  31  32
ENDBRANCH  22  31
ENDBRANCH   1  21
TORSDOF 7
ENDMDL
MODEL 6
REMARK VINA RESULT:      -8.9      4.803      8.973
REMARK  7 active torsions:
REMARK  status: ('A' for Active; 'I' for Inactive)
REMARK    1  A    between atoms: C_2  and  O_3 
REMARK    2  A    between atoms: O_3  and  C_4 
REMARK    3  A    between atoms: C_5  and  C_6 
REMARK       I    between atoms: C_6  and  N_7 
REMARK    4  A    between atoms: N_7  and  C_8 
REMARK    5  A    between atoms: C_8  and  C_9 
REMARK    6  A    between atoms: C_9  and  N_10 
REMARK    7  A    between atoms: N_14  and  C_15 
ROOT
HETATM    1  C   UNL     1      44.592 -18.287   5.669  1.00  0.00     0.255 C 
HETATM    2  N   UNL     1      43.462 -17.867   6.340  1.00  0.00    -0.355 N 
HETATM    3  O   UNL     1      45.720 -18.144   6.131  1.00  0.00    -0.268 OA
HETATM    4  H   UNL     1      42.572 -17.985   5.860  1.00  0.00     0.162 HD
ENDROOT
BRANCH   2   5
HETATM    5  C   UNL     1      43.503 -16.968   7.486  1.00  0.00     0.150 C 
BRANCH   5   6
HETATM    6  C   UNL     1      43.870 -15.502   7.166  1.00  0.00     0.254 C 
BRANCH   6   7
HETATM    7  N   UNL     1      42.701 -14.687   6.675  1.00  0.00    -0.067 N 
HETATM    8  H   UNL     1      42.322 -14.184   7.505  1.00  0.00     0.280 HD
HETATM    9  C   UNL     1      43.066 -13.563   5.706  1.00  0.00     0.254 C 
HETATM   10  C   UNL     1      41.809 -12.735   5.358  1.00  0.00     0.150 C 
HETATM   11  N   UNL     1      40.752 -13.604   4.802  1.00  0.00    -0.378 N 
HETATM   12  C   UNL     1      40.353 -14.685   5.731  1.00  0.00     0.150 C 
HETATM   13  C   UNL     1      41.573 -15.549   6.122  1.00  0.00     0.254 C 
BRANCH  11  14
HETATM   14  C   UNL     1      40.630 -13.805   3.429  1.00  0.00     0.030 A 
HETATM   15  C   UNL     1      41.287 -13.005   2.476  1.00  0.00     0.031 A 
HETATM   16  C   UNL     1      41.126 -13.204   1.097  1.00  0.00     0.026 A 
HETATM   17  C   UNL     1      40.288 -14.209   0.635  1.00  0.00     0.034 A 
HETATM   18 CL   UNL     1      40.084 -14.450  -1.054  1.00  0.00    -0.084 Cl
HETATM   19  C   UNL     1      39.608 -15.007   1.541  1.00  0.00     0.026 A 
HETATM   20  C   UNL     1      39.774 -14.798   2.917  1.00  0.00     0.031 A 
ENDBRANCH  11  14
ENDBRANCH   6   7
ENDBRANCH   5   6
ENDBRANCH   2   5
BRANCH   1  21
HETATM   21  C   UNL     1      44.360 -18.950   4.368  1.00  0.00     0.076 A 
HETATM   22  C   UNL     1      44.637 -20.326   4.274  1.00  0.00     0.085 A 
HETATM   23  C   UNL     1      44.388 -20.979   3.068  1.00  0.00     0.039 A 
HETATM   24  C   UNL     1      43.898 -20.265   1.970  1.00  0.00     0.015 A 
HETATM   25  C   UNL     1      43.652 -18.887   2.046  1.00  0.00    -0.025 A 
HETATM   26  C   UNL     1      43.890 -18.196   3.257  1.00  0.00    -0.007 A 
HETATM   27  C   UNL     1      43.176 -18.192   0.922  1.00  0.00     0.012 A 
HETATM   28  C   UNL     1      43.659 -16.796   3.271  1.00  0.00     0.013 A 
HETATM   29  C   UNL     1      43.188 -16.119   2.144  1.00  0.00     0.001 A 
HETATM   30  C   UNL     1      42.942 -16.820   0.971  1.00  0.00     0.001 A 
BRANCH  22  31
HETATM   31  O   UNL     1      45.088 -20.961   5.404  1.00  0.00    -0.350 OA
BRANCH  31  32
HETATM   32  C   UNL     1      44.199 -21.925   5.976  1.00  0.00     0.171 C 
HETATM   33  C   UNL     1      43.578 -21.307   7.215  1.00  0.00     0.034 C 
ENDBRANCH  31  32
ENDBRANCH  22  31
ENDBRANCH   1  21
TORSDOF 7
ENDMDL
MODEL 7
REMARK VINA RESULT:      -8.9      5.382      9.550
REMARK  7 active torsions:
REMARK  status: ('A' for Active; 'I' for Inactive)
REMARK    1  A    between atoms: C_2  and  O_3 
REMARK    2  A    between atoms: O_3  and  C_4 
REMARK    3  A    between atoms: C_5  and  C_6 
REMARK       I    between atoms: C_6  and  N_7 
REMARK    4  A    between atoms: N_7  and  C_8 
REMARK    5  A    between atoms: C_8  and  C_9 
REMARK    6  A    between atoms: C_9  and  N_10 
REMARK    7  A    between atoms: N_14  and  C_15 
ROOT
HETATM    1  C   UNL     1      42.881 -16.433   3.568  1.00  0.00     0.255 C 
HETATM    2  N   UNL     1      41.550 -16.195   3.845  1.00  0.00    -0.355 N 
HETATM    3  O   UNL     1      43.518 -15.748   2.774  1.00  0.00    -0.268 OA
HETATM    4  H   UNL     1      41.090 -16.843   4.482  1.00  0.00     0.162 HD
ENDROOT
BRANCH   2   5
HETATM    5  C   UNL     1      40.709 -15.330   3.029  1.00  0.00     0.150 C 
BRANCH   5   6
HETATM    6  C   UNL     1      39.782 -16.056   2.030  1.00  0.00     0.254 C 
BRANCH   6   7
HETATM    7  N   UNL     1      39.796 -15.450   0.651  1.00  0.00    -0.067 N 
HETATM    8  H   UNL     1      39.159 -16.032   0.066  1.00  0.00     0.280 HD
HETATM    9  C   UNL     1      39.192 -14.049   0.561  1.00  0.00     0.254 C 
HETATM   10  C   UNL     1      39.165 -13.578  -0.911  1.00  0.00     0.150 C 
HETATM   11  N   UNL     1      40.521 -13.619  -1.494  1.00  0.00    -0.378 N 
HETATM   12  C   UNL     1      41.122 -14.971  -1.451  1.00  0.00     0.150 C 
HETATM   13  C   UNL     1      41.173 -15.502  -0.000  1.00  0.00     0.254 C 
BRANCH  11  14
HETATM   14  C   UNL     1      41.353 -12.501  -1.468  1.00  0.00     0.030 A 
HETATM   15  C   UNL     1      41.942 -11.957  -2.623  1.00  0.00     0.031 A 
HETATM   16  C   UNL     1      42.803 -10.850  -2.570  1.00  0.00     0.026 A 
HETATM   17  C   UNL     1      43.104 -10.264  -1.349  1.00  0.00     0.034 A 
HETATM   18 CL   UNL     1      44.163  -8.913  -1.282  1.00  0.00    -0.084 Cl
HETATM   19  C   UNL     1      42.559 -10.783  -0.185  1.00  0.00     0.026 A 
HETATM   20  C   UNL     1      41.703 -11.890  -0.249  1.00  0.00     0.031 A 
ENDBRANCH  11  14
ENDBRANCH   6   7
ENDBRANCH   5   6
ENDBRANCH   2   5
BRANCH   1  21
HETATM   21  C   UNL     1      43.503 -17.549   4.310  1.00  0.00     0.076 A 
HETATM   22  C   UNL     1      43.835 -17.336   5.661  1.00  0.00     0.085 A 
HETATM   23  C   UNL     1      44.386 -18.387   6.390  1.00  0.00     0.039 A 
HETATM   24  C   UNL     1      44.628 -19.620   5.775  1.00  0.00     0.015 A 
HETATM   25  C   UNL     1      44.331 -19.830   4.421  1.00  0.00    -0.025 A 
HETATM   26  C   UNL     1      43.766 -18.784   3.654  1.00  0.00    -0.007 A 
HETATM   27  C   UNL     1      44.600 -21.072   3.825  1.00  0.00     0.012 A 
HETATM   28  C   UNL     1      43.518 -19.037   2.281  1.00  0.00     0.013 A 
HETATM   29  C   UNL     1      43.794 -20.277   1.702  1.00  0.00     0.001 A 
HETATM   30  C   UNL     1      44.330 -21.297   2.477  1.00  0.00     0.001 A 
BRANCH  22  31
HETATM   31  O   UNL     1      43.541 -16.108   6.200  1.00  0.00    -0.350 OA
BRANCH  31  32
HETATM   32  C   UNL     1      44.589 -15.486   6.949  1.00  0.00     0.171 C 
HETATM   33  C   UNL     1      44.610 -14.013   6.583  1.00  0.00     0.034 C 
ENDBRANCH  31  32
ENDBRANCH  22  31
ENDBRANCH   1  21
TORSDOF 7
ENDMDL
MODEL 8
REMARK VINA RESULT:      -8.8      3.747      9.420
REMARK  7 active torsions:
REMARK  status: ('A' for Active; 'I' for Inactive)
REMARK    1  A    between atoms: C_2  and  O_3 
REMARK    2  A    between atoms: O_3  and  C_4 
REMARK    3  A    between atoms: C_5  and  C_6 
REMARK       I    between atoms: C_6  and  N_7 
REMARK    4  A    between atoms: N_7  and  C_8 
REMARK    5  A    between atoms: C_8  and  C_9 
REMARK    6  A    between atoms: C_9  and  N_10 
REMARK    7  A    between atoms: N_14  and  C_15 
ROOT
HETATM    1  C   UNL     1      42.464 -16.927   3.342  1.00  0.00     0.255 C 
HETATM    2  N   UNL     1      43.098 -15.896   2.679  1.00  0.00    -0.355 N 
HETATM    3  O   UNL     1      41.244 -17.062   3.330  1.00  0.00    -0.268 OA
HETATM    4  H   UNL     1      44.109 -15.835   2.784  1.00  0.00     0.162 HD
ENDROOT
BRANCH   2   5
HETATM    5  C   UNL     1      42.396 -14.727   2.166  1.00  0.00     0.150 C 
BRANCH   5   6
HETATM    6  C   UNL     1      42.585 -13.429   2.981  1.00  0.00     0.254 C 
BRANCH   6   7
HETATM    7  N   UNL     1      41.365 -13.038   3.775  1.00  0.00    -0.067 N 
HETATM    8  H   UNL     1      40.539 -13.289   3.191  1.00  0.00     0.280 HD
HETATM    9  C   UNL     1      41.154 -13.836   5.061  1.00  0.00     0.254 C 
HETATM   10  C   UNL     1      39.824 -13.422   5.729  1.00  0.00     0.150 C 
HETATM   11  N   UNL     1      39.803 -11.968   5.988  1.00  0.00    -0.378 N 
HETATM   12  C   UNL     1      39.972 -11.165   4.755  1.00  0.00     0.150 C 
HETATM   13  C   UNL     1      41.288 -11.539   4.035  1.00  0.00     0.254 C 
BRANCH  11  14
HETATM   14  C   UNL     1      40.229 -11.444   7.206  1.00  0.00     0.030 A 
HETATM   15  C   UNL     1      41.529 -10.952   7.416  1.00  0.00     0.031 A 
HETATM   16  C   UNL     1      41.948 -10.459   8.662  1.00  0.00     0.026 A 
HETATM   17  C   UNL     1      41.071 -10.456   9.737  1.00  0.00     0.034 A 
HETATM   18 CL   UNL     1      41.583  -9.860  11.263  1.00  0.00    -0.084 Cl
HETATM   19  C   UNL     1      39.785 -10.951   9.576  1.00  0.00     0.026 A 
HETATM   20  C   UNL     1      39.379 -11.444   8.329  1.00  0.00     0.031 A 
ENDBRANCH  11  14
ENDBRANCH   6   7
ENDBRANCH   5   6
ENDBRANCH   2   5
BRANCH   1  21
HETATM   21  C   UNL     1      43.347 -17.879   4.047  1.00  0.00     0.076 A 
HETATM   22  C   UNL     1      43.892 -17.480   5.281  1.00  0.00     0.085 A 
HETATM   23  C   UNL     1      44.695 -18.378   5.981  1.00  0.00     0.039 A 
HETATM   24  C   UNL     1      44.971 -19.640   5.447  1.00  0.00     0.015 A 
HETATM   25  C   UNL     1      44.458 -20.033   4.202  1.00  0.00    -0.025 A 
HETATM   26  C   UNL     1      43.635 -19.147   3.469  1.00  0.00    -0.007 A 
HETATM   27  C   UNL     1      44.764 -21.301   3.682  1.00  0.00     0.012 A 
HETATM   28  C   UNL     1      43.172 -19.579   2.199  1.00  0.00     0.013 A 
HETATM   29  C   UNL     1      43.488 -20.842   1.695  1.00  0.00     0.001 A 
HETATM   30  C   UNL     1      44.280 -21.705   2.440  1.00  0.00     0.001 A 
BRANCH  22  31
HETATM   31  O   UNL     1      43.552 -16.236   5.751  1.00  0.00    -0.350 OA
BRANCH  31  32
HETATM   32  C   UNL     1      44.142 -15.856   6.998  1.00  0.00     0.171 C 
HETATM   33  C   UNL     1      44.428 -14.367   6.943  1.00  0.00     0.034 C 
ENDBRANCH  31  32
ENDBRANCH  22  31
ENDBRANCH   1  21
TORSDOF 7
ENDMDL
MODEL 9
REMARK VINA RESULT:      -8.7      6.328     10.499
REMARK  7 active torsions:
REMARK  status: ('A' for Active; 'I' for Inactive)
REMARK    1  A    between atoms: C_2  and  O_3 
REMARK    2  A    between atoms: O_3  and  C_4 
REMARK    3  A    between atoms: C_5  and  C_6 
REMARK       I    between atoms: C_6  and  N_7 
REMARK    4  A    between atoms: N_7  and  C_8 
REMARK    5  A    between atoms: C_8  and  C_9 
REMARK    6  A    between atoms: C_9  and  N_10 
REMARK    7  A    between atoms: N_14  and  C_15 
ROOT
HETATM    1  C   UNL     1      42.709 -17.308   2.560  1.00  0.00     0.255 C 
HETATM    2  N   UNL     1      41.342 -17.247   2.736  1.00  0.00    -0.355 N 
HETATM    3  O   UNL     1      43.283 -16.694   1.666  1.00  0.00    -0.268 OA
HETATM    4  H   UNL     1      40.947 -17.826   3.474  1.00  0.00     0.162 HD
ENDROOT
BRANCH   2   5
HETATM    5  C   UNL     1      40.432 -16.712   1.731  1.00  0.00     0.150 C 
BRANCH   5   6
HETATM    6  C   UNL     1      39.569 -15.516   2.187  1.00  0.00     0.254 C 
BRANCH   6   7
HETATM    7  N   UNL     1      39.609 -14.351   1.232  1.00  0.00    -0.067 N 
HETATM    8  H   UNL     1      40.260 -13.651   1.647  1.00  0.00     0.280 HD
HETATM    9  C   UNL     1      40.229 -14.660  -0.129  1.00  0.00     0.254 C 
HETATM   10  C   UNL     1      40.312 -13.371  -0.978  1.00  0.00     0.150 C 
HETATM   11  N   UNL     1      38.977 -12.756  -1.121  1.00  0.00    -0.378 N 
HETATM   12  C   UNL     1      38.362 -12.415   0.181  1.00  0.00     0.150 C 
HETATM   13  C   UNL     1      38.256 -13.667   1.081  1.00  0.00     0.254 C 
BRANCH  11  14
HETATM   14  C   UNL     1      38.156 -13.057  -2.206  1.00  0.00     0.030 A 
HETATM   15  C   UNL     1      37.331 -12.104  -2.829  1.00  0.00     0.031 A 
HETATM   16  C   UNL     1      36.486 -12.435  -3.900  1.00  0.00     0.026 A 
HETATM   17  C   UNL     1      36.441 -13.740  -4.369  1.00  0.00     0.034 A 
HETATM   18 CL   UNL     1      35.404 -14.149  -5.675  1.00  0.00    -0.084 Cl
HETATM   19  C   UNL     1      37.226 -14.713  -3.769  1.00  0.00     0.026 A 
HETATM   20  C   UNL     1      38.063 -14.372  -2.698  1.00  0.00     0.031 A 
ENDBRANCH  11  14
ENDBRANCH   6   7
ENDBRANCH   5   6
ENDBRANCH   2   5
BRANCH   1  21
HETATM   21  C   UNL     1      43.448 -18.137   3.536  1.00  0.00     0.076 A 
HETATM   22  C   UNL     1      43.820 -17.541   4.755  1.00  0.00     0.085 A 
HETATM   23  C   UNL     1      44.482 -18.316   5.705  1.00  0.00     0.039 A 
HETATM   24  C   UNL     1      44.791 -19.652   5.432  1.00  0.00     0.015 A 
HETATM   25  C   UNL     1      44.453 -20.243   4.206  1.00  0.00    -0.025 A 
HETATM   26  C   UNL     1      43.776 -19.485   3.222  1.00  0.00    -0.007 A 
HETATM   27  C   UNL     1      44.791 -21.582   3.952  1.00  0.00     0.012 A 
HETATM   28  C   UNL     1      43.490 -20.119   1.986  1.00  0.00     0.013 A 
HETATM   29  C   UNL     1      43.835 -21.451   1.748  1.00  0.00     0.001 A 
HETATM   30  C   UNL     1      44.481 -22.184   2.734  1.00  0.00     0.001 A 
BRANCH  22  31
HETATM   31  O   UNL     1      43.455 -16.234   4.960  1.00  0.00    -0.350 OA
BRANCH  31  32
HETATM   32  C   UNL     1      42.738 -15.967   6.168  1.00  0.00     0.171 C 
HETATM   33  C   UNL     1      41.389 -15.384   5.789  1.00  0.00     0.034 C 
ENDBRANCH  31  32
ENDBRANCH  22  31
ENDBRANCH   1  21
TORSDOF 7
ENDMDL
MODEL 10
REMARK VINA RESULT:      -8.7      3.685      9.686
REMARK  7 active torsions:
REMARK  status: ('A' for Active; 'I' for Inactive)
REMARK    1  A    between atoms: C_2  and  O_3 
REMARK    2  A    between atoms: O_3  and  C_4 
REMARK    3  A    between atoms: C_5  and  C_6 
REMARK       I    between atoms: C_6  and  N_7 
REMARK    4  A    between atoms: N_7  and  C_8 
REMARK    5  A    between atoms: C_8  and  C_9 
REMARK    6  A    between atoms: C_9  and  N_10 
REMARK    7  A    between atoms: N_14  and  C_15 
ROOT
HETATM    1  C   UNL     1      42.708 -16.194   4.680  1.00  0.00     0.255 C 
HETATM    2  N   UNL     1      41.383 -16.224   5.062  1.00  0.00    -0.355 N 
HETATM    3  O   UNL     1      43.537 -15.487   5.245  1.00  0.00    -0.268 OA
HETATM    4  H   UNL     1      40.757 -16.804   4.506  1.00  0.00     0.162 HD
ENDROOT
BRANCH   2   5
HETATM    5  C   UNL     1      40.784 -15.230   5.944  1.00  0.00     0.150 C 
BRANCH   5   6
HETATM    6  C   UNL     1      39.877 -14.190   5.252  1.00  0.00     0.254 C 
BRANCH   6   7
HETATM    7  N   UNL     1      40.105 -12.781   5.737  1.00  0.00    -0.067 N 
HETATM    8  H   UNL     1      39.801 -12.150   4.965  1.00  0.00     0.280 HD
HETATM    9  C   UNL     1      39.228 -12.360   6.916  1.00  0.00     0.254 C 
HETATM   10  C   UNL     1      39.473 -10.872   7.253  1.00  0.00     0.150 C 
HETATM   11  N   UNL     1      40.904 -10.632   7.532  1.00  0.00    -0.378 N 
HETATM   12  C   UNL     1      41.778 -11.000   6.396  1.00  0.00     0.150 C 
HETATM   13  C   UNL     1      41.574 -12.482   6.006  1.00  0.00     0.254 C 
BRANCH  11  14
HETATM   14  C   UNL     1      41.407 -10.697   8.830  1.00  0.00     0.030 A 
HETATM   15  C   UNL     1      42.783 -10.733   9.117  1.00  0.00     0.031 A 
HETATM   16  C   UNL     1      43.269 -10.831  10.430  1.00  0.00     0.026 A 
HETATM   17  C   UNL     1      42.382 -10.906  11.493  1.00  0.00     0.034 A 
HETATM   18 CL   UNL     1      42.974 -11.033  13.100  1.00  0.00    -0.084 Cl
HETATM   19  C   UNL     1      41.016 -10.892  11.251  1.00  0.00     0.026 A 
HETATM   20  C   UNL     1      40.542 -10.797   9.936  1.00  0.00     0.031 A 
ENDBRANCH  11  14
ENDBRANCH   6   7
ENDBRANCH   5   6
ENDBRANCH   2   5
BRANCH   1  21
HETATM   21  C   UNL     1      43.078 -17.090   3.565  1.00  0.00     0.076 A 
HETATM   22  C   UNL     1      42.775 -16.669   2.257  1.00  0.00     0.085 A 
HETATM   23  C   UNL     1      43.152 -17.480   1.188  1.00  0.00     0.039 A 
HETATM   24  C   UNL     1      43.793 -18.700   1.422  1.00  0.00     0.015 A 
HETATM   25  C   UNL     1      44.068 -19.142   2.724  1.00  0.00    -0.025 A 
HETATM   26  C   UNL     1      43.704 -18.340   3.830  1.00  0.00    -0.007 A 
HETATM   27  C   UNL     1      44.699 -20.379   2.930  1.00  0.00     0.012 A 
HETATM   28  C   UNL     1      43.972 -18.848   5.127  1.00  0.00     0.013 A 
HETATM   29  C   UNL     1      44.597 -20.082   5.316  1.00  0.00     0.001 A 
HETATM   30  C   UNL     1      44.965 -20.846   4.216  1.00  0.00     0.001 A 
BRANCH  22  31
HETATM   31  O   UNL     1      42.171 -15.446   2.108  1.00  0.00    -0.350 OA
BRANCH  31  32
HETATM   32  C   UNL     1      41.126 -15.379   1.133  1.00  0.00     0.171 C 
HETATM   33  C   UNL     1      39.804 -15.561   1.855  1.00  0.00     0.034 C 
ENDBRANCH  31  32
ENDBRANCH  22  31
ENDBRANCH   1  21
TORSDOF 7
ENDMDL
