MODEL 1
REMARK VINA RESULT:      -7.4      0.000      0.000
REMARK  3 active torsions:
REMARK  status: ('A' for Active; 'I' for Inactive)
REMARK       I    between atoms: C_2  and  N_3 
REMARK    1  A    between atoms: N_3  and  C_4 
REMARK    2  A    between atoms: C_7  and  N_8 
REMARK       I    between atoms: N_8  and  C_9 
REMARK    3  A    between atoms: C_9  and  C_10 
ROOT
HETATM    1  C   UNL     1      43.604 -17.762   4.857  1.00  0.00     0.052 A 
HETATM    2  C   UNL     1      42.896 -16.569   4.785  1.00  0.00     0.148 A 
HETATM    3  N   UNL     1      43.002 -15.561   5.691  1.00  0.00    -0.241 NA
HETATM    4  C   UNL     1      43.848 -15.736   6.726  1.00  0.00     0.130 A 
HETATM    5  C   UNL     1      44.589 -16.896   6.890  1.00  0.00     0.053 A 
HETATM    6  C   UNL     1      44.464 -17.916   5.943  1.00  0.00     0.035 A 
ENDROOT
BRANCH   4   7
HETATM    7  N   UNL     1      43.897 -14.639   7.586  1.00  0.00    -0.307 N 
HETATM    8  C   UNL     1      44.818 -13.620   7.614  1.00  0.00     0.257 C 
HETATM    9  O   UNL     1      45.777 -13.493   6.860  1.00  0.00    -0.267 OA
HETATM   10  H   UNL     1      43.090 -14.620   8.193  1.00  0.00     0.170 HD
BRANCH   8  11
HETATM   11  C   UNL     1      44.585 -12.568   8.649  1.00  0.00     0.032 A 
HETATM   12  C   UNL     1      43.420 -11.791   8.551  1.00  0.00     0.018 A 
HETATM   13  C   UNL     1      43.150 -10.797   9.495  1.00  0.00     0.025 A 
HETATM   14  C   UNL     1      44.047 -10.571  10.536  1.00  0.00     0.034 A 
HETATM   15 CL   UNL     1      43.715  -9.350  11.701  1.00  0.00    -0.084 Cl
HETATM   16  C   UNL     1      45.216 -11.324  10.636  1.00  0.00     0.025 A 
HETATM   17  C   UNL     1      45.491 -12.319   9.690  1.00  0.00     0.018 A 
ENDBRANCH   8  11
ENDBRANCH   4   7
BRANCH   1  18
HETATM   18  N   UNL     1      43.528 -18.816   3.924  1.00  0.00    -0.326 N 
HETATM   19  C   UNL     1      43.859 -18.755   2.583  1.00  0.00     0.218 C 
HETATM   20  C   UNL     1      43.688 -20.085   1.894  1.00  0.00     0.117 C 
HETATM   21  O   UNL     1      44.260 -17.769   1.976  1.00  0.00    -0.274 OA
HETATM   22  H   UNL     1      43.208 -19.709   4.277  1.00  0.00     0.169 HD
ENDBRANCH   1  18
TORSDOF 3
ENDMDL
MODEL 2
REMARK VINA RESULT:      -7.2      7.008      9.183
REMARK  3 active torsions:
REMARK  status: ('A' for Active; 'I' for Inactive)
REMARK       I    between atoms: C_2  and  N_3 
REMARK    1  A    between atoms: N_3  and  C_4 
REMARK    2  A    between atoms: C_7  and  N_8 
REMARK       I    between atoms: N_8  and  C_9 
REMARK    3  A    between atoms: C_9  and  C_10 
ROOT
HETATM    1  C   UNL     1      39.965 -14.446   0.107  1.00  0.00     0.052 A 
HETATM    2  C   UNL     1      39.808 -14.957   1.389  1.00  0.00     0.148 A 
HETATM    3  N   UNL     1      40.499 -16.021   1.878  1.00  0.00    -0.241 NA
HETATM    4  C   UNL     1      41.391 -16.617   1.062  1.00  0.00     0.130 A 
HETATM    5  C   UNL     1      41.610 -16.187  -0.237  1.00  0.00     0.053 A 
HETATM    6  C   UNL     1      40.889 -15.089  -0.714  1.00  0.00     0.035 A 
ENDROOT
BRANCH   4   7
HETATM    7  N   UNL     1      42.058 -17.684   1.664  1.00  0.00    -0.307 N 
HETATM    8  C   UNL     1      43.412 -17.895   1.762  1.00  0.00     0.257 C 
HETATM    9  O   UNL     1      44.291 -17.156   1.331  1.00  0.00    -0.267 OA
HETATM   10  H   UNL     1      41.406 -18.306   2.121  1.00  0.00     0.170 HD
BRANCH   8  11
HETATM   11  C   UNL     1      43.821 -19.132   2.492  1.00  0.00     0.032 A 
HETATM   12  C   UNL     1      44.232 -19.005   3.829  1.00  0.00     0.018 A 
HETATM   13  C   UNL     1      44.620 -20.130   4.561  1.00  0.00     0.025 A 
HETATM   14  C   UNL     1      44.605 -21.386   3.957  1.00  0.00     0.034 A 
HETATM   15 CL   UNL     1      45.080 -22.772   4.858  1.00  0.00    -0.084 Cl
HETATM   16  C   UNL     1      44.216 -21.524   2.626  1.00  0.00     0.025 A 
HETATM   17  C   UNL     1      43.829 -20.399   1.889  1.00  0.00     0.018 A 
ENDBRANCH   8  11
ENDBRANCH   4   7
BRANCH   1  18
HETATM   18  N   UNL     1      39.277 -13.334  -0.420  1.00  0.00    -0.326 N 
HETATM   19  C   UNL     1      38.278 -13.361  -1.375  1.00  0.00     0.218 C 
HETATM   20  C   UNL     1      37.742 -11.985  -1.676  1.00  0.00     0.117 C 
HETATM   21  O   UNL     1      37.833 -14.356  -1.936  1.00  0.00    -0.274 OA
HETATM   22  H   UNL     1      39.536 -12.428  -0.053  1.00  0.00     0.169 HD
ENDBRANCH   1  18
TORSDOF 3
ENDMDL
MODEL 3
REMARK VINA RESULT:      -7.0      4.823      8.657
REMARK  3 active torsions:
REMARK  status: ('A' for Active; 'I' for Inactive)
REMARK       I    between atoms: C_2  and  N_3 
REMARK    1  A    between atoms: N_3  and  C_4 
REMARK    2  A    between atoms: C_7  and  N_8 
REMARK       I    between atoms: N_8  and  C_9 
REMARK    3  A    between atoms: C_9  and  C_10 
ROOT
HETATM    1  C   UNL     1      41.274 -12.518   5.535  1.00  0.00     0.052 A 
HETATM    2  C   UNL     1      42.380 -12.774   4.734  1.00  0.00     0.148 A 
HETATM    3  N   UNL     1      42.740 -14.012   4.301  1.00  0.00    -0.241 NA
HETATM    4  C   UNL     1      41.974 -15.055   4.678  1.00  0.00     0.130 A 
HETATM    5  C   UNL     1      40.859 -14.901   5.486  1.00  0.00     0.053 A 
HETATM    6  C   UNL     1      40.508 -13.618   5.915  1.00  0.00     0.035 A 
ENDROOT
BRANCH   4   7
HETATM    7  N   UNL     1      42.419 -16.275   4.168  1.00  0.00    -0.307 N 
HETATM    8  C   UNL     1      43.340 -17.138   4.709  1.00  0.00     0.257 C 
HETATM    9  O   UNL     1      43.939 -16.985   5.768  1.00  0.00    -0.267 OA
HETATM   10  H   UNL     1      41.912 -16.522   3.330  1.00  0.00     0.170 HD
BRANCH   8  11
HETATM   11  C   UNL     1      43.591 -18.387   3.928  1.00  0.00     0.032 A 
HETATM   12  C   UNL     1      42.928 -18.543   2.701  1.00  0.00     0.018 A 
HETATM   13  C   UNL     1      43.131 -19.688   1.926  1.00  0.00     0.025 A 
HETATM   14  C   UNL     1      43.991 -20.685   2.380  1.00  0.00     0.034 A 
HETATM   15 CL   UNL     1      44.244 -22.095   1.427  1.00  0.00    -0.084 Cl
HETATM   16  C   UNL     1      44.642 -20.551   3.605  1.00  0.00     0.025 A 
HETATM   17  C   UNL     1      44.440 -19.406   4.385  1.00  0.00     0.018 A 
ENDBRANCH   8  11
ENDBRANCH   4   7
BRANCH   1  18
HETATM   18  N   UNL     1      40.866 -11.246   5.983  1.00  0.00    -0.326 N 
HETATM   19  C   UNL     1      41.378 -10.549   7.062  1.00  0.00     0.218 C 
HETATM   20  C   UNL     1      40.727  -9.200   7.228  1.00  0.00     0.117 C 
HETATM   21  O   UNL     1      42.263 -10.928   7.820  1.00  0.00    -0.274 OA
HETATM   22  H   UNL     1      40.130 -10.796   5.454  1.00  0.00     0.169 HD
ENDBRANCH   1  18
TORSDOF 3
ENDMDL
MODEL 4
REMARK VINA RESULT:      -6.8      5.081      8.386
REMARK  3 active torsions:
REMARK  status: ('A' for Active; 'I' for Inactive)
REMARK       I    between atoms: C_2  and  N_3 
REMARK    1  A    between atoms: N_3  and  C_4 
REMARK    2  A    between atoms: C_7  and  N_8 
REMARK       I    between atoms: N_8  and  C_9 
REMARK    3  A    between atoms: C_9  and  C_10 
ROOT
HETATM    1  C   UNL     1      40.871 -12.754   3.910  1.00  0.00     0.052 A 
HETATM    2  C   UNL     1      40.378 -13.945   3.391  1.00  0.00     0.148 A 
HETATM    3  N   UNL     1      41.002 -15.148   3.511  1.00  0.00    -0.241 NA
HETATM    4  C   UNL     1      42.175 -15.181   4.175  1.00  0.00     0.130 A 
HETATM    5  C   UNL     1      42.751 -14.044   4.718  1.00  0.00     0.053 A 
HETATM    6  C   UNL     1      42.089 -12.821   4.583  1.00  0.00     0.035 A 
ENDROOT
BRANCH   4   7
HETATM    7  N   UNL     1      42.721 -16.462   4.257  1.00  0.00    -0.307 N 
HETATM    8  C   UNL     1      43.458 -17.134   3.313  1.00  0.00     0.257 C 
HETATM    9  O   UNL     1      43.777 -16.708   2.208  1.00  0.00    -0.267 OA
HETATM   10  H   UNL     1      42.575 -16.859   5.174  1.00  0.00     0.170 HD
BRANCH   8  11
HETATM   11  C   UNL     1      43.926 -18.497   3.709  1.00  0.00     0.032 A 
HETATM   12  C   UNL     1      44.096 -18.765   5.076  1.00  0.00     0.018 A 
HETATM   13  C   UNL     1      44.526 -20.024   5.503  1.00  0.00     0.025 A 
HETATM   14  C   UNL     1      44.794 -21.018   4.563  1.00  0.00     0.034 A 
HETATM   15 CL   UNL     1      45.320 -22.570   5.087  1.00  0.00    -0.084 Cl
HETATM   16  C   UNL     1      44.645 -20.760   3.202  1.00  0.00     0.025 A 
HETATM   17  C   UNL     1      44.217 -19.499   2.771  1.00  0.00     0.018 A 
ENDBRANCH   8  11
ENDBRANCH   4   7
BRANCH   1  18
HETATM   18  N   UNL     1      40.239 -11.498   3.817  1.00  0.00    -0.326 N 
HETATM   19  C   UNL     1      39.141 -11.072   4.540  1.00  0.00     0.218 C 
HETATM   20  C   UNL     1      38.755  -9.654   4.206  1.00  0.00     0.117 C 
HETATM   21  O   UNL     1      38.522 -11.722   5.374  1.00  0.00    -0.274 OA
HETATM   22  H   UNL     1      40.639 -10.840   3.159  1.00  0.00     0.169 HD
ENDBRANCH   1  18
TORSDOF 3
ENDMDL
MODEL 5
REMARK VINA RESULT:      -6.6      6.643      9.706
REMARK  3 active torsions:
REMARK  status: ('A' for Active; 'I' for Inactive)
REMARK       I    between atoms: C_2  and  N_3 
REMARK    1  A    between atoms: N_3  and  C_4 
REMARK    2  A    between atoms: C_7  and  N_8 
REMARK       I    between atoms: N_8  and  C_9 
REMARK    3  A    between atoms: C_9  and  C_10 
ROOT
HETATM    1  C   UNL     1      43.301 -17.659   3.314  1.00  0.00     0.052 A 
HETATM    2  C   UNL     1      41.958 -17.307   3.372  1.00  0.00     0.148 A 
HETATM    3  N   UNL     1      41.234 -16.874   2.306  1.00  0.00    -0.241 NA
HETATM    4  C   UNL     1      41.864 -16.779   1.118  1.00  0.00     0.130 A 
HETATM    5  C   UNL     1      43.205 -17.096   0.963  1.00  0.00     0.053 A 
HETATM    6  C   UNL     1      43.926 -17.542   2.074  1.00  0.00     0.035 A 
ENDROOT
BRANCH   4   7
HETATM    7  N   UNL     1      41.030 -16.344   0.088  1.00  0.00    -0.307 N 
HETATM    8  C   UNL     1      41.089 -15.163  -0.611  1.00  0.00     0.257 C 
HETATM    9  O   UNL     1      41.912 -14.268  -0.452  1.00  0.00    -0.267 OA
HETATM   10  H   UNL     1      40.367 -17.060  -0.167  1.00  0.00     0.170 HD
BRANCH   8  11
HETATM   11  C   UNL     1      40.059 -14.995  -1.681  1.00  0.00     0.032 A 
HETATM   12  C   UNL     1      38.947 -14.183  -1.406  1.00  0.00     0.018 A 
HETATM   13  C   UNL     1      37.957 -13.987  -2.372  1.00  0.00     0.025 A 
HETATM   14  C   UNL     1      38.071 -14.607  -3.614  1.00  0.00     0.034 A 
HETATM   15 CL   UNL     1      36.855 -14.365  -4.806  1.00  0.00    -0.084 Cl
HETATM   16  C   UNL     1      39.161 -15.430  -3.894  1.00  0.00     0.025 A 
HETATM   17  C   UNL     1      40.154 -15.630  -2.928  1.00  0.00     0.018 A 
ENDBRANCH   8  11
ENDBRANCH   4   7
BRANCH   1  18
HETATM   18  N   UNL     1      44.071 -18.128   4.397  1.00  0.00    -0.326 N 
HETATM   19  C   UNL     1      44.295 -17.473   5.594  1.00  0.00     0.218 C 
HETATM   20  C   UNL     1      45.140 -18.288   6.539  1.00  0.00     0.117 C 
HETATM   21  O   UNL     1      43.874 -16.366   5.908  1.00  0.00    -0.274 OA
HETATM   22  H   UNL     1      44.493 -19.041   4.288  1.00  0.00     0.169 HD
ENDBRANCH   1  18
TORSDOF 3
ENDMDL
MODEL 6
REMARK VINA RESULT:      -6.5      4.919      8.887
REMARK  3 active torsions:
REMARK  status: ('A' for Active; 'I' for Inactive)
REMARK       I    between atoms: C_2  and  N_3 
REMARK    1  A    between atoms: N_3  and  C_4 
REMARK    2  A    between atoms: C_7  and  N_8 
REMARK       I    between atoms: N_8  and  C_9 
REMARK    3  A    between atoms: C_9  and  C_10 
ROOT
HETATM    1  C   UNL     1      40.371 -12.084   6.247  1.00  0.00     0.052 A 
HETATM    2  C   UNL     1      41.715 -12.386   6.061  1.00  0.00     0.148 A 
HETATM    3  N   UNL     1      42.171 -13.565   5.562  1.00  0.00    -0.241 NA
HETATM    4  C   UNL     1      41.258 -14.501   5.231  1.00  0.00     0.130 A 
HETATM    5  C   UNL     1      39.897 -14.297   5.391  1.00  0.00     0.053 A 
HETATM    6  C   UNL     1      39.453 -13.074   5.903  1.00  0.00     0.035 A 
ENDROOT
BRANCH   4   7
HETATM    7  N   UNL     1      41.828 -15.664   4.713  1.00  0.00    -0.307 N 
HETATM    8  C   UNL     1      41.746 -16.154   3.433  1.00  0.00     0.257 C 
HETATM    9  O   UNL     1      41.148 -15.633   2.497  1.00  0.00    -0.267 OA
HETATM   10  H   UNL     1      42.412 -16.117   5.401  1.00  0.00     0.170 HD
BRANCH   8  11
HETATM   11  C   UNL     1      42.490 -17.424   3.179  1.00  0.00     0.032 A 
HETATM   12  C   UNL     1      43.167 -18.020   4.255  1.00  0.00     0.018 A 
HETATM   13  C   UNL     1      43.874 -19.212   4.075  1.00  0.00     0.025 A 
HETATM   14  C   UNL     1      43.913 -19.808   2.817  1.00  0.00     0.034 A 
HETATM   15 CL   UNL     1      44.780 -21.277   2.594  1.00  0.00    -0.084 Cl
HETATM   16  C   UNL     1      43.260 -19.218   1.736  1.00  0.00     0.025 A 
HETATM   17  C   UNL     1      42.553 -18.023   1.912  1.00  0.00     0.018 A 
ENDBRANCH   8  11
ENDBRANCH   4   7
BRANCH   1  18
HETATM   18  N   UNL     1      39.868 -10.865   6.745  1.00  0.00    -0.326 N 
HETATM   19  C   UNL     1      39.419 -10.622   8.029  1.00  0.00     0.218 C 
HETATM   20  C   UNL     1      38.984  -9.191   8.218  1.00  0.00     0.117 C 
HETATM   21  O   UNL     1      39.368 -11.431   8.948  1.00  0.00    -0.274 OA
HETATM   22  H   UNL     1      39.844 -10.089   6.096  1.00  0.00     0.169 HD
ENDBRANCH   1  18
TORSDOF 3
ENDMDL
MODEL 7
REMARK VINA RESULT:      -6.5      4.625      8.610
REMARK  3 active torsions:
REMARK  status: ('A' for Active; 'I' for Inactive)
REMARK       I    between atoms: C_2  and  N_3 
REMARK    1  A    between atoms: N_3  and  C_4 
REMARK    2  A    between atoms: C_7  and  N_8 
REMARK       I    between atoms: N_8  and  C_9 
REMARK    3  A    between atoms: C_9  and  C_10 
ROOT
HETATM    1  C   UNL     1      42.138 -12.864   6.275  1.00  0.00     0.052 A 
HETATM    2  C   UNL     1      41.285 -13.734   5.608  1.00  0.00     0.148 A 
HETATM    3  N   UNL     1      41.659 -14.946   5.118  1.00  0.00    -0.241 NA
HETATM    4  C   UNL     1      42.943 -15.322   5.291  1.00  0.00     0.130 A 
HETATM    5  C   UNL     1      43.871 -14.518   5.933  1.00  0.00     0.053 A 
HETATM    6  C   UNL     1      43.460 -13.278   6.430  1.00  0.00     0.035 A 
ENDROOT
BRANCH   4   7
HETATM    7  N   UNL     1      43.218 -16.586   4.769  1.00  0.00    -0.307 N 
HETATM    8  C   UNL     1      43.456 -16.933   3.461  1.00  0.00     0.257 C 
HETATM    9  O   UNL     1      43.476 -16.167   2.503  1.00  0.00    -0.267 OA
HETATM   10  H   UNL     1      43.303 -17.271   5.506  1.00  0.00     0.170 HD
BRANCH   8  11
HETATM   11  C   UNL     1      43.745 -18.379   3.219  1.00  0.00     0.032 A 
HETATM   12  C   UNL     1      44.444 -19.087   4.209  1.00  0.00     0.018 A 
HETATM   13  C   UNL     1      44.736 -20.443   4.038  1.00  0.00     0.025 A 
HETATM   14  C   UNL     1      44.336 -21.093   2.872  1.00  0.00     0.034 A 
HETATM   15 CL   UNL     1      44.692 -22.763   2.659  1.00  0.00    -0.084 Cl
HETATM   16  C   UNL     1      43.657 -20.397   1.873  1.00  0.00     0.025 A 
HETATM   17  C   UNL     1      43.365 -19.038   2.041  1.00  0.00     0.018 A 
ENDBRANCH   8  11
ENDBRANCH   4   7
BRANCH   1  18
HETATM   18  N   UNL     1      41.775 -11.611   6.809  1.00  0.00    -0.326 N 
HETATM   19  C   UNL     1      41.462 -10.470   6.094  1.00  0.00     0.218 C 
HETATM   20  C   UNL     1      41.084  -9.321   6.993  1.00  0.00     0.117 C 
HETATM   21  O   UNL     1      41.463 -10.352   4.874  1.00  0.00    -0.274 OA
HETATM   22  H   UNL     1      41.729 -11.547   7.818  1.00  0.00     0.169 HD
ENDBRANCH   1  18
TORSDOF 3
ENDMDL
MODEL 8
REMARK VINA RESULT:      -6.5      7.001      8.710
REMARK  3 active torsions:
REMARK  status: ('A' for Active; 'I' for Inactive)
REMARK       I    between atoms: C_2  and  N_3 
REMARK    1  A    between atoms: N_3  and  C_4 
REMARK    2  A    between atoms: C_7  and  N_8 
REMARK       I    between atoms: N_8  and  C_9 
REMARK    3  A    between atoms: C_9  and  C_10 
ROOT
HETATM    1  C   UNL     1      44.040 -19.559   3.312  1.00  0.00     0.052 A 
HETATM    2  C   UNL     1      43.569 -19.823   2.032  1.00  0.00     0.148 A 
HETATM    3  N   UNL     1      43.156 -18.868   1.157  1.00  0.00    -0.241 NA
HETATM    4  C   UNL     1      43.204 -17.583   1.564  1.00  0.00     0.130 A 
HETATM    5  C   UNL     1      43.647 -17.222   2.826  1.00  0.00     0.053 A 
HETATM    6  C   UNL     1      44.070 -18.222   3.705  1.00  0.00     0.035 A 
ENDROOT
BRANCH   4   7
HETATM    7  N   UNL     1      42.776 -16.683   0.588  1.00  0.00    -0.307 N 
HETATM    8  C   UNL     1      41.535 -16.112   0.445  1.00  0.00     0.257 C 
HETATM    9  O   UNL     1      40.567 -16.294   1.175  1.00  0.00    -0.267 OA
HETATM   10  H   UNL     1      43.540 -16.411  -0.014  1.00  0.00     0.170 HD
BRANCH   8  11
HETATM   11  C   UNL     1      41.390 -15.161  -0.699  1.00  0.00     0.032 A 
HETATM   12  C   UNL     1      41.631 -13.798  -0.459  1.00  0.00     0.018 A 
HETATM   13  C   UNL     1      41.516 -12.866  -1.494  1.00  0.00     0.025 A 
HETATM   14  C   UNL     1      41.154 -13.292  -2.770  1.00  0.00     0.034 A 
HETATM   15 CL   UNL     1      41.015 -12.146  -4.046  1.00  0.00    -0.084 Cl
HETATM   16  C   UNL     1      40.895 -14.639  -3.018  1.00  0.00     0.025 A 
HETATM   17  C   UNL     1      41.007 -15.575  -1.983  1.00  0.00     0.018 A 
ENDBRANCH   8  11
ENDBRANCH   4   7
BRANCH   1  18
HETATM   18  N   UNL     1      44.492 -20.526   4.233  1.00  0.00    -0.326 N 
HETATM   19  C   UNL     1      44.693 -21.870   3.984  1.00  0.00     0.218 C 
HETATM   20  C   UNL     1      45.217 -22.601   5.194  1.00  0.00     0.117 C 
HETATM   21  O   UNL     1      44.497 -22.452   2.923  1.00  0.00    -0.274 OA
HETATM   22  H   UNL     1      44.699 -20.196   5.167  1.00  0.00     0.169 HD
ENDBRANCH   1  18
TORSDOF 3
ENDMDL
MODEL 9
REMARK VINA RESULT:      -6.4      7.340      9.090
REMARK  3 active torsions:
REMARK  status: ('A' for Active; 'I' for Inactive)
REMARK       I    between atoms: C_2  and  N_3 
REMARK    1  A    between atoms: N_3  and  C_4 
REMARK    2  A    between atoms: C_7  and  N_8 
REMARK       I    between atoms: N_8  and  C_9 
REMARK    3  A    between atoms: C_9  and  C_10 
ROOT
HETATM    1  C   UNL     1      43.371 -18.544   2.955  1.00  0.00     0.052 A 
HETATM    2  C   UNL     1      42.087 -18.073   3.203  1.00  0.00     0.148 A 
HETATM    3  N   UNL     1      41.361 -17.333   2.324  1.00  0.00    -0.241 NA
HETATM    4  C   UNL     1      41.927 -17.037   1.136  1.00  0.00     0.130 A 
HETATM    5  C   UNL     1      43.206 -17.452   0.802  1.00  0.00     0.053 A 
HETATM    6  C   UNL     1      43.931 -18.214   1.723  1.00  0.00     0.035 A 
ENDROOT
BRANCH   4   7
HETATM    7  N   UNL     1      41.094 -16.292   0.302  1.00  0.00    -0.307 N 
HETATM    8  C   UNL     1      41.077 -14.932   0.112  1.00  0.00     0.257 C 
HETATM    9  O   UNL     1      41.819 -14.118   0.652  1.00  0.00    -0.267 OA
HETATM   10  H   UNL     1      40.500 -16.896  -0.249  1.00  0.00     0.170 HD
BRANCH   8  11
HETATM   11  C   UNL     1      40.072 -14.430  -0.873  1.00  0.00     0.032 A 
HETATM   12  C   UNL     1      40.300 -14.682  -2.236  1.00  0.00     0.018 A 
HETATM   13  C   UNL     1      39.390 -14.241  -3.200  1.00  0.00     0.025 A 
HETATM   14  C   UNL     1      38.252 -13.540  -2.805  1.00  0.00     0.034 A 
HETATM   15 CL   UNL     1      37.129 -12.998  -3.990  1.00  0.00    -0.084 Cl
HETATM   16  C   UNL     1      38.023 -13.267  -1.458  1.00  0.00     0.025 A 
HETATM   17  C   UNL     1      38.934 -13.706  -0.490  1.00  0.00     0.018 A 
ENDBRANCH   8  11
ENDBRANCH   4   7
BRANCH   1  18
HETATM   18  N   UNL     1      44.140 -19.326   3.840  1.00  0.00    -0.326 N 
HETATM   19  C   UNL     1      44.499 -20.650   3.669  1.00  0.00     0.218 C 
HETATM   20  C   UNL     1      45.357 -21.157   4.800  1.00  0.00     0.117 C 
HETATM   21  O   UNL     1      44.195 -21.371   2.726  1.00  0.00    -0.274 OA
HETATM   22  H   UNL     1      44.469 -18.866   4.679  1.00  0.00     0.169 HD
ENDBRANCH   1  18
TORSDOF 3
ENDMDL
MODEL 10
REMARK VINA RESULT:      -6.4      6.217      8.759
REMARK  3 active torsions:
REMARK  status: ('A' for Active; 'I' for Inactive)
REMARK       I    between atoms: C_2  and  N_3 
REMARK    1  A    between atoms: N_3  and  C_4 
REMARK    2  A    between atoms: C_7  and  N_8 
REMARK       I    between atoms: N_8  and  C_9 
REMARK    3  A    between atoms: C_9  and  C_10 
ROOT
HETATM    1  C   UNL     1      42.803 -17.919   3.964  1.00  0.00     0.052 A 
HETATM    2  C   UNL     1      42.766 -16.531   3.936  1.00  0.00     0.148 A 
HETATM    3  N   UNL     1      42.677 -15.792   2.798  1.00  0.00    -0.241 NA
HETATM    4  C   UNL     1      42.625 -16.452   1.624  1.00  0.00     0.130 A 
HETATM    5  C   UNL     1      42.669 -17.836   1.550  1.00  0.00     0.053 A 
HETATM    6  C   UNL     1      42.756 -18.573   2.734  1.00  0.00     0.035 A 
ENDROOT
BRANCH   4   7
HETATM    7  N   UNL     1      42.518 -15.604   0.521  1.00  0.00    -0.307 N 
HETATM    8  C   UNL     1      41.395 -14.981   0.035  1.00  0.00     0.257 C 
HETATM    9  O   UNL     1      40.265 -15.058   0.505  1.00  0.00    -0.267 OA
HETATM   10  H   UNL     1      43.425 -15.418   0.119  1.00  0.00     0.170 HD
BRANCH   8  11
HETATM   11  C   UNL     1      41.607 -14.109  -1.160  1.00  0.00     0.032 A 
HETATM   12  C   UNL     1      42.244 -12.872  -0.971  1.00  0.00     0.018 A 
HETATM   13  C   UNL     1      42.474 -12.021  -2.054  1.00  0.00     0.025 A 
HETATM   14  C   UNL     1      42.060 -12.399  -3.330  1.00  0.00     0.034 A 
HETATM   15 CL   UNL     1      42.344 -11.353  -4.666  1.00  0.00    -0.084 Cl
HETATM   16  C   UNL     1      41.411 -13.616  -3.529  1.00  0.00     0.025 A 
HETATM   17  C   UNL     1      41.178 -14.471  -2.445  1.00  0.00     0.018 A 
ENDBRANCH   8  11
ENDBRANCH   4   7
BRANCH   1  18
HETATM   18  N   UNL     1      42.876 -18.712   5.127  1.00  0.00    -0.326 N 
HETATM   19  C   UNL     1      44.026 -19.188   5.729  1.00  0.00     0.218 C 
HETATM   20  C   UNL     1      43.729 -19.974   6.980  1.00  0.00     0.117 C 
HETATM   21  O   UNL     1      45.176 -19.015   5.342  1.00  0.00    -0.274 OA
HETATM   22  H   UNL     1      41.996 -18.945   5.570  1.00  0.00     0.169 HD
ENDBRANCH   1  18
TORSDOF 3
ENDMDL
