MODEL 1
REMARK VINA RESULT:      -7.6      0.000      0.000
REMARK  3 active torsions:
REMARK  status: ('A' for Active; 'I' for Inactive)
REMARK       I    between atoms: C_2  and  N_3 
REMARK    1  A    between atoms: N_3  and  C_4 
REMARK    2  A    between atoms: C_7  and  N_8 
REMARK       I    between atoms: N_8  and  C_9 
REMARK    3  A    between atoms: C_9  and  C_10 
ROOT
HETATM    1  C   UNL     1      43.835 -18.006   4.791  1.00  0.00     0.034 A 
HETATM    2  C   UNL     1      44.649 -18.027   5.927  1.00  0.00     0.032 A 
HETATM    3  C   UNL     1      44.710 -16.925   6.791  1.00  0.00     0.032 A 
HETATM    4  C   UNL     1      43.961 -15.779   6.529  1.00  0.00     0.035 A 
HETATM    5  C   UNL     1      43.161 -15.752   5.381  1.00  0.00     0.032 A 
HETATM    6  C   UNL     1      43.098 -16.854   4.520  1.00  0.00     0.032 A 
ENDROOT
BRANCH   4   7
HETATM    7  N   UNL     1      43.928 -14.645   7.366  1.00  0.00    -0.323 N 
HETATM    8  C   UNL     1      44.891 -13.657   7.474  1.00  0.00     0.257 C 
HETATM    9  O   UNL     1      45.884 -13.519   6.770  1.00  0.00    -0.267 OA
HETATM   10  H   UNL     1      43.086 -14.540   7.916  1.00  0.00     0.169 HD
BRANCH   8  11
HETATM   11  C   UNL     1      44.659 -12.659   8.548  1.00  0.00     0.050 A 
HETATM   12  C   UNL     1      43.602 -11.763   8.414  1.00  0.00     0.135 A 
HETATM   13  N   UNL     1      43.304 -10.803   9.324  1.00  0.00    -0.248 NA
HETATM   14  C   UNL     1      44.112 -10.723  10.399  1.00  0.00     0.125 A 
HETATM   15 CL   UNL     1      43.708  -9.488  11.516  1.00  0.00    -0.063 Cl
HETATM   16  C   UNL     1      45.202 -11.551  10.618  1.00  0.00     0.045 A 
HETATM   17  C   UNL     1      45.483 -12.536   9.671  1.00  0.00     0.022 A 
ENDBRANCH   8  11
ENDBRANCH   4   7
BRANCH   1  18
HETATM   18  N   UNL     1      43.808 -19.168   3.994  1.00  0.00    -0.328 N 
HETATM   19  C   UNL     1      44.029 -19.259   2.630  1.00  0.00     0.218 C 
HETATM   20  C   UNL     1      43.873 -20.674   2.130  1.00  0.00     0.117 C 
HETATM   21  O   UNL     1      44.318 -18.348   1.864  1.00  0.00    -0.274 OA
HETATM   22  H   UNL     1      43.582 -20.029   4.474  1.00  0.00     0.169 HD
ENDBRANCH   1  18
TORSDOF 3
ENDMDL
MODEL 2
REMARK VINA RESULT:      -7.1      6.431      8.801
REMARK  3 active torsions:
REMARK  status: ('A' for Active; 'I' for Inactive)
REMARK       I    between atoms: C_2  and  N_3 
REMARK    1  A    between atoms: N_3  and  C_4 
REMARK    2  A    between atoms: C_7  and  N_8 
REMARK       I    between atoms: N_8  and  C_9 
REMARK    3  A    between atoms: C_9  and  C_10 
ROOT
HETATM    1  C   UNL     1      39.899 -14.438   0.105  1.00  0.00     0.034 A 
HETATM    2  C   UNL     1      39.441 -14.810   1.372  1.00  0.00     0.032 A 
HETATM    3  C   UNL     1      40.051 -15.854   2.081  1.00  0.00     0.032 A 
HETATM    4  C   UNL     1      41.128 -16.547   1.530  1.00  0.00     0.035 A 
HETATM    5  C   UNL     1      41.574 -16.186   0.254  1.00  0.00     0.032 A 
HETATM    6  C   UNL     1      40.965 -15.141  -0.452  1.00  0.00     0.032 A 
ENDROOT
BRANCH   4   7
HETATM    7  N   UNL     1      41.828 -17.579   2.191  1.00  0.00    -0.323 N 
HETATM    8  C   UNL     1      42.996 -17.461   2.923  1.00  0.00     0.257 C 
HETATM    9  O   UNL     1      43.563 -16.422   3.238  1.00  0.00    -0.267 OA
HETATM   10  H   UNL     1      41.396 -18.491   2.142  1.00  0.00     0.169 HD
BRANCH   8  11
HETATM   11  C   UNL     1      43.589 -18.741   3.382  1.00  0.00     0.050 A 
HETATM   12  C   UNL     1      43.874 -18.902   4.734  1.00  0.00     0.135 A 
HETATM   13  N   UNL     1      44.428 -20.021   5.264  1.00  0.00    -0.248 NA
HETATM   14  C   UNL     1      44.728 -21.010   4.398  1.00  0.00     0.125 A 
HETATM   15 CL   UNL     1      45.437 -22.399   5.106  1.00  0.00    -0.063 Cl
HETATM   16  C   UNL     1      44.504 -20.944   3.032  1.00  0.00     0.045 A 
HETATM   17  C   UNL     1      43.927 -19.785   2.514  1.00  0.00     0.022 A 
ENDBRANCH   8  11
ENDBRANCH   4   7
BRANCH   1  18
HETATM   18  N   UNL     1      39.249 -13.356  -0.525  1.00  0.00    -0.328 N 
HETATM   19  C   UNL     1      38.375 -13.408  -1.596  1.00  0.00     0.218 C 
HETATM   20  C   UNL     1      37.917 -12.033  -2.013  1.00  0.00     0.117 C 
HETATM   21  O   UNL     1      37.979 -14.409  -2.181  1.00  0.00    -0.274 OA
HETATM   22  H   UNL     1      39.465 -12.437  -0.160  1.00  0.00     0.169 HD
ENDBRANCH   1  18
TORSDOF 3
ENDMDL
MODEL 3
REMARK VINA RESULT:      -7.0      6.765      9.633
REMARK  3 active torsions:
REMARK  status: ('A' for Active; 'I' for Inactive)
REMARK       I    between atoms: C_2  and  N_3 
REMARK    1  A    between atoms: N_3  and  C_4 
REMARK    2  A    between atoms: C_7  and  N_8 
REMARK       I    between atoms: N_8  and  C_9 
REMARK    3  A    between atoms: C_9  and  C_10 
ROOT
HETATM    1  C   UNL     1      43.319 -17.805   3.336  1.00  0.00     0.034 A 
HETATM    2  C   UNL     1      43.990 -17.658   2.118  1.00  0.00     0.032 A 
HETATM    3  C   UNL     1      43.305 -17.268   0.960  1.00  0.00     0.032 A 
HETATM    4  C   UNL     1      41.933 -17.024   0.999  1.00  0.00     0.035 A 
HETATM    5  C   UNL     1      41.259 -17.189   2.214  1.00  0.00     0.032 A 
HETATM    6  C   UNL     1      41.945 -17.576   3.371  1.00  0.00     0.032 A 
ENDROOT
BRANCH   4   7
HETATM    7  N   UNL     1      41.174 -16.585  -0.106  1.00  0.00    -0.323 N 
HETATM    8  C   UNL     1      41.154 -15.316  -0.656  1.00  0.00     0.257 C 
HETATM    9  O   UNL     1      41.885 -14.377  -0.364  1.00  0.00    -0.267 OA
HETATM   10  H   UNL     1      40.616 -17.299  -0.555  1.00  0.00     0.169 HD
BRANCH   8  11
HETATM   11  C   UNL     1      40.146 -15.103  -1.724  1.00  0.00     0.050 A 
HETATM   12  C   UNL     1      39.045 -14.295  -1.457  1.00  0.00     0.135 A 
HETATM   13  N   UNL     1      38.057 -14.042  -2.351  1.00  0.00    -0.248 NA
HETATM   14  C   UNL     1      38.167 -14.640  -3.554  1.00  0.00     0.125 A 
HETATM   15 CL   UNL     1      36.892 -14.303  -4.648  1.00  0.00    -0.063 Cl
HETATM   16  C   UNL     1      39.211 -15.478  -3.914  1.00  0.00     0.045 A 
HETATM   17  C   UNL     1      40.218 -15.717  -2.979  1.00  0.00     0.022 A 
ENDBRANCH   8  11
ENDBRANCH   4   7
BRANCH   1  18
HETATM   18  N   UNL     1      44.090 -18.169   4.459  1.00  0.00    -0.328 N 
HETATM   19  C   UNL     1      44.260 -17.453   5.631  1.00  0.00     0.218 C 
HETATM   20  C   UNL     1      45.194 -18.154   6.586  1.00  0.00     0.117 C 
HETATM   21  O   UNL     1      43.746 -16.380   5.924  1.00  0.00    -0.274 OA
HETATM   22  H   UNL     1      44.591 -19.046   4.387  1.00  0.00     0.169 HD
ENDBRANCH   1  18
TORSDOF 3
ENDMDL
MODEL 4
REMARK VINA RESULT:      -6.9      5.164      8.813
REMARK  3 active torsions:
REMARK  status: ('A' for Active; 'I' for Inactive)
REMARK       I    between atoms: C_2  and  N_3 
REMARK    1  A    between atoms: N_3  and  C_4 
REMARK    2  A    between atoms: C_7  and  N_8 
REMARK       I    between atoms: N_8  and  C_9 
REMARK    3  A    between atoms: C_9  and  C_10 
ROOT
HETATM    1  C   UNL     1      40.899 -12.658   5.489  1.00  0.00     0.034 A 
HETATM    2  C   UNL     1      41.997 -12.720   4.625  1.00  0.00     0.032 A 
HETATM    3  C   UNL     1      42.475 -13.950   4.153  1.00  0.00     0.032 A 
HETATM    4  C   UNL     1      41.866 -15.141   4.543  1.00  0.00     0.035 A 
HETATM    5  C   UNL     1      40.778 -15.080   5.421  1.00  0.00     0.032 A 
HETATM    6  C   UNL     1      40.299 -13.851   5.890  1.00  0.00     0.032 A 
ENDROOT
BRANCH   4   7
HETATM    7  N   UNL     1      42.252 -16.417   4.082  1.00  0.00    -0.323 N 
HETATM    8  C   UNL     1      43.240 -17.232   4.607  1.00  0.00     0.257 C 
HETATM    9  O   UNL     1      43.867 -17.050   5.643  1.00  0.00    -0.267 OA
HETATM   10  H   UNL     1      41.716 -16.774   3.303  1.00  0.00     0.169 HD
BRANCH   8  11
HETATM   11  C   UNL     1      43.532 -18.460   3.825  1.00  0.00     0.050 A 
HETATM   12  C   UNL     1      44.397 -19.408   4.363  1.00  0.00     0.135 A 
HETATM   13  N   UNL     1      44.745 -20.557   3.735  1.00  0.00    -0.248 NA
HETATM   14  C   UNL     1      44.222 -20.753   2.508  1.00  0.00     0.125 A 
HETATM   15 CL   UNL     1      44.698 -22.212   1.745  1.00  0.00    -0.063 Cl
HETATM   16  C   UNL     1      43.368 -19.865   1.874  1.00  0.00     0.045 A 
HETATM   17  C   UNL     1      43.019 -18.693   2.545  1.00  0.00     0.022 A 
ENDBRANCH   8  11
ENDBRANCH   4   7
BRANCH   1  18
HETATM   18  N   UNL     1      40.463 -11.379   5.889  1.00  0.00    -0.328 N 
HETATM   19  C   UNL     1      39.291 -10.738   5.529  1.00  0.00     0.218 C 
HETATM   20  C   UNL     1      39.198  -9.358   6.131  1.00  0.00     0.117 C 
HETATM   21  O   UNL     1      38.397 -11.176   4.815  1.00  0.00    -0.274 OA
HETATM   22  H   UNL     1      41.092 -10.867   6.495  1.00  0.00     0.169 HD
ENDBRANCH   1  18
TORSDOF 3
ENDMDL
MODEL 5
REMARK VINA RESULT:      -6.9      5.453      8.592
REMARK  3 active torsions:
REMARK  status: ('A' for Active; 'I' for Inactive)
REMARK       I    between atoms: C_2  and  N_3 
REMARK    1  A    between atoms: N_3  and  C_4 
REMARK    2  A    between atoms: C_7  and  N_8 
REMARK       I    between atoms: N_8  and  C_9 
REMARK    3  A    between atoms: C_9  and  C_10 
ROOT
HETATM    1  C   UNL     1      40.228 -13.227   3.260  1.00  0.00     0.034 A 
HETATM    2  C   UNL     1      39.768 -14.402   2.658  1.00  0.00     0.032 A 
HETATM    3  C   UNL     1      40.452 -15.614   2.826  1.00  0.00     0.032 A 
HETATM    4  C   UNL     1      41.612 -15.669   3.597  1.00  0.00     0.035 A 
HETATM    5  C   UNL     1      42.081 -14.490   4.184  1.00  0.00     0.032 A 
HETATM    6  C   UNL     1      41.396 -13.280   4.018  1.00  0.00     0.032 A 
ENDROOT
BRANCH   4   7
HETATM    7  N   UNL     1      42.336 -16.852   3.855  1.00  0.00    -0.323 N 
HETATM    8  C   UNL     1      43.421 -17.340   3.148  1.00  0.00     0.257 C 
HETATM    9  O   UNL     1      44.029 -16.769   2.250  1.00  0.00    -0.267 OA
HETATM   10  H   UNL     1      42.038 -17.370   4.670  1.00  0.00     0.169 HD
BRANCH   8  11
HETATM   11  C   UNL     1      43.891 -18.687   3.556  1.00  0.00     0.050 A 
HETATM   12  C   UNL     1      44.186 -18.917   4.896  1.00  0.00     0.135 A 
HETATM   13  N   UNL     1      44.634 -20.102   5.380  1.00  0.00    -0.248 NA
HETATM   14  C   UNL     1      44.815 -21.088   4.480  1.00  0.00     0.125 A 
HETATM   15 CL   UNL     1      45.395 -22.563   5.131  1.00  0.00    -0.063 Cl
HETATM   16  C   UNL     1      44.572 -20.958   3.121  1.00  0.00     0.045 A 
HETATM   17  C   UNL     1      44.104 -19.732   2.650  1.00  0.00     0.022 A 
ENDBRANCH   8  11
ENDBRANCH   4   7
BRANCH   1  18
HETATM   18  N   UNL     1      39.463 -12.060   3.066  1.00  0.00    -0.328 N 
HETATM   19  C   UNL     1      38.641 -11.429   3.985  1.00  0.00     0.218 C 
HETATM   20  C   UNL     1      37.956 -10.225   3.390  1.00  0.00     0.117 C 
HETATM   21  O   UNL     1      38.448 -11.754   5.150  1.00  0.00    -0.274 OA
HETATM   22  H   UNL     1      39.507 -11.649   2.142  1.00  0.00     0.169 HD
ENDBRANCH   1  18
TORSDOF 3
ENDMDL
MODEL 6
REMARK VINA RESULT:      -6.7      7.275      9.105
REMARK  3 active torsions:
REMARK  status: ('A' for Active; 'I' for Inactive)
REMARK       I    between atoms: C_2  and  N_3 
REMARK    1  A    between atoms: N_3  and  C_4 
REMARK    2  A    between atoms: C_7  and  N_8 
REMARK       I    between atoms: N_8  and  C_9 
REMARK    3  A    between atoms: C_9  and  C_10 
ROOT
HETATM    1  C   UNL     1      43.455 -18.479   2.839  1.00  0.00     0.034 A 
HETATM    2  C   UNL     1      42.146 -18.098   3.152  1.00  0.00     0.032 A 
HETATM    3  C   UNL     1      41.373 -17.360   2.245  1.00  0.00     0.032 A 
HETATM    4  C   UNL     1      41.899 -16.985   1.010  1.00  0.00     0.035 A 
HETATM    5  C   UNL     1      43.214 -17.351   0.705  1.00  0.00     0.032 A 
HETATM    6  C   UNL     1      43.985 -18.090   1.610  1.00  0.00     0.032 A 
ENDROOT
BRANCH   4   7
HETATM    7  N   UNL     1      41.178 -16.283   0.022  1.00  0.00    -0.323 N 
HETATM    8  C   UNL     1      41.123 -14.912  -0.157  1.00  0.00     0.257 C 
HETATM    9  O   UNL     1      41.791 -14.068   0.428  1.00  0.00    -0.267 OA
HETATM   10  H   UNL     1      40.680 -16.861  -0.641  1.00  0.00     0.169 HD
BRANCH   8  11
HETATM   11  C   UNL     1      40.163 -14.444  -1.188  1.00  0.00     0.050 A 
HETATM   12  C   UNL     1      39.032 -13.742  -0.782  1.00  0.00     0.135 A 
HETATM   13  N   UNL     1      38.083 -13.279  -1.633  1.00  0.00    -0.248 NA
HETATM   14  C   UNL     1      38.265 -13.551  -2.940  1.00  0.00     0.125 A 
HETATM   15 CL   UNL     1      37.036 -12.959  -3.978  1.00  0.00    -0.063 Cl
HETATM   16  C   UNL     1      39.343 -14.259  -3.447  1.00  0.00     0.045 A 
HETATM   17  C   UNL     1      40.310 -14.717  -2.552  1.00  0.00     0.022 A 
ENDBRANCH   8  11
ENDBRANCH   4   7
BRANCH   1  18
HETATM   18  N   UNL     1      44.150 -19.247   3.794  1.00  0.00    -0.328 N 
HETATM   19  C   UNL     1      44.535 -20.572   3.690  1.00  0.00     0.218 C 
HETATM   20  C   UNL     1      45.228 -21.055   4.940  1.00  0.00     0.117 C 
HETATM   21  O   UNL     1      44.368 -21.319   2.732  1.00  0.00    -0.274 OA
HETATM   22  H   UNL     1      44.375 -18.777   4.662  1.00  0.00     0.169 HD
ENDBRANCH   1  18
TORSDOF 3
ENDMDL
MODEL 7
REMARK VINA RESULT:      -6.6      7.362      9.874
REMARK  3 active torsions:
REMARK  status: ('A' for Active; 'I' for Inactive)
REMARK       I    between atoms: C_2  and  N_3 
REMARK    1  A    between atoms: N_3  and  C_4 
REMARK    2  A    between atoms: C_7  and  N_8 
REMARK       I    between atoms: N_8  and  C_9 
REMARK    3  A    between atoms: C_9  and  C_10 
ROOT
HETATM    1  C   UNL     1      40.238 -13.291  -3.028  1.00  0.00     0.034 A 
HETATM    2  C   UNL     1      40.566 -12.858  -1.740  1.00  0.00     0.032 A 
HETATM    3  C   UNL     1      41.084 -13.748  -0.790  1.00  0.00     0.032 A 
HETATM    4  C   UNL     1      41.278 -15.090  -1.111  1.00  0.00     0.035 A 
HETATM    5  C   UNL     1      40.933 -15.526  -2.395  1.00  0.00     0.032 A 
HETATM    6  C   UNL     1      40.418 -14.636  -3.344  1.00  0.00     0.032 A 
ENDROOT
BRANCH   4   7
HETATM    7  N   UNL     1      41.835 -16.043  -0.233  1.00  0.00    -0.323 N 
HETATM    8  C   UNL     1      41.310 -16.478   0.971  1.00  0.00     0.257 C 
HETATM    9  O   UNL     1      40.206 -16.212   1.429  1.00  0.00    -0.267 OA
HETATM   10  H   UNL     1      42.695 -16.469  -0.550  1.00  0.00     0.169 HD
BRANCH   8  11
HETATM   11  C   UNL     1      42.188 -17.380   1.757  1.00  0.00     0.050 A 
HETATM   12  C   UNL     1      41.927 -17.557   3.113  1.00  0.00     0.135 A 
HETATM   13  N   UNL     1      42.669 -18.345   3.930  1.00  0.00    -0.248 NA
HETATM   14  C   UNL     1      43.728 -18.961   3.370  1.00  0.00     0.125 A 
HETATM   15 CL   UNL     1      44.645 -19.936   4.441  1.00  0.00    -0.063 Cl
HETATM   16  C   UNL     1      44.088 -18.837   2.038  1.00  0.00     0.045 A 
HETATM   17  C   UNL     1      43.304 -18.027   1.216  1.00  0.00     0.022 A 
ENDBRANCH   8  11
ENDBRANCH   4   7
BRANCH   1  18
HETATM   18  N   UNL     1      39.753 -12.323  -3.931  1.00  0.00    -0.328 N 
HETATM   19  C   UNL     1      40.472 -11.319  -4.556  1.00  0.00     0.218 C 
HETATM   20  C   UNL     1      39.592 -10.455  -5.423  1.00  0.00     0.117 C 
HETATM   21  O   UNL     1      41.674 -11.102  -4.463  1.00  0.00    -0.274 OA
HETATM   22  H   UNL     1      38.761 -12.359  -4.128  1.00  0.00     0.169 HD
ENDBRANCH   1  18
TORSDOF 3
ENDMDL
MODEL 8
REMARK VINA RESULT:      -6.4      6.697      7.729
REMARK  3 active torsions:
REMARK  status: ('A' for Active; 'I' for Inactive)
REMARK       I    between atoms: C_2  and  N_3 
REMARK    1  A    between atoms: N_3  and  C_4 
REMARK    2  A    between atoms: C_7  and  N_8 
REMARK       I    between atoms: N_8  and  C_9 
REMARK    3  A    between atoms: C_9  and  C_10 
ROOT
HETATM    1  C   UNL     1      43.788 -19.164   2.994  1.00  0.00     0.034 A 
HETATM    2  C   UNL     1      42.730 -18.510   3.633  1.00  0.00     0.032 A 
HETATM    3  C   UNL     1      42.231 -17.296   3.142  1.00  0.00     0.032 A 
HETATM    4  C   UNL     1      42.787 -16.712   2.005  1.00  0.00     0.035 A 
HETATM    5  C   UNL     1      43.857 -17.358   1.377  1.00  0.00     0.032 A 
HETATM    6  C   UNL     1      44.353 -18.572   1.866  1.00  0.00     0.032 A 
ENDROOT
BRANCH   4   7
HETATM    7  N   UNL     1      42.319 -15.518   1.418  1.00  0.00    -0.323 N 
HETATM    8  C   UNL     1      41.706 -15.376   0.185  1.00  0.00     0.257 C 
HETATM    9  O   UNL     1      41.343 -16.276  -0.562  1.00  0.00    -0.267 OA
HETATM   10  H   UNL     1      42.419 -14.690   1.989  1.00  0.00     0.169 HD
BRANCH   8  11
HETATM   11  C   UNL     1      41.453 -13.977  -0.241  1.00  0.00     0.050 A 
HETATM   12  C   UNL     1      40.753 -13.751  -1.422  1.00  0.00     0.135 A 
HETATM   13  N   UNL     1      40.476 -12.518  -1.914  1.00  0.00    -0.248 NA
HETATM   14  C   UNL     1      40.938 -11.470  -1.204  1.00  0.00     0.125 A 
HETATM   15 CL   UNL     1      40.577  -9.932  -1.867  1.00  0.00    -0.063 Cl
HETATM   16  C   UNL     1      41.662 -11.585  -0.027  1.00  0.00     0.045 A 
HETATM   17  C   UNL     1      41.927 -12.864   0.462  1.00  0.00     0.022 A 
ENDBRANCH   8  11
ENDBRANCH   4   7
BRANCH   1  18
HETATM   18  N   UNL     1      44.206 -20.396   3.535  1.00  0.00    -0.328 N 
HETATM   19  C   UNL     1      44.253 -21.624   2.897  1.00  0.00     0.218 C 
HETATM   20  C   UNL     1      44.721 -22.719   3.821  1.00  0.00     0.117 C 
HETATM   21  O   UNL     1      43.965 -21.863   1.730  1.00  0.00    -0.274 OA
HETATM   22  H   UNL     1      44.486 -20.381   4.507  1.00  0.00     0.169 HD
ENDBRANCH   1  18
TORSDOF 3
ENDMDL
MODEL 9
REMARK VINA RESULT:      -6.3      6.883      8.672
REMARK  3 active torsions:
REMARK  status: ('A' for Active; 'I' for Inactive)
REMARK       I    between atoms: C_2  and  N_3 
REMARK    1  A    between atoms: N_3  and  C_4 
REMARK    2  A    between atoms: C_7  and  N_8 
REMARK       I    between atoms: N_8  and  C_9 
REMARK    3  A    between atoms: C_9  and  C_10 
ROOT
HETATM    1  C   UNL     1      43.247 -18.641   2.953  1.00  0.00     0.034 A 
HETATM    2  C   UNL     1      42.083 -17.885   3.129  1.00  0.00     0.032 A 
HETATM    3  C   UNL     1      41.704 -16.917   2.190  1.00  0.00     0.032 A 
HETATM    4  C   UNL     1      42.487 -16.682   1.061  1.00  0.00     0.035 A 
HETATM    5  C   UNL     1      43.661 -17.425   0.896  1.00  0.00     0.032 A 
HETATM    6  C   UNL     1      44.037 -18.395   1.833  1.00  0.00     0.032 A 
ENDROOT
BRANCH   4   7
HETATM    7  N   UNL     1      42.158 -15.760   0.046  1.00  0.00    -0.323 N 
HETATM    8  C   UNL     1      41.888 -14.411   0.196  1.00  0.00     0.257 C 
HETATM    9  O   UNL     1      42.012 -13.747   1.218  1.00  0.00    -0.267 OA
HETATM   10  H   UNL     1      42.157 -16.135  -0.893  1.00  0.00     0.169 HD
BRANCH   8  11
HETATM   11  C   UNL     1      41.424 -13.716  -1.030  1.00  0.00     0.050 A 
HETATM   12  C   UNL     1      41.096 -12.366  -0.953  1.00  0.00     0.135 A 
HETATM   13  N   UNL     1      40.650 -11.634  -2.003  1.00  0.00    -0.248 NA
HETATM   14  C   UNL     1      40.507 -12.288  -3.173  1.00  0.00     0.125 A 
HETATM   15 CL   UNL     1      39.929 -11.329  -4.470  1.00  0.00    -0.063 Cl
HETATM   16  C   UNL     1      40.785 -13.633  -3.353  1.00  0.00     0.045 A 
HETATM   17  C   UNL     1      41.250 -14.362  -2.258  1.00  0.00     0.022 A 
ENDBRANCH   8  11
ENDBRANCH   4   7
BRANCH   1  18
HETATM   18  N   UNL     1      43.537 -19.616   3.929  1.00  0.00    -0.328 N 
HETATM   19  C   UNL     1      44.351 -19.480   5.040  1.00  0.00     0.218 C 
HETATM   20  C   UNL     1      44.445 -20.763   5.826  1.00  0.00     0.117 C 
HETATM   21  O   UNL     1      44.950 -18.474   5.400  1.00  0.00    -0.274 OA
HETATM   22  H   UNL     1      43.114 -20.525   3.785  1.00  0.00     0.169 HD
ENDBRANCH   1  18
TORSDOF 3
ENDMDL
MODEL 10
REMARK VINA RESULT:      -6.3      2.339      2.766
REMARK  3 active torsions:
REMARK  status: ('A' for Active; 'I' for Inactive)
REMARK       I    between atoms: C_2  and  N_3 
REMARK    1  A    between atoms: N_3  and  C_4 
REMARK    2  A    between atoms: C_7  and  N_8 
REMARK       I    between atoms: N_8  and  C_9 
REMARK    3  A    between atoms: C_9  and  C_10 
ROOT
HETATM    1  C   UNL     1      42.637 -15.369   3.685  1.00  0.00     0.034 A 
HETATM    2  C   UNL     1      42.771 -15.975   4.938  1.00  0.00     0.032 A 
HETATM    3  C   UNL     1      42.960 -15.207   6.094  1.00  0.00     0.032 A 
HETATM    4  C   UNL     1      43.024 -13.816   6.016  1.00  0.00     0.035 A 
HETATM    5  C   UNL     1      42.909 -13.211   4.760  1.00  0.00     0.032 A 
HETATM    6  C   UNL     1      42.717 -13.980   3.605  1.00  0.00     0.032 A 
ENDROOT
BRANCH   4   7
HETATM    7  N   UNL     1      43.167 -12.966   7.132  1.00  0.00    -0.323 N 
HETATM    8  C   UNL     1      44.296 -12.795   7.915  1.00  0.00     0.257 C 
HETATM    9  O   UNL     1      45.412 -13.253   7.703  1.00  0.00    -0.267 OA
HETATM   10  H   UNL     1      42.358 -12.401   7.349  1.00  0.00     0.169 HD
BRANCH   8  11
HETATM   11  C   UNL     1      44.112 -11.944   9.117  1.00  0.00     0.050 A 
HETATM   12  C   UNL     1      44.932 -12.156  10.221  1.00  0.00     0.135 A 
HETATM   13  N   UNL     1      44.845 -11.449  11.375  1.00  0.00    -0.248 NA
HETATM   14  C   UNL     1      43.883 -10.507  11.431  1.00  0.00     0.125 A 
HETATM   15 CL   UNL     1      43.800  -9.647  12.911  1.00  0.00    -0.063 Cl
HETATM   16  C   UNL     1      43.002 -10.230  10.398  1.00  0.00     0.045 A 
HETATM   17  C   UNL     1      43.117 -10.966   9.218  1.00  0.00     0.022 A 
ENDBRANCH   8  11
ENDBRANCH   4   7
BRANCH   1  18
HETATM   18  N   UNL     1      42.417 -16.214   2.579  1.00  0.00    -0.328 N 
HETATM   19  C   UNL     1      41.208 -16.512   1.974  1.00  0.00     0.218 C 
HETATM   20  C   UNL     1      41.376 -17.491   0.839  1.00  0.00     0.117 C 
HETATM   21  O   UNL     1      40.104 -16.073   2.272  1.00  0.00    -0.274 OA
HETATM   22  H   UNL     1      43.238 -16.667   2.197  1.00  0.00     0.169 HD
ENDBRANCH   1  18
TORSDOF 3
ENDMDL
