MODEL 1
REMARK VINA RESULT:      -9.4      0.000      0.000
REMARK  9 active torsions:
REMARK  status: ('A' for Active; 'I' for Inactive)
REMARK    1  A    between atoms: O_2  and  C_3 
REMARK    2  A    between atoms: C_4  and  O_5 
REMARK    3  A    between atoms: C_8  and  C_9 
REMARK    4  A    between atoms: C_9  and  N_10 
REMARK    5  A    between atoms: C_14  and  O_15 
REMARK    6  A    between atoms: C_14  and  C_16 
REMARK    7  A    between atoms: C_21  and  C_22 
REMARK       I    between atoms: C_22  and  N_23 
REMARK    8  A    between atoms: N_23  and  C_24 
REMARK    9  A    between atoms: C_24  and  C_25 
ROOT
HETATM    1  N   UNL     1      42.049 -17.038   0.897  1.00  0.00    -0.067 N 
HETATM    2  H   UNL     1      41.640 -17.549   0.103  1.00  0.00     0.280 HD
HETATM    3  C   UNL     1      41.246 -17.419   2.121  1.00  0.00     0.238 C 
HETATM    4  C   UNL     1      39.846 -16.834   2.055  1.00  0.00     0.071 C 
HETATM    5  C   UNL     1      39.878 -15.299   1.933  1.00  0.00     0.088 C 
HETATM    6  C   UNL     1      40.588 -15.021   0.594  1.00  0.00     0.071 C 
HETATM    7  C   UNL     1      42.008 -15.562   0.573  1.00  0.00     0.238 C 
ENDROOT
BRANCH   5   8
HETATM    8  O   UNL     1      38.528 -14.864   1.781  1.00  0.00    -0.385 OA
HETATM    9  H   UNL     1      38.500 -13.892   1.712  1.00  0.00     0.211 HD
ENDBRANCH   5   8
BRANCH   5  10
HETATM   10  C   UNL     1      40.482 -14.594   3.157  1.00  0.00    -0.023 A 
HETATM   11  C   UNL     1      41.540 -15.195   3.881  1.00  0.00     0.024 A 
HETATM   12  C   UNL     1      42.186 -14.488   4.913  1.00  0.00     0.001 A 
HETATM   13  C   UNL     1      41.725 -13.222   5.235  1.00  0.00     0.086 A 
HETATM   14  C   UNL     1      43.277 -14.732   5.785  1.00  0.00     0.057 A 
HETATM   15  O   UNL     1      42.495 -12.665   6.207  1.00  0.00    -0.304 OA
HETATM   16  C   UNL     1      40.624 -12.626   4.635  1.00  0.00     0.039 A 
HETATM   17  C   UNL     1      43.453 -13.588   6.541  1.00  0.00     0.144 A 
HETATM   18  C   UNL     1      40.005 -13.344   3.602  1.00  0.00     0.013 A 
BRANCH  17  19
HETATM   19  C   UNL     1      44.442 -13.264   7.548  1.00  0.00     0.275 C 
HETATM   20  N   UNL     1      43.959 -12.502   8.588  1.00  0.00    -0.353 N 
HETATM   21  H   UNL     1      43.024 -12.123   8.492  1.00  0.00     0.162 HD
HETATM   22  O   UNL     1      45.619 -13.603   7.467  1.00  0.00    -0.265 OA
BRANCH  20  23
HETATM   23  C   UNL     1      44.827 -11.940   9.606  1.00  0.00     0.155 C 
BRANCH  23  24
HETATM   24  C   UNL     1      44.326 -10.593  10.136  1.00  0.00     0.139 C 
HETATM   25  O   UNL     1      43.077 -10.228   9.511  1.00  0.00    -0.384 OA
HETATM   26  C   UNL     1      42.271  -9.549  10.489  1.00  0.00     0.168 C 
HETATM   27  C   UNL     1      43.087  -9.452  11.763  1.00  0.00     0.029 C 
HETATM   28  C   UNL     1      44.035 -10.618  11.627  1.00  0.00     0.035 C 
ENDBRANCH  23  24
ENDBRANCH  20  23
ENDBRANCH  17  19
ENDBRANCH   5  10
BRANCH   1  29
HETATM   29  C   UNL     1      43.501 -17.491   0.992  1.00  0.00     0.273 C 
BRANCH  29  30
HETATM   30  C   UNL     1      43.823 -18.316   2.204  1.00  0.00    -0.030 A 
HETATM   31  C   UNL     1      43.966 -19.707   2.089  1.00  0.00     0.048 A 
HETATM   32  C   UNL     1      44.293 -20.479   3.206  1.00  0.00     0.102 A 
HETATM   33  C   UNL     1      44.418 -19.890   4.469  1.00  0.00     0.101 A 
HETATM   34  C   UNL     1      44.284 -18.504   4.586  1.00  0.00     0.040 A 
HETATM   35  C   UNL     1      43.995 -17.721   3.461  1.00  0.00     0.012 A 
BRANCH  32  36
HETATM   36  O   UNL     1      44.393 -21.841   3.085  1.00  0.00    -0.353 OA
HETATM   37  C   UNL     1      44.367 -22.251   1.719  1.00  0.00     0.210 C 
ENDBRANCH  32  36
BRANCH  33  38
HETATM   38  O   UNL     1      44.726 -20.720   5.511  1.00  0.00    -0.353 OA
HETATM   39  C   UNL     1      43.862 -20.641   6.641  1.00  0.00     0.210 C 
ENDBRANCH  33  38
ENDBRANCH  29  30
ENDBRANCH   1  29
TORSDOF 9
ENDMDL
MODEL 2
REMARK VINA RESULT:      -9.2      1.705      2.782
REMARK  9 active torsions:
REMARK  status: ('A' for Active; 'I' for Inactive)
REMARK    1  A    between atoms: O_2  and  C_3 
REMARK    2  A    between atoms: C_4  and  O_5 
REMARK    3  A    between atoms: C_8  and  C_9 
REMARK    4  A    between atoms: C_9  and  N_10 
REMARK    5  A    between atoms: C_14  and  O_15 
REMARK    6  A    between atoms: C_14  and  C_16 
REMARK    7  A    between atoms: C_21  and  C_22 
REMARK       I    between atoms: C_22  and  N_23 
REMARK    8  A    between atoms: N_23  and  C_24 
REMARK    9  A    between atoms: C_24  and  C_25 
ROOT
HETATM    1  N   UNL     1      42.225 -16.568   1.496  1.00  0.00    -0.067 N 
HETATM    2  H   UNL     1      42.067 -17.349   0.846  1.00  0.00     0.280 HD
HETATM    3  C   UNL     1      41.206 -16.709   2.604  1.00  0.00     0.238 C 
HETATM    4  C   UNL     1      39.806 -16.417   2.093  1.00  0.00     0.071 C 
HETATM    5  C   UNL     1      39.705 -15.002   1.493  1.00  0.00     0.088 C 
HETATM    6  C   UNL     1      40.671 -15.006   0.294  1.00  0.00     0.071 C 
HETATM    7  C   UNL     1      42.107 -15.279   0.714  1.00  0.00     0.238 C 
ENDROOT
BRANCH   5   8
HETATM    8  O   UNL     1      38.388 -14.867   0.960  1.00  0.00    -0.385 OA
HETATM    9  H   UNL     1      37.977 -15.747   0.871  1.00  0.00     0.211 HD
ENDBRANCH   5   8
BRANCH   5  10
HETATM   10  C   UNL     1      39.932 -13.879   2.517  1.00  0.00    -0.023 A 
HETATM   11  C   UNL     1      39.490 -14.028   3.854  1.00  0.00     0.024 A 
HETATM   12  C   UNL     1      39.822 -13.062   4.824  1.00  0.00     0.001 A 
HETATM   13  C   UNL     1      40.535 -11.944   4.425  1.00  0.00     0.086 A 
HETATM   14  C   UNL     1      39.614 -12.908   6.218  1.00  0.00     0.057 A 
HETATM   15  O   UNL     1      40.817 -11.150   5.491  1.00  0.00    -0.304 OA
HETATM   16  C   UNL     1      40.901 -11.691   3.109  1.00  0.00     0.039 A 
HETATM   17  C   UNL     1      40.259 -11.743   6.595  1.00  0.00     0.144 A 
HETATM   18  C   UNL     1      40.570 -12.673   2.164  1.00  0.00     0.013 A 
BRANCH  17  19
HETATM   19  C   UNL     1      40.414 -11.128   7.896  1.00  0.00     0.275 C 
HETATM   20  N   UNL     1      41.722 -10.972   8.294  1.00  0.00    -0.353 N 
HETATM   21  H   UNL     1      42.436 -11.417   7.729  1.00  0.00     0.162 HD
HETATM   22  O   UNL     1      39.463 -10.808   8.604  1.00  0.00    -0.265 OA
BRANCH  20  23
HETATM   23  C   UNL     1      42.079 -10.528   9.629  1.00  0.00     0.155 C 
BRANCH  23  24
HETATM   24  C   UNL     1      43.299 -11.263  10.193  1.00  0.00     0.139 C 
HETATM   25  O   UNL     1      43.979 -12.000   9.153  1.00  0.00    -0.384 OA
HETATM   26  C   UNL     1      45.391 -11.949   9.423  1.00  0.00     0.168 C 
HETATM   27  C   UNL     1      45.580 -11.181  10.717  1.00  0.00     0.029 C 
HETATM   28  C   UNL     1      44.345 -10.318  10.762  1.00  0.00     0.035 C 
ENDBRANCH  23  24
ENDBRANCH  20  23
ENDBRANCH  17  19
ENDBRANCH   5  10
BRANCH   1  29
HETATM   29  C   UNL     1      43.656 -16.718   2.001  1.00  0.00     0.273 C 
BRANCH  29  30
HETATM   30  C   UNL     1      43.936 -18.009   2.714  1.00  0.00    -0.030 A 
HETATM   31  C   UNL     1      44.149 -18.014   4.101  1.00  0.00     0.048 A 
HETATM   32  C   UNL     1      44.383 -19.214   4.777  1.00  0.00     0.102 A 
HETATM   33  C   UNL     1      44.474 -20.421   4.076  1.00  0.00     0.101 A 
HETATM   34  C   UNL     1      44.254 -20.421   2.696  1.00  0.00     0.040 A 
HETATM   35  C   UNL     1      43.981 -19.225   2.020  1.00  0.00     0.012 A 
BRANCH  32  36
HETATM   36  O   UNL     1      44.626 -19.197   6.125  1.00  0.00    -0.353 OA
HETATM   37  C   UNL     1      45.025 -17.903   6.573  1.00  0.00     0.210 C 
ENDBRANCH  32  36
BRANCH  33  38
HETATM   38  O   UNL     1      44.719 -21.547   4.812  1.00  0.00    -0.353 OA
HETATM   39  C   UNL     1      44.703 -22.774   4.090  1.00  0.00     0.210 C 
ENDBRANCH  33  38
ENDBRANCH  29  30
ENDBRANCH   1  29
TORSDOF 9
ENDMDL
MODEL 3
REMARK VINA RESULT:      -9.2      1.547      2.248
REMARK  9 active torsions:
REMARK  status: ('A' for Active; 'I' for Inactive)
REMARK    1  A    between atoms: O_2  and  C_3 
REMARK    2  A    between atoms: C_4  and  O_5 
REMARK    3  A    between atoms: C_8  and  C_9 
REMARK    4  A    between atoms: C_9  and  N_10 
REMARK    5  A    between atoms: C_14  and  O_15 
REMARK    6  A    between atoms: C_14  and  C_16 
REMARK    7  A    between atoms: C_21  and  C_22 
REMARK       I    between atoms: C_22  and  N_23 
REMARK    8  A    between atoms: N_23  and  C_24 
REMARK    9  A    between atoms: C_24  and  C_25 
ROOT
HETATM    1  N   UNL     1      42.289 -16.706   1.453  1.00  0.00    -0.067 N 
HETATM    2  H   UNL     1      42.112 -17.498   0.821  1.00  0.00     0.280 HD
HETATM    3  C   UNL     1      41.279 -16.809   2.575  1.00  0.00     0.238 C 
HETATM    4  C   UNL     1      39.878 -16.508   2.073  1.00  0.00     0.071 C 
HETATM    5  C   UNL     1      39.791 -15.103   1.445  1.00  0.00     0.088 C 
HETATM    6  C   UNL     1      40.744 -15.147   0.236  1.00  0.00     0.071 C 
HETATM    7  C   UNL     1      42.180 -15.432   0.647  1.00  0.00     0.238 C 
ENDROOT
BRANCH   5   8
HETATM    8  O   UNL     1      38.470 -14.960   0.924  1.00  0.00    -0.385 OA
HETATM    9  H   UNL     1      37.818 -15.160   1.619  1.00  0.00     0.211 HD
ENDBRANCH   5   8
BRANCH   5  10
HETATM   10  C   UNL     1      40.046 -13.963   2.443  1.00  0.00    -0.023 A 
HETATM   11  C   UNL     1      39.571 -14.056   3.774  1.00  0.00     0.024 A 
HETATM   12  C   UNL     1      39.924 -13.078   4.724  1.00  0.00     0.001 A 
HETATM   13  C   UNL     1      40.694 -12.004   4.311  1.00  0.00     0.086 A 
HETATM   14  C   UNL     1      39.695 -12.877   6.109  1.00  0.00     0.057 A 
HETATM   15  O   UNL     1      40.988 -11.193   5.362  1.00  0.00    -0.304 OA
HETATM   16  C   UNL     1      41.097 -11.803   2.997  1.00  0.00     0.039 A 
HETATM   17  C   UNL     1      40.382 -11.731   6.468  1.00  0.00     0.144 A 
HETATM   18  C   UNL     1      40.743 -12.796   2.072  1.00  0.00     0.013 A 
BRANCH  17  19
HETATM   19  C   UNL     1      40.537 -11.088   7.756  1.00  0.00     0.275 C 
HETATM   20  N   UNL     1      41.837 -11.031   8.205  1.00  0.00    -0.353 N 
HETATM   21  H   UNL     1      42.531 -11.555   7.686  1.00  0.00     0.162 HD
HETATM   22  O   UNL     1      39.590 -10.662   8.411  1.00  0.00    -0.265 OA
BRANCH  20  23
HETATM   23  C   UNL     1      42.176 -10.574   9.540  1.00  0.00     0.155 C 
BRANCH  23  24
HETATM   24  C   UNL     1      43.391 -11.301  10.126  1.00  0.00     0.139 C 
HETATM   25  O   UNL     1      44.108 -12.014   9.095  1.00  0.00    -0.384 OA
HETATM   26  C   UNL     1      45.511 -11.949   9.402  1.00  0.00     0.168 C 
HETATM   27  C   UNL     1      45.656 -11.198  10.711  1.00  0.00     0.029 C 
HETATM   28  C   UNL     1      44.408 -10.351  10.736  1.00  0.00     0.035 C 
ENDBRANCH  23  24
ENDBRANCH  20  23
ENDBRANCH  17  19
ENDBRANCH   5  10
BRANCH   1  29
HETATM   29  C   UNL     1      43.722 -16.867   1.946  1.00  0.00     0.273 C 
BRANCH  29  30
HETATM   30  C   UNL     1      43.922 -17.973   2.942  1.00  0.00    -0.030 A 
HETATM   31  C   UNL     1      44.167 -19.281   2.498  1.00  0.00     0.048 A 
HETATM   32  C   UNL     1      44.382 -20.311   3.417  1.00  0.00     0.102 A 
HETATM   33  C   UNL     1      44.293 -20.070   4.792  1.00  0.00     0.101 A 
HETATM   34  C   UNL     1      44.058 -18.766   5.238  1.00  0.00     0.040 A 
HETATM   35  C   UNL     1      43.880 -17.723   4.320  1.00  0.00     0.012 A 
BRANCH  32  36
HETATM   36  O   UNL     1      44.582 -21.590   2.968  1.00  0.00    -0.353 OA
HETATM   37  C   UNL     1      43.974 -21.804   1.696  1.00  0.00     0.210 C 
ENDBRANCH  32  36
BRANCH  33  38
HETATM   38  O   UNL     1      44.503 -21.136   5.622  1.00  0.00    -0.353 OA
HETATM   39  C   UNL     1      43.782 -21.116   6.850  1.00  0.00     0.210 C 
ENDBRANCH  33  38
ENDBRANCH  29  30
ENDBRANCH   1  29
TORSDOF 9
ENDMDL
MODEL 4
REMARK VINA RESULT:      -9.2      2.970      9.216
REMARK  9 active torsions:
REMARK  status: ('A' for Active; 'I' for Inactive)
REMARK    1  A    between atoms: O_2  and  C_3 
REMARK    2  A    between atoms: C_4  and  O_5 
REMARK    3  A    between atoms: C_8  and  C_9 
REMARK    4  A    between atoms: C_9  and  N_10 
REMARK    5  A    between atoms: C_14  and  O_15 
REMARK    6  A    between atoms: C_14  and  C_16 
REMARK    7  A    between atoms: C_21  and  C_22 
REMARK       I    between atoms: C_22  and  N_23 
REMARK    8  A    between atoms: N_23  and  C_24 
REMARK    9  A    between atoms: C_24  and  C_25 
ROOT
HETATM    1  N   UNL     1      44.081 -16.174   7.152  1.00  0.00    -0.067 N 
HETATM    2  H   UNL     1      44.283 -16.454   8.121  1.00  0.00     0.280 HD
HETATM    3  C   UNL     1      42.677 -16.645   6.844  1.00  0.00     0.238 C 
HETATM    4  C   UNL     1      42.622 -18.160   6.753  1.00  0.00     0.071 C 
HETATM    5  C   UNL     1      43.581 -18.698   5.675  1.00  0.00     0.088 C 
HETATM    6  C   UNL     1      44.987 -18.289   6.151  1.00  0.00     0.071 C 
HETATM    7  C   UNL     1      45.140 -16.780   6.260  1.00  0.00     0.238 C 
ENDROOT
BRANCH   5   8
HETATM    8  O   UNL     1      43.523 -20.123   5.738  1.00  0.00    -0.385 OA
HETATM    9  H   UNL     1      42.656 -20.402   6.085  1.00  0.00     0.211 HD
ENDBRANCH   5   8
BRANCH   5  10
HETATM   10  C   UNL     1      43.216 -18.260   4.248  1.00  0.00    -0.023 A 
HETATM   11  C   UNL     1      42.136 -17.370   4.025  1.00  0.00     0.024 A 
HETATM   12  C   UNL     1      41.892 -16.860   2.736  1.00  0.00     0.001 A 
HETATM   13  C   UNL     1      42.692 -17.292   1.692  1.00  0.00     0.086 A 
HETATM   14  C   UNL     1      40.977 -15.940   2.164  1.00  0.00     0.057 A 
HETATM   15  O   UNL     1      42.356 -16.658   0.537  1.00  0.00    -0.304 OA
HETATM   16  C   UNL     1      43.694 -18.243   1.829  1.00  0.00     0.039 A 
HETATM   17  C   UNL     1      41.308 -15.822   0.826  1.00  0.00     0.144 A 
HETATM   18  C   UNL     1      43.927 -18.728   3.125  1.00  0.00     0.013 A 
BRANCH  17  19
HETATM   19  C   UNL     1      40.743 -14.992  -0.217  1.00  0.00     0.275 C 
HETATM   20  N   UNL     1      41.529 -14.886  -1.342  1.00  0.00    -0.353 N 
HETATM   21  H   UNL     1      42.468 -15.263  -1.290  1.00  0.00     0.162 HD
HETATM   22  O   UNL     1      39.673 -14.401  -0.099  1.00  0.00    -0.265 OA
BRANCH  20  23
HETATM   23  C   UNL     1      41.214 -13.973  -2.425  1.00  0.00     0.155 C 
BRANCH  23  24
HETATM   24  C   UNL     1      40.369 -14.625  -3.524  1.00  0.00     0.139 C 
HETATM   25  O   UNL     1      40.453 -16.065  -3.450  1.00  0.00    -0.384 OA
HETATM   26  C   UNL     1      39.171 -16.604  -3.816  1.00  0.00     0.168 C 
HETATM   27  C   UNL     1      38.272 -15.438  -4.177  1.00  0.00     0.029 C 
HETATM   28  C   UNL     1      38.889 -14.303  -3.399  1.00  0.00     0.035 C 
ENDBRANCH  23  24
ENDBRANCH  20  23
ENDBRANCH  17  19
ENDBRANCH   5  10
BRANCH   1  29
HETATM   29  C   UNL     1      44.204 -14.655   7.115  1.00  0.00     0.273 C 
BRANCH  29  30
HETATM   30  C   UNL     1      43.488 -13.995   5.972  1.00  0.00    -0.030 A 
HETATM   31  C   UNL     1      42.361 -13.195   6.217  1.00  0.00     0.048 A 
HETATM   32  C   UNL     1      41.705 -12.556   5.163  1.00  0.00     0.102 A 
HETATM   33  C   UNL     1      42.118 -12.753   3.842  1.00  0.00     0.101 A 
HETATM   34  C   UNL     1      43.245 -13.541   3.594  1.00  0.00     0.040 A 
HETATM   35  C   UNL     1      43.929 -14.153   4.652  1.00  0.00     0.012 A 
BRANCH  32  36
HETATM   36  O   UNL     1      40.584 -11.809   5.415  1.00  0.00    -0.353 OA
HETATM   37  C   UNL     1      39.549 -12.593   6.004  1.00  0.00     0.210 C 
ENDBRANCH  32  36
BRANCH  33  38
HETATM   38  O   UNL     1      41.412 -12.100   2.869  1.00  0.00    -0.353 OA
HETATM   39  C   UNL     1      41.953 -12.179   1.554  1.00  0.00     0.210 C 
ENDBRANCH  33  38
ENDBRANCH  29  30
ENDBRANCH   1  29
TORSDOF 9
ENDMDL
MODEL 5
REMARK VINA RESULT:      -9.1      3.272      8.842
REMARK  9 active torsions:
REMARK  status: ('A' for Active; 'I' for Inactive)
REMARK    1  A    between atoms: O_2  and  C_3 
REMARK    2  A    between atoms: C_4  and  O_5 
REMARK    3  A    between atoms: C_8  and  C_9 
REMARK    4  A    between atoms: C_9  and  N_10 
REMARK    5  A    between atoms: C_14  and  O_15 
REMARK    6  A    between atoms: C_14  and  C_16 
REMARK    7  A    between atoms: C_21  and  C_22 
REMARK       I    between atoms: C_22  and  N_23 
REMARK    8  A    between atoms: N_23  and  C_24 
REMARK    9  A    between atoms: C_24  and  C_25 
ROOT
HETATM    1  N   UNL     1      43.949 -18.293   7.197  1.00  0.00    -0.067 N 
HETATM    2  H   UNL     1      44.384 -18.834   7.956  1.00  0.00     0.280 HD
HETATM    3  C   UNL     1      42.953 -19.210   6.523  1.00  0.00     0.238 C 
HETATM    4  C   UNL     1      43.663 -20.313   5.758  1.00  0.00     0.071 C 
HETATM    5  C   UNL     1      44.619 -19.740   4.695  1.00  0.00     0.088 C 
HETATM    6  C   UNL     1      45.669 -18.943   5.491  1.00  0.00     0.071 C 
HETATM    7  C   UNL     1      45.048 -17.804   6.282  1.00  0.00     0.238 C 
ENDROOT
BRANCH   5   8
HETATM    8  O   UNL     1      45.301 -20.847   4.106  1.00  0.00    -0.385 OA
HETATM    9  H   UNL     1      46.204 -20.908   4.468  1.00  0.00     0.211 HD
ENDBRANCH   5   8
BRANCH   5  10
HETATM   10  C   UNL     1      43.907 -18.959   3.579  1.00  0.00    -0.023 A 
HETATM   11  C   UNL     1      42.607 -18.437   3.787  1.00  0.00     0.024 A 
HETATM   12  C   UNL     1      42.014 -17.603   2.819  1.00  0.00     0.001 A 
HETATM   13  C   UNL     1      42.706 -17.358   1.645  1.00  0.00     0.086 A 
HETATM   14  C   UNL     1      40.801 -16.878   2.709  1.00  0.00     0.057 A 
HETATM   15  O   UNL     1      42.017 -16.493   0.855  1.00  0.00    -0.304 OA
HETATM   16  C   UNL     1      43.934 -17.928   1.340  1.00  0.00     0.039 A 
HETATM   17  C   UNL     1      40.850 -16.191   1.509  1.00  0.00     0.144 A 
HETATM   18  C   UNL     1      44.511 -18.745   2.324  1.00  0.00     0.013 A 
BRANCH  17  19
HETATM   19  C   UNL     1      39.910 -15.267   0.911  1.00  0.00     0.275 C 
HETATM   20  N   UNL     1      40.234 -14.882  -0.370  1.00  0.00    -0.353 N 
HETATM   21  H   UNL     1      41.145 -15.154  -0.721  1.00  0.00     0.162 HD
HETATM   22  O   UNL     1      38.928 -14.829   1.505  1.00  0.00    -0.265 OA
BRANCH  20  23
HETATM   23  C   UNL     1      39.509 -13.841  -1.074  1.00  0.00     0.155 C 
BRANCH  23  24
HETATM   24  C   UNL     1      39.257 -14.184  -2.546  1.00  0.00     0.139 C 
HETATM   25  O   UNL     1      40.030 -15.337  -2.944  1.00  0.00    -0.384 OA
HETATM   26  C   UNL     1      39.247 -16.096  -3.881  1.00  0.00     0.168 C 
HETATM   27  C   UNL     1      37.949 -15.345  -4.103  1.00  0.00     0.029 C 
HETATM   28  C   UNL     1      37.810 -14.557  -2.825  1.00  0.00     0.035 C 
ENDBRANCH  23  24
ENDBRANCH  20  23
ENDBRANCH  17  19
ENDBRANCH   5  10
BRANCH   1  29
HETATM   29  C   UNL     1      43.278 -17.095   7.860  1.00  0.00     0.273 C 
BRANCH  29  30
HETATM   30  C   UNL     1      42.515 -16.205   6.921  1.00  0.00    -0.030 A 
HETATM   31  C   UNL     1      43.194 -15.235   6.166  1.00  0.00     0.048 A 
HETATM   32  C   UNL     1      42.497 -14.422   5.270  1.00  0.00     0.102 A 
HETATM   33  C   UNL     1      41.106 -14.514   5.157  1.00  0.00     0.101 A 
HETATM   34  C   UNL     1      40.428 -15.484   5.900  1.00  0.00     0.040 A 
HETATM   35  C   UNL     1      41.128 -16.328   6.771  1.00  0.00     0.012 A 
BRANCH  32  36
HETATM   36  O   UNL     1      43.168 -13.455   4.568  1.00  0.00    -0.353 OA
HETATM   37  C   UNL     1      43.698 -13.962   3.346  1.00  0.00     0.210 C 
ENDBRANCH  32  36
BRANCH  33  38
HETATM   38  O   UNL     1      40.500 -13.671   4.266  1.00  0.00    -0.353 OA
HETATM   39  C   UNL     1      39.524 -12.791   4.813  1.00  0.00     0.210 C 
ENDBRANCH  33  38
ENDBRANCH  29  30
ENDBRANCH   1  29
TORSDOF 9
ENDMDL
MODEL 6
REMARK VINA RESULT:      -9.1      2.311      3.618
REMARK  9 active torsions:
REMARK  status: ('A' for Active; 'I' for Inactive)
REMARK    1  A    between atoms: O_2  and  C_3 
REMARK    2  A    between atoms: C_4  and  O_5 
REMARK    3  A    between atoms: C_8  and  C_9 
REMARK    4  A    between atoms: C_9  and  N_10 
REMARK    5  A    between atoms: C_14  and  O_15 
REMARK    6  A    between atoms: C_14  and  C_16 
REMARK    7  A    between atoms: C_21  and  C_22 
REMARK       I    between atoms: C_22  and  N_23 
REMARK    8  A    between atoms: N_23  and  C_24 
REMARK    9  A    between atoms: C_24  and  C_25 
ROOT
HETATM    1  N   UNL     1      42.099 -15.205   3.164  1.00  0.00    -0.067 N 
HETATM    2  H   UNL     1      41.958 -15.799   2.335  1.00  0.00     0.280 HD
HETATM    3  C   UNL     1      40.837 -15.303   3.991  1.00  0.00     0.238 C 
HETATM    4  C   UNL     1      39.678 -14.608   3.298  1.00  0.00     0.071 C 
HETATM    5  C   UNL     1      39.989 -13.124   3.027  1.00  0.00     0.088 C 
HETATM    6  C   UNL     1      41.195 -13.136   2.069  1.00  0.00     0.071 C 
HETATM    7  C   UNL     1      42.412 -13.805   2.687  1.00  0.00     0.238 C 
ENDROOT
BRANCH   5   8
HETATM    8  O   UNL     1      38.885 -12.594   2.293  1.00  0.00    -0.385 OA
HETATM    9  H   UNL     1      39.104 -12.567   1.344  1.00  0.00     0.211 HD
ENDBRANCH   5   8
BRANCH   5  10
HETATM   10  C   UNL     1      40.170 -12.287   4.303  1.00  0.00    -0.023 A 
HETATM   11  C   UNL     1      39.387 -12.553   5.453  1.00  0.00     0.024 A 
HETATM   12  C   UNL     1      39.650 -11.883   6.662  1.00  0.00     0.001 A 
HETATM   13  C   UNL     1      40.649 -10.924   6.682  1.00  0.00     0.086 A 
HETATM   14  C   UNL     1      39.134 -11.927   7.982  1.00  0.00     0.057 A 
HETATM   15  O   UNL     1      40.806 -10.422   7.935  1.00  0.00    -0.304 OA
HETATM   16  C   UNL     1      41.375 -10.543   5.562  1.00  0.00     0.039 A 
HETATM   17  C   UNL     1      39.882 -11.042   8.737  1.00  0.00     0.144 A 
HETATM   18  C   UNL     1      41.104 -11.233   4.371  1.00  0.00     0.013 A 
BRANCH  17  19
HETATM   19  C   UNL     1      39.825 -10.720  10.148  1.00  0.00     0.275 C 
HETATM   20  N   UNL     1      40.402 -11.665  10.965  1.00  0.00    -0.353 N 
HETATM   21  H   UNL     1      40.678 -12.542  10.540  1.00  0.00     0.162 HD
HETATM   22  O   UNL     1      39.276  -9.712  10.584  1.00  0.00    -0.265 OA
BRANCH  20  23
HETATM   23  C   UNL     1      40.302 -11.604  12.412  1.00  0.00     0.155 C 
BRANCH  23  24
HETATM   24  C   UNL     1      41.610 -11.170  13.081  1.00  0.00     0.139 C 
HETATM   25  O   UNL     1      42.711 -11.243  12.149  1.00  0.00    -0.384 OA
HETATM   26  C   UNL     1      43.608 -10.156  12.435  1.00  0.00     0.168 C 
HETATM   27  C   UNL     1      43.053  -9.410  13.632  1.00  0.00     0.029 C 
HETATM   28  C   UNL     1      41.580  -9.726  13.553  1.00  0.00     0.035 C 
ENDBRANCH  23  24
ENDBRANCH  20  23
ENDBRANCH  17  19
ENDBRANCH   5  10
BRANCH   1  29
HETATM   29  C   UNL     1      43.314 -15.771   3.890  1.00  0.00     0.273 C 
BRANCH  29  30
HETATM   30  C   UNL     1      43.599 -17.217   3.602  1.00  0.00    -0.030 A 
HETATM   31  C   UNL     1      43.905 -18.095   4.653  1.00  0.00     0.048 A 
HETATM   32  C   UNL     1      44.144 -19.448   4.398  1.00  0.00     0.102 A 
HETATM   33  C   UNL     1      44.146 -19.936   3.087  1.00  0.00     0.101 A 
HETATM   34  C   UNL     1      43.833 -19.067   2.039  1.00  0.00     0.040 A 
HETATM   35  C   UNL     1      43.555 -17.718   2.295  1.00  0.00     0.012 A 
BRANCH  32  36
HETATM   36  O   UNL     1      44.479 -20.284   5.431  1.00  0.00    -0.353 OA
HETATM   37  C   UNL     1      43.917 -19.847   6.666  1.00  0.00     0.210 C 
ENDBRANCH  32  36
BRANCH  33  38
HETATM   38  O   UNL     1      44.403 -21.270   2.925  1.00  0.00    -0.353 OA
HETATM   39  C   UNL     1      44.132 -21.799   1.631  1.00  0.00     0.210 C 
ENDBRANCH  33  38
ENDBRANCH  29  30
ENDBRANCH   1  29
TORSDOF 9
ENDMDL
MODEL 7
REMARK VINA RESULT:      -9.0      2.944      8.873
REMARK  9 active torsions:
REMARK  status: ('A' for Active; 'I' for Inactive)
REMARK    1  A    between atoms: O_2  and  C_3 
REMARK    2  A    between atoms: C_4  and  O_5 
REMARK    3  A    between atoms: C_8  and  C_9 
REMARK    4  A    between atoms: C_9  and  N_10 
REMARK    5  A    between atoms: C_14  and  O_15 
REMARK    6  A    between atoms: C_14  and  C_16 
REMARK    7  A    between atoms: C_21  and  C_22 
REMARK       I    between atoms: C_22  and  N_23 
REMARK    8  A    between atoms: N_23  and  C_24 
REMARK    9  A    between atoms: C_24  and  C_25 
ROOT
HETATM    1  N   UNL     1      44.153 -15.996   7.258  1.00  0.00    -0.067 N 
HETATM    2  H   UNL     1      44.404 -16.212   8.232  1.00  0.00     0.280 HD
HETATM    3  C   UNL     1      42.732 -16.474   7.057  1.00  0.00     0.238 C 
HETATM    4  C   UNL     1      42.663 -17.992   7.072  1.00  0.00     0.071 C 
HETATM    5  C   UNL     1      43.562 -18.610   5.985  1.00  0.00     0.088 C 
HETATM    6  C   UNL     1      44.993 -18.183   6.358  1.00  0.00     0.071 C 
HETATM    7  C   UNL     1      45.160 -16.672   6.356  1.00  0.00     0.238 C 
ENDROOT
BRANCH   5   8
HETATM    8  O   UNL     1      43.499 -20.027   6.148  1.00  0.00    -0.385 OA
HETATM    9  H   UNL     1      43.741 -20.466   5.312  1.00  0.00     0.211 HD
ENDBRANCH   5   8
BRANCH   5  10
HETATM   10  C   UNL     1      43.125 -18.267   4.552  1.00  0.00    -0.023 A 
HETATM   11  C   UNL     1      41.996 -17.443   4.326  1.00  0.00     0.024 A 
HETATM   12  C   UNL     1      41.680 -17.014   3.022  1.00  0.00     0.001 A 
HETATM   13  C   UNL     1      42.463 -17.463   1.971  1.00  0.00     0.086 A 
HETATM   14  C   UNL     1      40.701 -16.171   2.438  1.00  0.00     0.057 A 
HETATM   15  O   UNL     1      42.055 -16.909   0.799  1.00  0.00    -0.304 OA
HETATM   16  C   UNL     1      43.514 -18.358   2.120  1.00  0.00     0.039 A 
HETATM   17  C   UNL     1      40.978 -16.109   1.084  1.00  0.00     0.144 A 
HETATM   18  C   UNL     1      43.817 -18.761   3.428  1.00  0.00     0.013 A 
BRANCH  17  19
HETATM   19  C   UNL     1      40.335 -15.364   0.022  1.00  0.00     0.275 C 
HETATM   20  N   UNL     1      40.787 -15.677  -1.240  1.00  0.00    -0.353 N 
HETATM   21  H   UNL     1      41.603 -16.274  -1.306  1.00  0.00     0.162 HD
HETATM   22  O   UNL     1      39.488 -14.499   0.226  1.00  0.00    -0.265 OA
BRANCH  20  23
HETATM   23  C   UNL     1      40.386 -14.927  -2.415  1.00  0.00     0.155 C 
BRANCH  23  24
HETATM   24  C   UNL     1      41.521 -14.073  -2.991  1.00  0.00     0.139 C 
HETATM   25  O   UNL     1      41.023 -13.180  -4.011  1.00  0.00    -0.384 OA
HETATM   26  C   UNL     1      41.761 -11.949  -3.923  1.00  0.00     0.168 C 
HETATM   27  C   UNL     1      42.793 -12.114  -2.824  1.00  0.00     0.029 C 
HETATM   28  C   UNL     1      42.167 -13.172  -1.951  1.00  0.00     0.035 C 
ENDBRANCH  23  24
ENDBRANCH  20  23
ENDBRANCH  17  19
ENDBRANCH   5  10
BRANCH   1  29
HETATM   29  C   UNL     1      44.282 -14.484   7.111  1.00  0.00     0.273 C 
BRANCH  29  30
HETATM   30  C   UNL     1      43.522 -13.900   5.955  1.00  0.00    -0.030 A 
HETATM   31  C   UNL     1      42.406 -13.081   6.191  1.00  0.00     0.048 A 
HETATM   32  C   UNL     1      41.710 -12.510   5.123  1.00  0.00     0.102 A 
HETATM   33  C   UNL     1      42.071 -12.796   3.802  1.00  0.00     0.101 A 
HETATM   34  C   UNL     1      43.186 -13.603   3.563  1.00  0.00     0.040 A 
HETATM   35  C   UNL     1      43.911 -14.146   4.632  1.00  0.00     0.012 A 
BRANCH  32  36
HETATM   36  O   UNL     1      40.600 -11.745   5.369  1.00  0.00    -0.353 OA
HETATM   37  C   UNL     1      39.568 -12.499   6.000  1.00  0.00     0.210 C 
ENDBRANCH  32  36
BRANCH  33  38
HETATM   38  O   UNL     1      41.328 -12.207   2.816  1.00  0.00    -0.353 OA
HETATM   39  C   UNL     1      41.892 -12.247   1.509  1.00  0.00     0.210 C 
ENDBRANCH  33  38
ENDBRANCH  29  30
ENDBRANCH   1  29
TORSDOF 9
ENDMDL
MODEL 8
REMARK VINA RESULT:      -8.9      3.049      8.466
REMARK  9 active torsions:
REMARK  status: ('A' for Active; 'I' for Inactive)
REMARK    1  A    between atoms: O_2  and  C_3 
REMARK    2  A    between atoms: C_4  and  O_5 
REMARK    3  A    between atoms: C_8  and  C_9 
REMARK    4  A    between atoms: C_9  and  N_10 
REMARK    5  A    between atoms: C_14  and  O_15 
REMARK    6  A    between atoms: C_14  and  C_16 
REMARK    7  A    between atoms: C_21  and  C_22 
REMARK       I    between atoms: C_22  and  N_23 
REMARK    8  A    between atoms: N_23  and  C_24 
REMARK    9  A    between atoms: C_24  and  C_25 
ROOT
HETATM    1  N   UNL     1      43.939 -15.980   7.213  1.00  0.00    -0.067 N 
HETATM    2  H   UNL     1      44.108 -16.157   8.213  1.00  0.00     0.280 HD
HETATM    3  C   UNL     1      42.562 -16.522   6.901  1.00  0.00     0.238 C 
HETATM    4  C   UNL     1      42.551 -18.040   6.960  1.00  0.00     0.071 C 
HETATM    5  C   UNL     1      43.567 -18.652   5.978  1.00  0.00     0.088 C 
HETATM    6  C   UNL     1      44.942 -18.155   6.464  1.00  0.00     0.071 C 
HETATM    7  C   UNL     1      45.050 -16.639   6.428  1.00  0.00     0.238 C 
ENDROOT
BRANCH   5   8
HETATM    8  O   UNL     1      43.545 -20.065   6.181  1.00  0.00    -0.385 OA
HETATM    9  H   UNL     1      43.250 -20.263   7.089  1.00  0.00     0.211 HD
ENDBRANCH   5   8
BRANCH   5  10
HETATM   10  C   UNL     1      43.250 -18.369   4.501  1.00  0.00    -0.023 A 
HETATM   11  C   UNL     1      42.155 -17.543   4.150  1.00  0.00     0.024 A 
HETATM   12  C   UNL     1      41.949 -17.170   2.808  1.00  0.00     0.001 A 
HETATM   13  C   UNL     1      42.806 -17.674   1.843  1.00  0.00     0.086 A 
HETATM   14  C   UNL     1      41.032 -16.342   2.112  1.00  0.00     0.057 A 
HETATM   15  O   UNL     1      42.499 -17.168   0.619  1.00  0.00    -0.304 OA
HETATM   16  C   UNL     1      43.829 -18.573   2.114  1.00  0.00     0.039 A 
HETATM   17  C   UNL     1      41.415 -16.345   0.783  1.00  0.00     0.144 A 
HETATM   18  C   UNL     1      44.022 -18.920   3.459  1.00  0.00     0.013 A 
BRANCH  17  19
HETATM   19  C   UNL     1      40.870 -15.641  -0.359  1.00  0.00     0.275 C 
HETATM   20  N   UNL     1      39.898 -14.720  -0.042  1.00  0.00    -0.353 N 
HETATM   21  H   UNL     1      39.554 -14.715   0.911  1.00  0.00     0.162 HD
HETATM   22  O   UNL     1      41.213 -15.870  -1.516  1.00  0.00    -0.265 OA
BRANCH  20  23
HETATM   23  C   UNL     1      39.119 -14.034  -1.057  1.00  0.00     0.155 C 
BRANCH  23  24
HETATM   24  C   UNL     1      37.833 -13.414  -0.500  1.00  0.00     0.139 C 
HETATM   25  O   UNL     1      37.995 -13.058   0.890  1.00  0.00    -0.384 OA
HETATM   26  C   UNL     1      37.252 -11.850   1.129  1.00  0.00     0.168 C 
HETATM   27  C   UNL     1      36.563 -11.475  -0.168  1.00  0.00     0.029 C 
HETATM   28  C   UNL     1      37.449 -12.123  -1.202  1.00  0.00     0.035 C 
ENDBRANCH  23  24
ENDBRANCH  20  23
ENDBRANCH  17  19
ENDBRANCH   5  10
BRANCH   1  29
HETATM   29  C   UNL     1      44.023 -14.469   7.029  1.00  0.00     0.273 C 
BRANCH  29  30
HETATM   30  C   UNL     1      43.324 -13.947   5.807  1.00  0.00    -0.030 A 
HETATM   31  C   UNL     1      42.106 -13.260   5.934  1.00  0.00     0.048 A 
HETATM   32  C   UNL     1      41.463 -12.746   4.806  1.00  0.00     0.102 A 
HETATM   33  C   UNL     1      41.986 -12.963   3.527  1.00  0.00     0.101 A 
HETATM   34  C   UNL     1      43.202 -13.639   3.397  1.00  0.00     0.040 A 
HETATM   35  C   UNL     1      43.870 -14.122   4.529  1.00  0.00     0.012 A 
BRANCH  32  36
HETATM   36  O   UNL     1      40.257 -12.111   4.943  1.00  0.00    -0.353 OA
HETATM   37  C   UNL     1      39.492 -12.657   6.015  1.00  0.00     0.210 C 
ENDBRANCH  32  36
BRANCH  33  38
HETATM   38  O   UNL     1      41.287 -12.438   2.475  1.00  0.00    -0.353 OA
HETATM   39  C   UNL     1      42.013 -12.293   1.259  1.00  0.00     0.210 C 
ENDBRANCH  33  38
ENDBRANCH  29  30
ENDBRANCH   1  29
TORSDOF 9
ENDMDL
MODEL 9
REMARK VINA RESULT:      -8.8      3.501      8.708
REMARK  9 active torsions:
REMARK  status: ('A' for Active; 'I' for Inactive)
REMARK    1  A    between atoms: O_2  and  C_3 
REMARK    2  A    between atoms: C_4  and  O_5 
REMARK    3  A    between atoms: C_8  and  C_9 
REMARK    4  A    between atoms: C_9  and  N_10 
REMARK    5  A    between atoms: C_14  and  O_15 
REMARK    6  A    between atoms: C_14  and  C_16 
REMARK    7  A    between atoms: C_21  and  C_22 
REMARK       I    between atoms: C_22  and  N_23 
REMARK    8  A    between atoms: N_23  and  C_24 
REMARK    9  A    between atoms: C_24  and  C_25 
ROOT
HETATM    1  N   UNL     1      42.191 -15.731   6.284  1.00  0.00    -0.067 N 
HETATM    2  H   UNL     1      42.351 -15.331   7.218  1.00  0.00     0.280 HD
HETATM    3  C   UNL     1      43.373 -15.332   5.429  1.00  0.00     0.238 C 
HETATM    4  C   UNL     1      43.355 -13.841   5.141  1.00  0.00     0.071 C 
HETATM    5  C   UNL     1      42.055 -13.417   4.432  1.00  0.00     0.088 C 
HETATM    6  C   UNL     1      40.931 -13.734   5.436  1.00  0.00     0.071 C 
HETATM    7  C   UNL     1      40.865 -15.214   5.775  1.00  0.00     0.238 C 
ENDROOT
BRANCH   5   8
HETATM    8  O   UNL     1      42.098 -11.997   4.297  1.00  0.00    -0.385 OA
HETATM    9  H   UNL     1      42.503 -11.759   3.443  1.00  0.00     0.211 HD
ENDBRANCH   5   8
BRANCH   5  10
HETATM   10  C   UNL     1      41.883 -14.033   3.035  1.00  0.00    -0.023 A 
HETATM   11  C   UNL     1      40.745 -13.722   2.250  1.00  0.00     0.024 A 
HETATM   12  C   UNL     1      40.656 -14.173   0.919  1.00  0.00     0.001 A 
HETATM   13  C   UNL     1      41.675 -14.969   0.422  1.00  0.00     0.086 A 
HETATM   14  C   UNL     1      39.735 -14.018  -0.147  1.00  0.00     0.057 A 
HETATM   15  O   UNL     1      41.457 -15.264  -0.887  1.00  0.00    -0.304 OA
HETATM   16  C   UNL     1      42.760 -15.396   1.177  1.00  0.00     0.039 A 
HETATM   17  C   UNL     1      40.270 -14.675  -1.241  1.00  0.00     0.144 A 
HETATM   18  C   UNL     1      42.832 -14.924   2.496  1.00  0.00     0.013 A 
BRANCH  17  19
HETATM   19  C   UNL     1      39.783 -14.801  -2.598  1.00  0.00     0.275 C 
HETATM   20  N   UNL     1      38.431 -15.039  -2.692  1.00  0.00    -0.353 N 
HETATM   21  H   UNL     1      37.934 -15.244  -1.834  1.00  0.00     0.162 HD
HETATM   22  O   UNL     1      40.515 -14.740  -3.582  1.00  0.00    -0.265 OA
BRANCH  20  23
HETATM   23  C   UNL     1      37.785 -15.356  -3.953  1.00  0.00     0.155 C 
BRANCH  23  24
HETATM   24  C   UNL     1      37.064 -14.154  -4.570  1.00  0.00     0.139 C 
HETATM   25  O   UNL     1      35.756 -14.532  -5.051  1.00  0.00    -0.384 OA
HETATM   26  C   UNL     1      34.864 -13.425  -4.830  1.00  0.00     0.168 C 
HETATM   27  C   UNL     1      35.679 -12.297  -4.229  1.00  0.00     0.029 C 
HETATM   28  C   UNL     1      36.816 -13.037  -3.570  1.00  0.00     0.035 C 
ENDBRANCH  23  24
ENDBRANCH  20  23
ENDBRANCH  17  19
ENDBRANCH   5  10
BRANCH   1  29
HETATM   29  C   UNL     1      42.099 -17.241   6.478  1.00  0.00     0.273 C 
BRANCH  29  30
HETATM   30  C   UNL     1      42.681 -18.054   5.358  1.00  0.00    -0.030 A 
HETATM   31  C   UNL     1      43.724 -18.957   5.613  1.00  0.00     0.048 A 
HETATM   32  C   UNL     1      44.252 -19.737   4.583  1.00  0.00     0.102 A 
HETATM   33  C   UNL     1      43.796 -19.587   3.269  1.00  0.00     0.101 A 
HETATM   34  C   UNL     1      42.751 -18.695   3.012  1.00  0.00     0.040 A 
HETATM   35  C   UNL     1      42.192 -17.939   4.050  1.00  0.00     0.012 A 
BRANCH  32  36
HETATM   36  O   UNL     1      45.297 -20.586   4.841  1.00  0.00    -0.353 OA
HETATM   37  C   UNL     1      44.846 -21.829   5.375  1.00  0.00     0.210 C 
ENDBRANCH  32  36
BRANCH  33  38
HETATM   38  O   UNL     1      44.377 -20.380   2.318  1.00  0.00    -0.353 OA
HETATM   39  C   UNL     1      43.582 -21.465   1.848  1.00  0.00     0.210 C 
ENDBRANCH  33  38
ENDBRANCH  29  30
ENDBRANCH   1  29
TORSDOF 9
ENDMDL
MODEL 10
REMARK VINA RESULT:      -8.7      4.527      9.149
REMARK  9 active torsions:
REMARK  status: ('A' for Active; 'I' for Inactive)
REMARK    1  A    between atoms: O_2  and  C_3 
REMARK    2  A    between atoms: C_4  and  O_5 
REMARK    3  A    between atoms: C_8  and  C_9 
REMARK    4  A    between atoms: C_9  and  N_10 
REMARK    5  A    between atoms: C_14  and  O_15 
REMARK    6  A    between atoms: C_14  and  C_16 
REMARK    7  A    between atoms: C_21  and  C_22 
REMARK       I    between atoms: C_22  and  N_23 
REMARK    8  A    between atoms: N_23  and  C_24 
REMARK    9  A    between atoms: C_24  and  C_25 
ROOT
HETATM    1  N   UNL     1      38.529 -12.872  -3.187  1.00  0.00    -0.067 N 
HETATM    2  H   UNL     1      38.397 -12.660  -4.185  1.00  0.00     0.280 HD
HETATM    3  C   UNL     1      39.843 -12.244  -2.779  1.00  0.00     0.238 C 
HETATM    4  C   UNL     1      41.014 -12.973  -3.415  1.00  0.00     0.071 C 
HETATM    5  C   UNL     1      41.028 -14.465  -3.031  1.00  0.00     0.088 C 
HETATM    6  C   UNL     1      39.721 -15.038  -3.611  1.00  0.00     0.071 C 
HETATM    7  C   UNL     1      38.489 -14.373  -3.019  1.00  0.00     0.238 C 
ENDROOT
BRANCH   5   8
HETATM    8  O   UNL     1      42.100 -15.071  -3.752  1.00  0.00    -0.385 OA
HETATM    9  H   UNL     1      42.020 -14.859  -4.700  1.00  0.00     0.211 HD
ENDBRANCH   5   8
BRANCH   5  10
HETATM   10  C   UNL     1      41.248 -14.716  -1.531  1.00  0.00    -0.023 A 
HETATM   11  C   UNL     1      41.235 -16.035  -1.016  1.00  0.00     0.024 A 
HETATM   12  C   UNL     1      41.576 -16.275   0.329  1.00  0.00     0.001 A 
HETATM   13  C   UNL     1      41.865 -15.191   1.141  1.00  0.00     0.086 A 
HETATM   14  C   UNL     1      41.723 -17.421   1.151  1.00  0.00     0.057 A 
HETATM   15  O   UNL     1      42.227 -15.606   2.384  1.00  0.00    -0.304 OA
HETATM   16  C   UNL     1      41.788 -13.870   0.721  1.00  0.00     0.039 A 
HETATM   17  C   UNL     1      42.148 -16.975   2.390  1.00  0.00     0.144 A 
HETATM   18  C   UNL     1      41.459 -13.656  -0.626  1.00  0.00     0.013 A 
BRANCH  17  19
HETATM   19  C   UNL     1      42.498 -17.709   3.588  1.00  0.00     0.275 C 
HETATM   20  N   UNL     1      43.799 -18.156   3.616  1.00  0.00    -0.353 N 
HETATM   21  H   UNL     1      44.340 -18.066   2.764  1.00  0.00     0.162 HD
HETATM   22  O   UNL     1      41.696 -17.947   4.488  1.00  0.00    -0.265 OA
BRANCH  20  23
HETATM   23  C   UNL     1      44.291 -19.046   4.651  1.00  0.00     0.155 C 
BRANCH  23  24
HETATM   24  C   UNL     1      44.933 -20.318   4.086  1.00  0.00     0.139 C 
HETATM   25  O   UNL     1      44.772 -21.423   5.002  1.00  0.00    -0.384 OA
HETATM   26  C   UNL     1      44.582 -22.619   4.226  1.00  0.00     0.168 C 
HETATM   27  C   UNL     1      44.679 -22.233   2.763  1.00  0.00     0.029 C 
HETATM   28  C   UNL     1      44.289 -20.776   2.789  1.00  0.00     0.035 C 
ENDBRANCH  23  24
ENDBRANCH  20  23
ENDBRANCH  17  19
ENDBRANCH   5  10
BRANCH   1  29
HETATM   29  C   UNL     1      37.340 -12.254  -2.460  1.00  0.00     0.273 C 
BRANCH  29  30
HETATM   30  C   UNL     1      37.542 -12.055  -0.985  1.00  0.00    -0.030 A 
HETATM   31  C   UNL     1      37.603 -10.757  -0.453  1.00  0.00     0.048 A 
HETATM   32  C   UNL     1      37.762 -10.563   0.921  1.00  0.00     0.102 A 
HETATM   33  C   UNL     1      37.928 -11.654   1.780  1.00  0.00     0.101 A 
HETATM   34  C   UNL     1      37.859 -12.947   1.256  1.00  0.00     0.040 A 
HETATM   35  C   UNL     1      37.661 -13.147  -0.116  1.00  0.00     0.012 A 
BRANCH  32  36
HETATM   36  O   UNL     1      37.857  -9.290   1.420  1.00  0.00    -0.353 OA
HETATM   37  C   UNL     1      37.955  -8.322   0.378  1.00  0.00     0.210 C 
ENDBRANCH  32  36
BRANCH  33  38
HETATM   38  O   UNL     1      38.092 -11.375   3.109  1.00  0.00    -0.353 OA
HETATM   39  C   UNL     1      39.341 -11.762   3.674  1.00  0.00     0.210 C 
ENDBRANCH  33  38
ENDBRANCH  29  30
ENDBRANCH   1  29
TORSDOF 9
ENDMDL
