MODEL 1
REMARK VINA RESULT:      -8.8      0.000      0.000
REMARK  7 active torsions:
REMARK  status: ('A' for Active; 'I' for Inactive)
REMARK    1  A    between atoms: C_4  and  C_5 
REMARK    2  A    between atoms: C_5  and  N_6 
REMARK       I    between atoms: N_6  and  C_7 
REMARK    3  A    between atoms: N_6  and  C_22 
REMARK    4  A    between atoms: C_7  and  C_8 
REMARK    5  A    between atoms: C_13  and  C_14 
REMARK    6  A    between atoms: C_15  and  O_16 
REMARK    7  A    between atoms: C_22  and  C_23 
ROOT
HETATM    1  N   UNL     1      42.802 -17.283   3.735  1.00  0.00    -0.343 N 
HETATM    2  C   UNL     1      42.269 -16.192   3.053  1.00  0.00     0.235 C 
HETATM    3  O   UNL     1      42.966 -15.520   2.286  1.00  0.00    -0.272 OA
ENDROOT
BRANCH   2   4
HETATM    4  C   UNL     1      40.801 -15.843   3.216  1.00  0.00     0.195 C 
HETATM    5  C   UNL     1      39.983 -16.440   2.109  1.00  0.00     0.247 C 
HETATM    6  O   UNL     1      40.083 -17.561   1.641  1.00  0.00    -0.271 OA
HETATM    7  N   UNL     1      39.012 -15.518   1.773  1.00  0.00    -0.290 N 
HETATM    8  N   UNL     1      39.157 -14.288   2.422  1.00  0.00    -0.228 NA
HETATM    9  H   UNL     1      38.397 -15.670   0.977  1.00  0.00     0.183 HD
HETATM   10  C   UNL     1      40.529 -14.335   3.017  1.00  0.00     0.134 C 
HETATM   11  H   UNL     1      38.480 -14.280   3.196  1.00  0.00     0.147 HD
BRANCH  10  12
HETATM   12  C   UNL     1      40.626 -13.452   4.257  1.00  0.00    -0.004 A 
HETATM   13  C   UNL     1      41.800 -12.741   4.569  1.00  0.00     0.073 A 
HETATM   14  C   UNL     1      41.893 -11.941   5.708  1.00  0.00     0.037 A 
HETATM   15  C   UNL     1      40.814 -11.843   6.580  1.00  0.00     0.003 A 
HETATM   16  C   UNL     1      39.651 -12.558   6.316  1.00  0.00     0.001 A 
HETATM   17  C   UNL     1      39.562 -13.358   5.172  1.00  0.00     0.012 A 
BRANCH  13  18
HETATM   18  O   UNL     1      42.919 -12.778   3.782  1.00  0.00    -0.360 OA
HETATM   19  H   UNL     1      42.790 -13.447   3.080  1.00  0.00     0.217 HD
ENDBRANCH  13  18
ENDBRANCH  10  12
ENDBRANCH   2   4
BRANCH   1  20
HETATM   20  C   UNL     1      44.110 -17.786   3.277  1.00  0.00     0.164 C 
BRANCH  20  21
HETATM   21  C   UNL     1      44.100 -19.268   2.973  1.00  0.00    -0.040 A 
HETATM   22  C   UNL     1      44.859 -20.160   3.744  1.00  0.00     0.009 A 
HETATM   23  C   UNL     1      44.863 -21.524   3.449  1.00  0.00     0.001 A 
HETATM   24  C   UNL     1      44.107 -22.011   2.385  1.00  0.00     0.000 A 
HETATM   25  C   UNL     1      43.341 -21.136   1.617  1.00  0.00     0.001 A 
HETATM   26  C   UNL     1      43.334 -19.771   1.910  1.00  0.00     0.009 A 
ENDBRANCH  20  21
ENDBRANCH   1  20
BRANCH   1  27
HETATM   27  C   UNL     1      42.085 -18.093   4.733  1.00  0.00     0.164 C 
BRANCH  27  28
HETATM   28  C   UNL     1      42.720 -18.112   6.106  1.00  0.00    -0.040 A 
HETATM   29  C   UNL     1      43.334 -19.271   6.609  1.00  0.00     0.009 A 
HETATM   30  C   UNL     1      43.937 -19.266   7.868  1.00  0.00     0.001 A 
HETATM   31  C   UNL     1      43.946 -18.101   8.633  1.00  0.00     0.000 A 
HETATM   32  C   UNL     1      43.354 -16.940   8.139  1.00  0.00     0.001 A 
HETATM   33  C   UNL     1      42.749 -16.943   6.881  1.00  0.00     0.009 A 
ENDBRANCH  27  28
ENDBRANCH   1  27
TORSDOF 7
ENDMDL
MODEL 2
REMARK VINA RESULT:      -8.7      2.961      5.998
REMARK  7 active torsions:
REMARK  status: ('A' for Active; 'I' for Inactive)
REMARK    1  A    between atoms: C_4  and  C_5 
REMARK    2  A    between atoms: C_5  and  N_6 
REMARK       I    between atoms: N_6  and  C_7 
REMARK    3  A    between atoms: N_6  and  C_22 
REMARK    4  A    between atoms: C_7  and  C_8 
REMARK    5  A    between atoms: C_13  and  C_14 
REMARK    6  A    between atoms: C_15  and  O_16 
REMARK    7  A    between atoms: C_22  and  C_23 
ROOT
HETATM    1  N   UNL     1      41.238 -14.365   1.505  1.00  0.00    -0.343 N 
HETATM    2  C   UNL     1      41.141 -13.467   2.565  1.00  0.00     0.235 C 
HETATM    3  O   UNL     1      41.613 -12.330   2.479  1.00  0.00    -0.272 OA
ENDROOT
BRANCH   2   4
HETATM    4  C   UNL     1      40.404 -13.869   3.830  1.00  0.00     0.195 C 
HETATM    5  C   UNL     1      39.537 -12.750   4.324  1.00  0.00     0.247 C 
HETATM    6  O   UNL     1      38.825 -12.019   3.656  1.00  0.00    -0.271 OA
HETATM    7  N   UNL     1      39.609 -12.751   5.702  1.00  0.00    -0.290 N 
HETATM    8  N   UNL     1      40.545 -13.654   6.214  1.00  0.00    -0.228 NA
HETATM    9  H   UNL     1      39.172 -12.016   6.252  1.00  0.00     0.183 HD
HETATM   10  C   UNL     1      41.360 -14.066   5.028  1.00  0.00     0.134 C 
HETATM   11  H   UNL     1      40.019 -14.479   6.534  1.00  0.00     0.147 HD
BRANCH  10  12
HETATM   12  C   UNL     1      41.945 -15.462   5.215  1.00  0.00    -0.004 A 
HETATM   13  C   UNL     1      41.180 -16.520   5.743  1.00  0.00     0.073 A 
HETATM   14  C   UNL     1      41.718 -17.794   5.924  1.00  0.00     0.037 A 
HETATM   15  C   UNL     1      43.046 -18.043   5.596  1.00  0.00     0.003 A 
HETATM   16  C   UNL     1      43.836 -17.012   5.102  1.00  0.00     0.001 A 
HETATM   17  C   UNL     1      43.293 -15.735   4.921  1.00  0.00     0.012 A 
BRANCH  13  18
HETATM   18  O   UNL     1      39.869 -16.376   6.106  1.00  0.00    -0.360 OA
HETATM   19  H   UNL     1      39.662 -17.025   6.806  1.00  0.00     0.217 HD
ENDBRANCH  13  18
ENDBRANCH  10  12
ENDBRANCH   2   4
BRANCH   1  20
HETATM   20  C   UNL     1      41.637 -13.817   0.196  1.00  0.00     0.164 C 
BRANCH  20  21
HETATM   21  C   UNL     1      40.674 -14.175  -0.914  1.00  0.00    -0.040 A 
HETATM   22  C   UNL     1      41.059 -15.052  -1.938  1.00  0.00     0.009 A 
HETATM   23  C   UNL     1      40.174 -15.365  -2.971  1.00  0.00     0.001 A 
HETATM   24  C   UNL     1      38.896 -14.809  -2.989  1.00  0.00     0.000 A 
HETATM   25  C   UNL     1      38.499 -13.943  -1.972  1.00  0.00     0.001 A 
HETATM   26  C   UNL     1      39.381 -13.629  -0.937  1.00  0.00     0.009 A 
ENDBRANCH  20  21
ENDBRANCH   1  20
BRANCH   1  27
HETATM   27  C   UNL     1      40.787 -15.766   1.535  1.00  0.00     0.164 C 
BRANCH  27  28
HETATM   28  C   UNL     1      41.901 -16.787   1.615  1.00  0.00    -0.040 A 
HETATM   29  C   UNL     1      43.233 -16.435   1.344  1.00  0.00     0.009 A 
HETATM   30  C   UNL     1      44.253 -17.381   1.445  1.00  0.00     0.001 A 
HETATM   31  C   UNL     1      43.958 -18.687   1.831  1.00  0.00     0.000 A 
HETATM   32  C   UNL     1      42.642 -19.047   2.118  1.00  0.00     0.001 A 
HETATM   33  C   UNL     1      41.620 -18.102   2.016  1.00  0.00     0.009 A 
ENDBRANCH  27  28
ENDBRANCH   1  27
TORSDOF 7
ENDMDL
MODEL 3
REMARK VINA RESULT:      -8.6      2.610      5.021
REMARK  7 active torsions:
REMARK  status: ('A' for Active; 'I' for Inactive)
REMARK    1  A    between atoms: C_4  and  C_5 
REMARK    2  A    between atoms: C_5  and  N_6 
REMARK       I    between atoms: N_6  and  C_7 
REMARK    3  A    between atoms: N_6  and  C_22 
REMARK    4  A    between atoms: C_7  and  C_8 
REMARK    5  A    between atoms: C_13  and  C_14 
REMARK    6  A    between atoms: C_15  and  O_16 
REMARK    7  A    between atoms: C_22  and  C_23 
ROOT
HETATM    1  N   UNL     1      41.903 -16.386   4.044  1.00  0.00    -0.343 N 
HETATM    2  C   UNL     1      41.974 -15.791   5.302  1.00  0.00     0.235 C 
HETATM    3  O   UNL     1      41.542 -16.369   6.303  1.00  0.00    -0.272 OA
ENDROOT
BRANCH   2   4
HETATM    4  C   UNL     1      42.632 -14.431   5.458  1.00  0.00     0.195 C 
HETATM    5  C   UNL     1      43.666 -14.458   6.543  1.00  0.00     0.247 C 
HETATM    6  O   UNL     1      44.489 -15.332   6.756  1.00  0.00    -0.271 OA
HETATM    7  N   UNL     1      43.590 -13.253   7.213  1.00  0.00    -0.290 N 
HETATM    8  N   UNL     1      42.518 -12.453   6.807  1.00  0.00    -0.228 NA
HETATM    9  H   UNL     1      44.138 -13.084   8.053  1.00  0.00     0.183 HD
HETATM   10  C   UNL     1      41.653 -13.364   5.995  1.00  0.00     0.134 C 
HETATM   11  H   UNL     1      42.904 -11.739   6.173  1.00  0.00     0.147 HD
BRANCH  10  12
HETATM   12  C   UNL     1      40.850 -12.586   4.958  1.00  0.00    -0.004 A 
HETATM   13  C   UNL     1      39.464 -12.379   5.098  1.00  0.00     0.073 A 
HETATM   14  C   UNL     1      38.727 -11.677   4.144  1.00  0.00     0.037 A 
HETATM   15  C   UNL     1      39.355 -11.174   3.010  1.00  0.00     0.003 A 
HETATM   16  C   UNL     1      40.716 -11.388   2.828  1.00  0.00     0.001 A 
HETATM   17  C   UNL     1      41.452 -12.092   3.787  1.00  0.00     0.012 A 
BRANCH  13  18
HETATM   18  O   UNL     1      38.752 -12.842   6.171  1.00  0.00    -0.360 OA
HETATM   19  H   UNL     1      37.840 -12.493   6.119  1.00  0.00     0.217 HD
ENDBRANCH  13  18
ENDBRANCH  10  12
ENDBRANCH   2   4
BRANCH   1  20
HETATM   20  C   UNL     1      41.589 -17.826   4.002  1.00  0.00     0.164 C 
BRANCH  20  21
HETATM   21  C   UNL     1      42.819 -18.695   3.854  1.00  0.00    -0.040 A 
HETATM   22  C   UNL     1      43.157 -19.248   2.611  1.00  0.00     0.009 A 
HETATM   23  C   UNL     1      44.281 -20.066   2.483  1.00  0.00     0.001 A 
HETATM   24  C   UNL     1      45.079 -20.334   3.593  1.00  0.00     0.000 A 
HETATM   25  C   UNL     1      44.759 -19.783   4.832  1.00  0.00     0.001 A 
HETATM   26  C   UNL     1      43.636 -18.964   4.962  1.00  0.00     0.009 A 
ENDBRANCH  20  21
ENDBRANCH   1  20
BRANCH   1  27
HETATM   27  C   UNL     1      42.309 -15.751   2.780  1.00  0.00     0.164 C 
BRANCH  27  28
HETATM   28  C   UNL     1      41.170 -15.160   1.976  1.00  0.00    -0.040 A 
HETATM   29  C   UNL     1      39.845 -15.226   2.434  1.00  0.00     0.009 A 
HETATM   30  C   UNL     1      38.808 -14.656   1.694  1.00  0.00     0.001 A 
HETATM   31  C   UNL     1      39.085 -14.002   0.495  1.00  0.00     0.000 A 
HETATM   32  C   UNL     1      40.398 -13.916   0.037  1.00  0.00     0.001 A 
HETATM   33  C   UNL     1      41.436 -14.487   0.775  1.00  0.00     0.009 A 
ENDBRANCH  27  28
ENDBRANCH   1  27
TORSDOF 7
ENDMDL
MODEL 4
REMARK VINA RESULT:      -8.4      2.239      5.248
REMARK  7 active torsions:
REMARK  status: ('A' for Active; 'I' for Inactive)
REMARK    1  A    between atoms: C_4  and  C_5 
REMARK    2  A    between atoms: C_5  and  N_6 
REMARK       I    between atoms: N_6  and  C_7 
REMARK    3  A    between atoms: N_6  and  C_22 
REMARK    4  A    between atoms: C_7  and  C_8 
REMARK    5  A    between atoms: C_13  and  C_14 
REMARK    6  A    between atoms: C_15  and  O_16 
REMARK    7  A    between atoms: C_22  and  C_23 
ROOT
HETATM    1  N   UNL     1      42.443 -17.241   3.773  1.00  0.00    -0.343 N 
HETATM    2  C   UNL     1      41.820 -16.015   3.556  1.00  0.00     0.235 C 
HETATM    3  O   UNL     1      40.684 -15.795   3.985  1.00  0.00    -0.272 OA
ENDROOT
BRANCH   2   4
HETATM    4  C   UNL     1      42.560 -14.911   2.821  1.00  0.00     0.195 C 
HETATM    5  C   UNL     1      43.207 -13.964   3.787  1.00  0.00     0.247 C 
HETATM    6  O   UNL     1      43.814 -14.251   4.804  1.00  0.00    -0.271 OA
HETATM    7  N   UNL     1      43.078 -12.693   3.265  1.00  0.00    -0.290 N 
HETATM    8  N   UNL     1      42.285 -12.636   2.116  1.00  0.00    -0.228 NA
HETATM    9  H   UNL     1      43.363 -11.875   3.798  1.00  0.00     0.183 HD
HETATM   10  C   UNL     1      41.601 -13.965   2.063  1.00  0.00     0.134 C 
HETATM   11  H   UNL     1      42.928 -12.582   1.313  1.00  0.00     0.147 HD
BRANCH  10  12
HETATM   12  C   UNL     1      41.249 -14.351   0.630  1.00  0.00    -0.004 A 
HETATM   13  C   UNL     1      40.523 -13.487  -0.212  1.00  0.00     0.073 A 
HETATM   14  C   UNL     1      40.192 -13.843  -1.519  1.00  0.00     0.037 A 
HETATM   15  C   UNL     1      40.565 -15.087  -2.018  1.00  0.00     0.003 A 
HETATM   16  C   UNL     1      41.257 -15.974  -1.202  1.00  0.00     0.001 A 
HETATM   17  C   UNL     1      41.587 -15.613   0.108  1.00  0.00     0.012 A 
BRANCH  13  18
HETATM   18  O   UNL     1      40.101 -12.248   0.187  1.00  0.00    -0.360 OA
HETATM   19  H   UNL     1      40.195 -12.179   1.157  1.00  0.00     0.217 HD
ENDBRANCH  13  18
ENDBRANCH  10  12
ENDBRANCH   2   4
BRANCH   1  20
HETATM   20  C   UNL     1      41.838 -18.132   4.779  1.00  0.00     0.164 C 
BRANCH  20  21
HETATM   21  C   UNL     1      42.578 -18.122   6.099  1.00  0.00    -0.040 A 
HETATM   22  C   UNL     1      42.624 -16.961   6.883  1.00  0.00     0.009 A 
HETATM   23  C   UNL     1      43.324 -16.951   8.091  1.00  0.00     0.001 A 
HETATM   24  C   UNL     1      43.979 -18.100   8.528  1.00  0.00     0.000 A 
HETATM   25  C   UNL     1      43.933 -19.263   7.762  1.00  0.00     0.001 A 
HETATM   26  C   UNL     1      43.233 -19.276   6.554  1.00  0.00     0.009 A 
ENDBRANCH  20  21
ENDBRANCH   1  20
BRANCH   1  27
HETATM   27  C   UNL     1      43.755 -17.634   3.232  1.00  0.00     0.164 C 
BRANCH  27  28
HETATM   28  C   UNL     1      43.907 -19.114   2.955  1.00  0.00    -0.040 A 
HETATM   29  C   UNL     1      43.177 -19.743   1.933  1.00  0.00     0.009 A 
HETATM   30  C   UNL     1      43.345 -21.103   1.674  1.00  0.00     0.001 A 
HETATM   31  C   UNL     1      44.252 -21.850   2.423  1.00  0.00     0.000 A 
HETATM   32  C   UNL     1      44.994 -21.236   3.430  1.00  0.00     0.001 A 
HETATM   33  C   UNL     1      44.826 -19.875   3.692  1.00  0.00     0.009 A 
ENDBRANCH  27  28
ENDBRANCH   1  27
TORSDOF 7
ENDMDL
MODEL 5
REMARK VINA RESULT:      -8.3      3.284      6.885
REMARK  7 active torsions:
REMARK  status: ('A' for Active; 'I' for Inactive)
REMARK    1  A    between atoms: C_4  and  C_5 
REMARK    2  A    between atoms: C_5  and  N_6 
REMARK       I    between atoms: N_6  and  C_7 
REMARK    3  A    between atoms: N_6  and  C_22 
REMARK    4  A    between atoms: C_7  and  C_8 
REMARK    5  A    between atoms: C_13  and  C_14 
REMARK    6  A    between atoms: C_15  and  O_16 
REMARK    7  A    between atoms: C_22  and  C_23 
ROOT
HETATM    1  N   UNL     1      40.565 -12.373   2.135  1.00  0.00    -0.343 N 
HETATM    2  C   UNL     1      40.803 -12.327   3.507  1.00  0.00     0.235 C 
HETATM    3  O   UNL     1      41.608 -11.523   3.985  1.00  0.00    -0.272 OA
ENDROOT
BRANCH   2   4
HETATM    4  C   UNL     1      40.030 -13.244   4.438  1.00  0.00     0.195 C 
HETATM    5  C   UNL     1      39.096 -12.459   5.309  1.00  0.00     0.247 C 
HETATM    6  O   UNL     1      38.382 -11.529   4.975  1.00  0.00    -0.271 OA
HETATM    7  N   UNL     1      39.109 -13.046   6.559  1.00  0.00    -0.290 N 
HETATM    8  N   UNL     1      40.060 -14.061   6.692  1.00  0.00    -0.228 NA
HETATM    9  H   UNL     1      38.617 -12.623   7.343  1.00  0.00     0.183 HD
HETATM   10  C   UNL     1      40.941 -13.912   5.493  1.00  0.00     0.134 C 
HETATM   11  H   UNL     1      39.556 -14.954   6.603  1.00  0.00     0.147 HD
BRANCH  10  12
HETATM   12  C   UNL     1      41.577 -15.243   5.104  1.00  0.00    -0.004 A 
HETATM   13  C   UNL     1      41.037 -16.472   5.525  1.00  0.00     0.073 A 
HETATM   14  C   UNL     1      41.624 -17.689   5.179  1.00  0.00     0.037 A 
HETATM   15  C   UNL     1      42.783 -17.710   4.411  1.00  0.00     0.003 A 
HETATM   16  C   UNL     1      43.359 -16.512   4.005  1.00  0.00     0.001 A 
HETATM   17  C   UNL     1      42.766 -15.294   4.354  1.00  0.00     0.012 A 
BRANCH  13  18
HETATM   18  O   UNL     1      39.906 -16.560   6.291  1.00  0.00    -0.360 OA
HETATM   19  H   UNL     1      39.643 -15.661   6.571  1.00  0.00     0.217 HD
ENDBRANCH  13  18
ENDBRANCH  10  12
ENDBRANCH   2   4
BRANCH   1  20
HETATM   20  C   UNL     1      41.062 -11.242   1.331  1.00  0.00     0.164 C 
BRANCH  20  21
HETATM   21  C   UNL     1      41.258 -11.594  -0.128  1.00  0.00    -0.040 A 
HETATM   22  C   UNL     1      40.174 -11.577  -1.017  1.00  0.00     0.009 A 
HETATM   23  C   UNL     1      40.355 -11.921  -2.358  1.00  0.00     0.001 A 
HETATM   24  C   UNL     1      41.618 -12.280  -2.823  1.00  0.00     0.000 A 
HETATM   25  C   UNL     1      42.704 -12.292  -1.950  1.00  0.00     0.001 A 
HETATM   26  C   UNL     1      42.527 -11.948  -0.609  1.00  0.00     0.009 A 
ENDBRANCH  20  21
ENDBRANCH   1  20
BRANCH   1  27
HETATM   27  C   UNL     1      39.694 -13.346   1.457  1.00  0.00     0.164 C 
BRANCH  27  28
HETATM   28  C   UNL     1      40.265 -14.744   1.357  1.00  0.00    -0.040 A 
HETATM   29  C   UNL     1      39.654 -15.829   2.007  1.00  0.00     0.009 A 
HETATM   30  C   UNL     1      40.180 -17.116   1.887  1.00  0.00     0.001 A 
HETATM   31  C   UNL     1      41.313 -17.338   1.106  1.00  0.00     0.000 A 
HETATM   32  C   UNL     1      41.919 -16.273   0.443  1.00  0.00     0.001 A 
HETATM   33  C   UNL     1      41.397 -14.984   0.564  1.00  0.00     0.009 A 
ENDBRANCH  27  28
ENDBRANCH   1  27
TORSDOF 7
ENDMDL
MODEL 6
REMARK VINA RESULT:      -8.2      1.824      3.885
REMARK  7 active torsions:
REMARK  status: ('A' for Active; 'I' for Inactive)
REMARK    1  A    between atoms: C_4  and  C_5 
REMARK    2  A    between atoms: C_5  and  N_6 
REMARK       I    between atoms: N_6  and  C_7 
REMARK    3  A    between atoms: N_6  and  C_22 
REMARK    4  A    between atoms: C_7  and  C_8 
REMARK    5  A    between atoms: C_13  and  C_14 
REMARK    6  A    between atoms: C_15  and  O_16 
REMARK    7  A    between atoms: C_22  and  C_23 
ROOT
HETATM    1  N   UNL     1      42.572 -15.964   4.448  1.00  0.00    -0.343 N 
HETATM    2  C   UNL     1      42.658 -16.016   3.059  1.00  0.00     0.235 C 
HETATM    3  O   UNL     1      43.753 -16.059   2.491  1.00  0.00    -0.272 OA
ENDROOT
BRANCH   2   4
HETATM    4  C   UNL     1      41.390 -16.067   2.225  1.00  0.00     0.195 C 
HETATM    5  C   UNL     1      41.400 -17.253   1.307  1.00  0.00     0.247 C 
HETATM    6  O   UNL     1      41.756 -18.388   1.573  1.00  0.00    -0.271 OA
HETATM    7  N   UNL     1      40.834 -16.852   0.113  1.00  0.00    -0.290 N 
HETATM    8  N   UNL     1      40.567 -15.482   0.051  1.00  0.00    -0.228 NA
HETATM    9  H   UNL     1      40.821 -17.470  -0.695  1.00  0.00     0.183 HD
HETATM   10  C   UNL     1      41.303 -14.900   1.216  1.00  0.00     0.134 C 
HETATM   11  H   UNL     1      39.559 -15.368   0.228  1.00  0.00     0.147 HD
BRANCH  10  12
HETATM   12  C   UNL     1      40.638 -13.618   1.708  1.00  0.00    -0.004 A 
HETATM   13  C   UNL     1      41.381 -12.449   1.957  1.00  0.00     0.073 A 
HETATM   14  C   UNL     1      40.776 -11.279   2.416  1.00  0.00     0.037 A 
HETATM   15  C   UNL     1      39.406 -11.251   2.656  1.00  0.00     0.003 A 
HETATM   16  C   UNL     1      38.650 -12.398   2.448  1.00  0.00     0.001 A 
HETATM   17  C   UNL     1      39.260 -13.569   1.987  1.00  0.00     0.012 A 
BRANCH  13  18
HETATM   18  O   UNL     1      42.734 -12.376   1.763  1.00  0.00    -0.360 OA
HETATM   19  H   UNL     1      43.093 -11.650   2.310  1.00  0.00     0.217 HD
ENDBRANCH  13  18
ENDBRANCH  10  12
ENDBRANCH   2   4
BRANCH   1  20
HETATM   20  C   UNL     1      43.797 -16.273   5.207  1.00  0.00     0.164 C 
BRANCH  20  21
HETATM   21  C   UNL     1      43.893 -17.728   5.609  1.00  0.00    -0.040 A 
HETATM   22  C   UNL     1      44.282 -18.702   4.678  1.00  0.00     0.009 A 
HETATM   23  C   UNL     1      44.351 -20.046   5.047  1.00  0.00     0.001 A 
HETATM   24  C   UNL     1      44.037 -20.430   6.349  1.00  0.00     0.000 A 
HETATM   25  C   UNL     1      43.658 -19.470   7.286  1.00  0.00     0.001 A 
HETATM   26  C   UNL     1      43.589 -18.125   6.920  1.00  0.00     0.009 A 
ENDBRANCH  20  21
ENDBRANCH   1  20
BRANCH   1  27
HETATM   27  C   UNL     1      41.325 -15.824   5.217  1.00  0.00     0.164 C 
BRANCH  27  28
HETATM   28  C   UNL     1      40.923 -14.396   5.515  1.00  0.00    -0.040 A 
HETATM   29  C   UNL     1      39.581 -14.048   5.739  1.00  0.00     0.009 A 
HETATM   30  C   UNL     1      39.228 -12.731   6.036  1.00  0.00     0.001 A 
HETATM   31  C   UNL     1      40.212 -11.749   6.126  1.00  0.00     0.000 A 
HETATM   32  C   UNL     1      41.550 -12.083   5.922  1.00  0.00     0.001 A 
HETATM   33  C   UNL     1      41.904 -13.399   5.622  1.00  0.00     0.009 A 
ENDBRANCH  27  28
ENDBRANCH   1  27
TORSDOF 7
ENDMDL
MODEL 7
REMARK VINA RESULT:      -8.2      2.644      7.560
REMARK  7 active torsions:
REMARK  status: ('A' for Active; 'I' for Inactive)
REMARK    1  A    between atoms: C_4  and  C_5 
REMARK    2  A    between atoms: C_5  and  N_6 
REMARK       I    between atoms: N_6  and  C_7 
REMARK    3  A    between atoms: N_6  and  C_22 
REMARK    4  A    between atoms: C_7  and  C_8 
REMARK    5  A    between atoms: C_13  and  C_14 
REMARK    6  A    between atoms: C_15  and  O_16 
REMARK    7  A    between atoms: C_22  and  C_23 
ROOT
HETATM    1  N   UNL     1      43.345 -15.808   5.167  1.00  0.00    -0.343 N 
HETATM    2  C   UNL     1      44.112 -16.772   5.817  1.00  0.00     0.235 C 
HETATM    3  O   UNL     1      45.292 -16.556   6.106  1.00  0.00    -0.272 OA
ENDROOT
BRANCH   2   4
HETATM    4  C   UNL     1      43.481 -18.092   6.222  1.00  0.00     0.195 C 
HETATM    5  C   UNL     1      43.390 -18.208   7.714  1.00  0.00     0.247 C 
HETATM    6  O   UNL     1      43.053 -17.341   8.501  1.00  0.00    -0.271 OA
HETATM    7  N   UNL     1      43.665 -19.520   8.042  1.00  0.00    -0.290 N 
HETATM    8  N   UNL     1      44.081 -20.295   6.955  1.00  0.00    -0.228 NA
HETATM    9  H   UNL     1      43.753 -19.812   9.012  1.00  0.00     0.183 HD
HETATM   10  C   UNL     1      44.377 -19.302   5.876  1.00  0.00     0.134 C 
HETATM   11  H   UNL     1      43.266 -20.849   6.656  1.00  0.00     0.147 HD
BRANCH  10  12
HETATM   12  C   UNL     1      44.195 -19.917   4.492  1.00  0.00    -0.004 A 
HETATM   13  C   UNL     1      44.677 -21.203   4.184  1.00  0.00     0.073 A 
HETATM   14  C   UNL     1      44.520 -21.762   2.916  1.00  0.00     0.037 A 
HETATM   15  C   UNL     1      43.887 -21.039   1.910  1.00  0.00     0.003 A 
HETATM   16  C   UNL     1      43.427 -19.755   2.174  1.00  0.00     0.001 A 
HETATM   17  C   UNL     1      43.586 -19.198   3.447  1.00  0.00     0.012 A 
BRANCH  13  18
HETATM   18  O   UNL     1      45.322 -21.990   5.099  1.00  0.00    -0.360 OA
HETATM   19  H   UNL     1      46.165 -22.300   4.712  1.00  0.00     0.217 HD
ENDBRANCH  13  18
ENDBRANCH  10  12
ENDBRANCH   2   4
BRANCH   1  20
HETATM   20  C   UNL     1      43.889 -14.439   5.120  1.00  0.00     0.164 C 
BRANCH  20  21
HETATM   21  C   UNL     1      42.813 -13.376   5.070  1.00  0.00    -0.040 A 
HETATM   22  C   UNL     1      42.208 -12.918   6.249  1.00  0.00     0.009 A 
HETATM   23  C   UNL     1      41.202 -11.952   6.197  1.00  0.00     0.001 A 
HETATM   24  C   UNL     1      40.796 -11.430   4.971  1.00  0.00     0.000 A 
HETATM   25  C   UNL     1      41.398 -11.870   3.793  1.00  0.00     0.001 A 
HETATM   26  C   UNL     1      42.404 -12.836   3.842  1.00  0.00     0.009 A 
ENDBRANCH  20  21
ENDBRANCH   1  20
BRANCH   1  27
HETATM   27  C   UNL     1      41.960 -15.995   4.703  1.00  0.00     0.164 C 
BRANCH  27  28
HETATM   28  C   UNL     1      41.827 -16.350   3.238  1.00  0.00    -0.040 A 
HETATM   29  C   UNL     1      40.667 -16.964   2.740  1.00  0.00     0.009 A 
HETATM   30  C   UNL     1      40.549 -17.264   1.382  1.00  0.00     0.001 A 
HETATM   31  C   UNL     1      41.582 -16.942   0.504  1.00  0.00     0.000 A 
HETATM   32  C   UNL     1      42.733 -16.318   0.983  1.00  0.00     0.001 A 
HETATM   33  C   UNL     1      42.853 -16.020   2.341  1.00  0.00     0.009 A 
ENDBRANCH  27  28
ENDBRANCH   1  27
TORSDOF 7
ENDMDL
MODEL 8
REMARK VINA RESULT:      -8.1      2.692      5.900
REMARK  7 active torsions:
REMARK  status: ('A' for Active; 'I' for Inactive)
REMARK    1  A    between atoms: C_4  and  C_5 
REMARK    2  A    between atoms: C_5  and  N_6 
REMARK       I    between atoms: N_6  and  C_7 
REMARK    3  A    between atoms: N_6  and  C_22 
REMARK    4  A    between atoms: C_7  and  C_8 
REMARK    5  A    between atoms: C_13  and  C_14 
REMARK    6  A    between atoms: C_15  and  O_16 
REMARK    7  A    between atoms: C_22  and  C_23 
ROOT
HETATM    1  N   UNL     1      41.441 -15.391   1.804  1.00  0.00    -0.343 N 
HETATM    2  C   UNL     1      41.610 -16.757   2.012  1.00  0.00     0.235 C 
HETATM    3  O   UNL     1      40.683 -17.549   1.818  1.00  0.00    -0.272 OA
ENDROOT
BRANCH   2   4
HETATM    4  C   UNL     1      42.964 -17.294   2.440  1.00  0.00     0.195 C 
HETATM    5  C   UNL     1      43.598 -18.090   1.339  1.00  0.00     0.247 C 
HETATM    6  O   UNL     1      43.631 -17.810   0.153  1.00  0.00    -0.271 OA
HETATM    7  N   UNL     1      44.236 -19.165   1.923  1.00  0.00    -0.290 N 
HETATM    8  N   UNL     1      43.992 -19.285   3.294  1.00  0.00    -0.228 NA
HETATM    9  H   UNL     1      44.659 -19.897   1.357  1.00  0.00     0.183 HD
HETATM   10  C   UNL     1      42.849 -18.357   3.556  1.00  0.00     0.134 C 
HETATM   11  H   UNL     1      44.819 -18.908   3.777  1.00  0.00     0.147 HD
BRANCH  10  12
HETATM   12  C   UNL     1      42.867 -17.846   4.993  1.00  0.00    -0.004 A 
HETATM   13  C   UNL     1      41.693 -17.419   5.642  1.00  0.00     0.073 A 
HETATM   14  C   UNL     1      41.711 -16.942   6.953  1.00  0.00     0.037 A 
HETATM   15  C   UNL     1      42.912 -16.863   7.649  1.00  0.00     0.003 A 
HETATM   16  C   UNL     1      44.093 -17.249   7.026  1.00  0.00     0.001 A 
HETATM   17  C   UNL     1      44.071 -17.727   5.712  1.00  0.00     0.012 A 
BRANCH  13  18
HETATM   18  O   UNL     1      40.464 -17.446   5.041  1.00  0.00    -0.360 OA
HETATM   19  H   UNL     1      39.790 -17.157   5.687  1.00  0.00     0.217 HD
ENDBRANCH  13  18
ENDBRANCH  10  12
ENDBRANCH   2   4
BRANCH   1  20
HETATM   20  C   UNL     1      40.241 -14.970   1.059  1.00  0.00     0.164 C 
BRANCH  20  21
HETATM   21  C   UNL     1      40.523 -14.669  -0.397  1.00  0.00    -0.040 A 
HETATM   22  C   UNL     1      40.946 -15.684  -1.267  1.00  0.00     0.009 A 
HETATM   23  C   UNL     1      41.225 -15.399  -2.604  1.00  0.00     0.001 A 
HETATM   24  C   UNL     1      41.078 -14.100  -3.086  1.00  0.00     0.000 A 
HETATM   25  C   UNL     1      40.649 -13.084  -2.234  1.00  0.00     0.001 A 
HETATM   26  C   UNL     1      40.369 -13.367  -0.896  1.00  0.00     0.009 A 
ENDBRANCH  20  21
ENDBRANCH   1  20
BRANCH   1  27
HETATM   27  C   UNL     1      42.450 -14.357   2.087  1.00  0.00     0.164 C 
BRANCH  27  28
HETATM   28  C   UNL     1      42.625 -14.030   3.554  1.00  0.00    -0.040 A 
HETATM   29  C   UNL     1      41.533 -13.645   4.349  1.00  0.00     0.009 A 
HETATM   30  C   UNL     1      41.705 -13.368   5.706  1.00  0.00     0.001 A 
HETATM   31  C   UNL     1      42.965 -13.487   6.288  1.00  0.00     0.000 A 
HETATM   32  C   UNL     1      44.054 -13.884   5.514  1.00  0.00     0.001 A 
HETATM   33  C   UNL     1      43.885 -14.158   4.156  1.00  0.00     0.009 A 
ENDBRANCH  27  28
ENDBRANCH   1  27
TORSDOF 7
ENDMDL
MODEL 9
REMARK VINA RESULT:      -7.9      2.923      5.749
REMARK  7 active torsions:
REMARK  status: ('A' for Active; 'I' for Inactive)
REMARK    1  A    between atoms: C_4  and  C_5 
REMARK    2  A    between atoms: C_5  and  N_6 
REMARK       I    between atoms: N_6  and  C_7 
REMARK    3  A    between atoms: N_6  and  C_22 
REMARK    4  A    between atoms: C_7  and  C_8 
REMARK    5  A    between atoms: C_13  and  C_14 
REMARK    6  A    between atoms: C_15  and  O_16 
REMARK    7  A    between atoms: C_22  and  C_23 
ROOT
HETATM    1  N   UNL     1      41.881 -16.306   2.719  1.00  0.00    -0.343 N 
HETATM    2  C   UNL     1      41.158 -15.234   2.200  1.00  0.00     0.235 C 
HETATM    3  O   UNL     1      39.982 -15.045   2.524  1.00  0.00    -0.272 OA
ENDROOT
BRANCH   2   4
HETATM    4  C   UNL     1      41.833 -14.253   1.258  1.00  0.00     0.195 C 
HETATM    5  C   UNL     1      42.433 -13.108   2.017  1.00  0.00     0.247 C 
HETATM    6  O   UNL     1      43.061 -13.163   3.060  1.00  0.00    -0.271 OA
HETATM    7  N   UNL     1      42.234 -11.967   1.265  1.00  0.00    -0.290 N 
HETATM    8  N   UNL     1      41.432 -12.172   0.138  1.00  0.00    -0.228 NA
HETATM    9  H   UNL     1      42.477 -11.049   1.629  1.00  0.00     0.183 HD
HETATM   10  C   UNL     1      40.821 -13.520   0.349  1.00  0.00     0.134 C 
HETATM   11  H   UNL     1      42.067 -12.238  -0.670  1.00  0.00     0.147 HD
BRANCH  10  12
HETATM   12  C   UNL     1      40.483 -14.190  -0.979  1.00  0.00    -0.004 A 
HETATM   13  C   UNL     1      39.429 -13.730  -1.792  1.00  0.00     0.073 A 
HETATM   14  C   UNL     1      39.112 -14.348  -3.001  1.00  0.00     0.037 A 
HETATM   15  C   UNL     1      39.834 -15.458  -3.427  1.00  0.00     0.003 A 
HETATM   16  C   UNL     1      40.861 -15.955  -2.632  1.00  0.00     0.001 A 
HETATM   17  C   UNL     1      41.175 -15.332  -1.420  1.00  0.00     0.012 A 
BRANCH  13  18
HETATM   18  O   UNL     1      38.653 -12.653  -1.459  1.00  0.00    -0.360 OA
HETATM   19  H   UNL     1      37.795 -12.727  -1.921  1.00  0.00     0.217 HD
ENDBRANCH  13  18
ENDBRANCH  10  12
ENDBRANCH   2   4
BRANCH   1  20
HETATM   20  C   UNL     1      41.303 -17.004   3.881  1.00  0.00     0.164 C 
BRANCH  20  21
HETATM   21  C   UNL     1      42.072 -16.760   5.161  1.00  0.00    -0.040 A 
HETATM   22  C   UNL     1      42.771 -15.560   5.356  1.00  0.00     0.009 A 
HETATM   23  C   UNL     1      43.495 -15.347   6.530  1.00  0.00     0.001 A 
HETATM   24  C   UNL     1      43.524 -16.326   7.521  1.00  0.00     0.000 A 
HETATM   25  C   UNL     1      42.826 -17.519   7.342  1.00  0.00     0.001 A 
HETATM   26  C   UNL     1      42.100 -17.735   6.170  1.00  0.00     0.009 A 
ENDBRANCH  20  21
ENDBRANCH   1  20
BRANCH   1  27
HETATM   27  C   UNL     1      43.255 -16.669   2.334  1.00  0.00     0.164 C 
BRANCH  27  28
HETATM   28  C   UNL     1      43.593 -18.134   2.504  1.00  0.00    -0.040 A 
HETATM   29  C   UNL     1      44.431 -18.573   3.542  1.00  0.00     0.009 A 
HETATM   30  C   UNL     1      44.715 -19.930   3.700  1.00  0.00     0.001 A 
HETATM   31  C   UNL     1      44.153 -20.866   2.834  1.00  0.00     0.000 A 
HETATM   32  C   UNL     1      43.306 -20.446   1.810  1.00  0.00     0.001 A 
HETATM   33  C   UNL     1      43.023 -19.088   1.649  1.00  0.00     0.009 A 
ENDBRANCH  27  28
ENDBRANCH   1  27
TORSDOF 7
ENDMDL
MODEL 10
REMARK VINA RESULT:      -7.9      2.570      5.121
REMARK  7 active torsions:
REMARK  status: ('A' for Active; 'I' for Inactive)
REMARK    1  A    between atoms: C_4  and  C_5 
REMARK    2  A    between atoms: C_5  and  N_6 
REMARK       I    between atoms: N_6  and  C_7 
REMARK    3  A    between atoms: N_6  and  C_22 
REMARK    4  A    between atoms: C_7  and  C_8 
REMARK    5  A    between atoms: C_13  and  C_14 
REMARK    6  A    between atoms: C_15  and  O_16 
REMARK    7  A    between atoms: C_22  and  C_23 
ROOT
HETATM    1  N   UNL     1      41.749 -15.011   5.231  1.00  0.00    -0.343 N 
HETATM    2  C   UNL     1      41.005 -13.851   5.436  1.00  0.00     0.235 C 
HETATM    3  O   UNL     1      40.132 -13.801   6.307  1.00  0.00    -0.272 OA
ENDROOT
BRANCH   2   4
HETATM    4  C   UNL     1      41.298 -12.611   4.610  1.00  0.00     0.195 C 
HETATM    5  C   UNL     1      41.351 -11.389   5.478  1.00  0.00     0.247 C 
HETATM    6  O   UNL     1      41.883 -11.283   6.570  1.00  0.00    -0.271 OA
HETATM    7  N   UNL     1      40.767 -10.357   4.771  1.00  0.00    -0.290 N 
HETATM    8  N   UNL     1      40.183 -10.762   3.567  1.00  0.00    -0.228 NA
HETATM    9  H   UNL     1      40.606  -9.450   5.202  1.00  0.00     0.183 HD
HETATM   10  C   UNL     1      40.139 -12.255   3.653  1.00  0.00     0.134 C 
HETATM   11  H   UNL     1      40.842 -10.510   2.818  1.00  0.00     0.147 HD
BRANCH  10  12
HETATM   12  C   UNL     1      40.176 -12.891   2.267  1.00  0.00    -0.004 A 
HETATM   13  C   UNL     1      41.318 -12.814   1.448  1.00  0.00     0.073 A 
HETATM   14  C   UNL     1      41.349 -13.386   0.176  1.00  0.00     0.037 A 
HETATM   15  C   UNL     1      40.227 -14.040  -0.322  1.00  0.00     0.003 A 
HETATM   16  C   UNL     1      39.073 -14.106   0.451  1.00  0.00     0.001 A 
HETATM   17  C   UNL     1      39.047 -13.532   1.726  1.00  0.00     0.012 A 
BRANCH  13  18
HETATM   18  O   UNL     1      42.468 -12.185   1.839  1.00  0.00    -0.360 OA
HETATM   19  H   UNL     1      42.742 -12.538   2.709  1.00  0.00     0.217 HD
ENDBRANCH  13  18
ENDBRANCH  10  12
ENDBRANCH   2   4
BRANCH   1  20
HETATM   20  C   UNL     1      41.674 -16.047   6.277  1.00  0.00     0.164 C 
BRANCH  20  21
HETATM   21  C   UNL     1      42.787 -17.067   6.180  1.00  0.00    -0.040 A 
HETATM   22  C   UNL     1      42.564 -18.312   5.575  1.00  0.00     0.009 A 
HETATM   23  C   UNL     1      43.588 -19.258   5.506  1.00  0.00     0.001 A 
HETATM   24  C   UNL     1      44.845 -18.967   6.033  1.00  0.00     0.000 A 
HETATM   25  C   UNL     1      45.081 -17.729   6.628  1.00  0.00     0.001 A 
HETATM   26  C   UNL     1      44.059 -16.782   6.699  1.00  0.00     0.009 A 
ENDBRANCH  20  21
ENDBRANCH   1  20
BRANCH   1  27
HETATM   27  C   UNL     1      42.749 -15.202   4.168  1.00  0.00     0.164 C 
BRANCH  27  28
HETATM   28  C   UNL     1      42.258 -15.993   2.974  1.00  0.00    -0.040 A 
HETATM   29  C   UNL     1      40.930 -16.442   2.894  1.00  0.00     0.009 A 
HETATM   30  C   UNL     1      40.486 -17.150   1.777  1.00  0.00     0.001 A 
HETATM   31  C   UNL     1      41.358 -17.406   0.720  1.00  0.00     0.000 A 
HETATM   32  C   UNL     1      42.674 -16.952   0.780  1.00  0.00     0.001 A 
HETATM   33  C   UNL     1      43.121 -16.245   1.898  1.00  0.00     0.009 A 
ENDBRANCH  27  28
ENDBRANCH   1  27
TORSDOF 7
ENDMDL
