MODEL 1
REMARK VINA RESULT:      -9.0      0.000      0.000
REMARK  3 active torsions:
REMARK  status: ('A' for Active; 'I' for Inactive)
REMARK    1  A    between atoms: C_9  and  C_10 
REMARK       I    between atoms: C_10  and  N_11 
REMARK    2  A    between atoms: N_11  and  C_12 
REMARK    3  A    between atoms: C_12  and  C_13 
ROOT
HETATM    1  C   UNL     1      41.765 -16.833   3.353  1.00  0.00     0.273 C 
HETATM    2  N   UNL     1      41.964 -15.471   3.377  1.00  0.00    -0.347 N 
HETATM    3  O   UNL     1      40.790 -17.364   2.827  1.00  0.00    -0.266 OA
HETATM    4  H   UNL     1      42.785 -15.170   3.895  1.00  0.00     0.163 HD
ENDROOT
BRANCH   2   5
HETATM    5  C   UNL     1      40.965 -14.521   2.937  1.00  0.00     0.114 C 
HETATM    6  C   UNL     1      40.927 -13.292   3.850  1.00  0.00     0.037 C 
BRANCH   5   7
HETATM    7  C   UNL     1      41.201 -14.108   1.494  1.00  0.00    -0.034 A 
HETATM    8  C   UNL     1      40.682 -14.892   0.449  1.00  0.00     0.041 A 
HETATM    9  C   UNL     1      40.857 -14.503  -0.881  1.00  0.00     0.069 A 
HETATM   10  C   UNL     1      41.555 -13.336  -1.190  1.00  0.00     0.096 A 
HETATM   11  N   UNL     1      40.299 -15.277  -1.898  1.00  0.00    -0.323 N 
HETATM   12  O   UNL     1      41.738 -12.867  -2.460  1.00  0.00    -0.340 OA
HETATM   13  C   UNL     1      42.069 -12.548  -0.163  1.00  0.00     0.040 A 
HETATM   14  C   UNL     1      41.391 -13.776  -3.493  1.00  0.00     0.278 C 
HETATM   15  C   UNL     1      40.467 -14.961  -3.215  1.00  0.00     0.246 C 
HETATM   16  O   UNL     1      39.944 -15.628  -4.105  1.00  0.00    -0.271 OA
HETATM   17  C   UNL     1      41.892 -12.927   1.169  1.00  0.00     0.012 A 
HETATM   18  H   UNL     1      39.733 -16.088  -1.689  1.00  0.00     0.169 HD
ENDBRANCH   5   7
ENDBRANCH   2   5
BRANCH   1  19
HETATM   19  C   UNL     1      42.826 -17.581   4.045  1.00  0.00     0.157 A 
HETATM   20  C   UNL     1      43.421 -18.815   3.646  1.00  0.00     0.029 A 
HETATM   21  C   UNL     1      43.281 -19.708   2.565  1.00  0.00     0.023 A 
HETATM   22  C   UNL     1      44.341 -19.111   4.643  1.00  0.00     0.063 A 
HETATM   23  C   UNL     1      44.067 -20.872   2.522  1.00  0.00    -0.061 A 
HETATM   24  C   UNL     1      43.935 -21.838   1.380  1.00  0.00     0.048 C 
HETATM   25  C   UNL     1      44.982 -21.132   3.549  1.00  0.00     0.009 A 
HETATM   26  C   UNL     1      45.139 -20.259   4.631  1.00  0.00     0.032 A 
HETATM   27  N   UNL     1      44.251 -18.081   5.537  1.00  0.00    -0.277 N 
HETATM   28  H   UNL     1      44.781 -17.964   6.392  1.00  0.00     0.189 HD
HETATM   29  N   UNL     1      43.341 -17.143   5.217  1.00  0.00    -0.168 NA
ENDBRANCH   1  19
TORSDOF 3
ENDMDL
MODEL 2
REMARK VINA RESULT:      -8.8      2.518      7.718
REMARK  3 active torsions:
REMARK  status: ('A' for Active; 'I' for Inactive)
REMARK    1  A    between atoms: C_9  and  C_10 
REMARK       I    between atoms: C_10  and  N_11 
REMARK    2  A    between atoms: N_11  and  C_12 
REMARK    3  A    between atoms: C_12  and  C_13 
ROOT
HETATM    1  C   UNL     1      42.158 -14.595   2.439  1.00  0.00     0.273 C 
HETATM    2  N   UNL     1      42.226 -15.747   3.192  1.00  0.00    -0.347 N 
HETATM    3  O   UNL     1      42.994 -13.698   2.501  1.00  0.00    -0.266 OA
HETATM    4  H   UNL     1      41.437 -16.376   3.079  1.00  0.00     0.163 HD
ENDROOT
BRANCH   2   5
HETATM    5  C   UNL     1      43.194 -15.940   4.250  1.00  0.00     0.114 C 
HETATM    6  C   UNL     1      42.646 -15.463   5.598  1.00  0.00     0.037 C 
BRANCH   5   7
HETATM    7  C   UNL     1      43.631 -17.392   4.334  1.00  0.00    -0.034 A 
HETATM    8  C   UNL     1      43.480 -18.233   3.218  1.00  0.00     0.041 A 
HETATM    9  C   UNL     1      43.913 -19.561   3.267  1.00  0.00     0.069 A 
HETATM   10  C   UNL     1      44.494 -20.070   4.428  1.00  0.00     0.096 A 
HETATM   11  N   UNL     1      43.788 -20.363   2.134  1.00  0.00    -0.323 N 
HETATM   12  O   UNL     1      44.976 -21.343   4.547  1.00  0.00    -0.340 OA
HETATM   13  C   UNL     1      44.654 -19.245   5.539  1.00  0.00     0.040 A 
HETATM   14  C   UNL     1      44.624 -22.222   3.490  1.00  0.00     0.278 C 
HETATM   15  C   UNL     1      44.166 -21.675   2.138  1.00  0.00     0.246 C 
HETATM   16  O   UNL     1      44.085 -22.367   1.126  1.00  0.00    -0.271 OA
HETATM   17  C   UNL     1      44.229 -17.916   5.493  1.00  0.00     0.012 A 
HETATM   18  H   UNL     1      43.432 -19.990   1.265  1.00  0.00     0.169 HD
ENDBRANCH   5   7
ENDBRANCH   2   5
BRANCH   1  19
HETATM   19  C   UNL     1      40.966 -14.542   1.578  1.00  0.00     0.157 A 
HETATM   20  C   UNL     1      40.896 -14.116   0.218  1.00  0.00     0.029 A 
HETATM   21  C   UNL     1      41.808 -13.648  -0.748  1.00  0.00     0.023 A 
HETATM   22  C   UNL     1      39.555 -14.228  -0.126  1.00  0.00     0.063 A 
HETATM   23  C   UNL     1      41.344 -13.304  -2.030  1.00  0.00    -0.061 A 
HETATM   24  C   UNL     1      42.297 -12.803  -3.076  1.00  0.00     0.048 C 
HETATM   25  C   UNL     1      39.983 -13.431  -2.334  1.00  0.00     0.009 A 
HETATM   26  C   UNL     1      39.060 -13.895  -1.390  1.00  0.00     0.032 A 
HETATM   27  N   UNL     1      38.931 -14.698   0.996  1.00  0.00    -0.277 N 
HETATM   28  H   UNL     1      37.945 -14.901   1.108  1.00  0.00     0.189 HD
HETATM   29  N   UNL     1      39.746 -14.891   2.048  1.00  0.00    -0.168 NA
ENDBRANCH   1  19
TORSDOF 3
ENDMDL
MODEL 3
REMARK VINA RESULT:      -8.8      2.392      8.040
REMARK  3 active torsions:
REMARK  status: ('A' for Active; 'I' for Inactive)
REMARK    1  A    between atoms: C_9  and  C_10 
REMARK       I    between atoms: C_10  and  N_11 
REMARK    2  A    between atoms: N_11  and  C_12 
REMARK    3  A    between atoms: C_12  and  C_13 
ROOT
HETATM    1  C   UNL     1      42.183 -14.495   1.314  1.00  0.00     0.273 C 
HETATM    2  N   UNL     1      42.208 -15.687   2.004  1.00  0.00    -0.347 N 
HETATM    3  O   UNL     1      42.509 -13.420   1.810  1.00  0.00    -0.266 OA
HETATM    4  H   UNL     1      41.860 -16.487   1.484  1.00  0.00     0.163 HD
ENDROOT
BRANCH   2   5
HETATM    5  C   UNL     1      42.456 -15.767   3.427  1.00  0.00     0.114 C 
HETATM    6  C   UNL     1      41.173 -15.527   4.229  1.00  0.00     0.037 C 
BRANCH   5   7
HETATM    7  C   UNL     1      43.077 -17.102   3.800  1.00  0.00    -0.034 A 
HETATM    8  C   UNL     1      43.110 -18.145   2.858  1.00  0.00     0.041 A 
HETATM    9  C   UNL     1      43.713 -19.366   3.173  1.00  0.00     0.069 A 
HETATM   10  C   UNL     1      44.283 -19.567   4.430  1.00  0.00     0.096 A 
HETATM   11  N   UNL     1      43.767 -20.370   2.208  1.00  0.00    -0.323 N 
HETATM   12  O   UNL     1      44.922 -20.714   4.805  1.00  0.00    -0.340 OA
HETATM   13  C   UNL     1      44.262 -18.539   5.370  1.00  0.00     0.040 A 
HETATM   14  C   UNL     1      44.758 -21.812   3.920  1.00  0.00     0.278 C 
HETATM   15  C   UNL     1      44.315 -21.592   2.474  1.00  0.00     0.246 C 
HETATM   16  O   UNL     1      44.391 -22.461   1.609  1.00  0.00    -0.271 OA
HETATM   17  C   UNL     1      43.666 -17.315   5.059  1.00  0.00     0.012 A 
HETATM   18  H   UNL     1      43.419 -20.217   1.272  1.00  0.00     0.169 HD
ENDBRANCH   5   7
ENDBRANCH   2   5
BRANCH   1  19
HETATM   19  C   UNL     1      41.701 -14.642  -0.069  1.00  0.00     0.157 A 
HETATM   20  C   UNL     1      41.804 -13.694  -1.130  1.00  0.00     0.029 A 
HETATM   21  C   UNL     1      42.348 -12.404  -1.291  1.00  0.00     0.023 A 
HETATM   22  C   UNL     1      41.177 -14.296  -2.213  1.00  0.00     0.063 A 
HETATM   23  C   UNL     1      42.242 -11.758  -2.535  1.00  0.00    -0.061 A 
HETATM   24  C   UNL     1      42.813 -10.383  -2.729  1.00  0.00     0.048 C 
HETATM   25  C   UNL     1      41.601 -12.401  -3.600  1.00  0.00     0.009 A 
HETATM   26  C   UNL     1      41.055 -13.682  -3.463  1.00  0.00     0.032 A 
HETATM   27  N   UNL     1      40.760 -15.516  -1.759  1.00  0.00    -0.277 N 
HETATM   28  H   UNL     1      40.265 -16.227  -2.282  1.00  0.00     0.189 HD
HETATM   29  N   UNL     1      41.049 -15.758  -0.468  1.00  0.00    -0.168 NA
ENDBRANCH   1  19
TORSDOF 3
ENDMDL
MODEL 4
REMARK VINA RESULT:      -8.8      3.323      5.419
REMARK  3 active torsions:
REMARK  status: ('A' for Active; 'I' for Inactive)
REMARK    1  A    between atoms: C_9  and  C_10 
REMARK       I    between atoms: C_10  and  N_11 
REMARK    2  A    between atoms: N_11  and  C_12 
REMARK    3  A    between atoms: C_12  and  C_13 
ROOT
HETATM    1  C   UNL     1      43.357 -16.730   3.327  1.00  0.00     0.273 C 
HETATM    2  N   UNL     1      42.114 -16.260   3.691  1.00  0.00    -0.347 N 
HETATM    3  O   UNL     1      43.995 -16.286   2.375  1.00  0.00    -0.266 OA
HETATM    4  H   UNL     1      41.681 -16.758   4.463  1.00  0.00     0.163 HD
ENDROOT
BRANCH   2   5
HETATM    5  C   UNL     1      41.364 -15.317   2.890  1.00  0.00     0.114 C 
HETATM    6  C   UNL     1      40.058 -15.935   2.382  1.00  0.00     0.037 C 
BRANCH   5   7
HETATM    7  C   UNL     1      41.084 -14.041   3.666  1.00  0.00    -0.034 A 
HETATM    8  C   UNL     1      40.478 -14.112   4.933  1.00  0.00     0.041 A 
HETATM    9  C   UNL     1      40.250 -12.951   5.675  1.00  0.00     0.069 A 
HETATM   10  C   UNL     1      40.615 -11.705   5.166  1.00  0.00     0.096 A 
HETATM   11  N   UNL     1      39.684 -13.052   6.945  1.00  0.00    -0.323 N 
HETATM   12  O   UNL     1      40.461 -10.527   5.841  1.00  0.00    -0.340 OA
HETATM   13  C   UNL     1      41.221 -11.622   3.915  1.00  0.00     0.040 A 
HETATM   14  C   UNL     1      39.664 -10.605   7.013  1.00  0.00     0.278 C 
HETATM   15  C   UNL     1      39.410 -11.947   7.699  1.00  0.00     0.246 C 
HETATM   16  O   UNL     1      38.943 -12.045   8.831  1.00  0.00    -0.271 OA
HETATM   17  C   UNL     1      41.457 -12.780   3.171  1.00  0.00     0.012 A 
HETATM   18  H   UNL     1      39.476 -13.951   7.357  1.00  0.00     0.169 HD
ENDBRANCH   5   7
ENDBRANCH   2   5
BRANCH   1  19
HETATM   19  C   UNL     1      43.825 -17.834   4.178  1.00  0.00     0.157 A 
HETATM   20  C   UNL     1      44.058 -19.189   3.794  1.00  0.00     0.029 A 
HETATM   21  C   UNL     1      43.971 -19.936   2.603  1.00  0.00     0.023 A 
HETATM   22  C   UNL     1      44.460 -19.830   4.959  1.00  0.00     0.063 A 
HETATM   23  C   UNL     1      44.286 -21.306   2.620  1.00  0.00    -0.061 A 
HETATM   24  C   UNL     1      44.198 -22.123   1.363  1.00  0.00     0.048 C 
HETATM   25  C   UNL     1      44.685 -21.913   3.816  1.00  0.00     0.009 A 
HETATM   26  C   UNL     1      44.781 -21.189   5.010  1.00  0.00     0.032 A 
HETATM   27  N   UNL     1      44.449 -18.864   5.926  1.00  0.00    -0.277 N 
HETATM   28  H   UNL     1      44.690 -18.975   6.903  1.00  0.00     0.189 HD
HETATM   29  N   UNL     1      44.063 -17.649   5.497  1.00  0.00    -0.168 NA
ENDBRANCH   1  19
TORSDOF 3
ENDMDL
MODEL 5
REMARK VINA RESULT:      -8.7      2.066      3.044
REMARK  3 active torsions:
REMARK  status: ('A' for Active; 'I' for Inactive)
REMARK    1  A    between atoms: C_9  and  C_10 
REMARK       I    between atoms: C_10  and  N_11 
REMARK    2  A    between atoms: N_11  and  C_12 
REMARK    3  A    between atoms: C_12  and  C_13 
ROOT
HETATM    1  C   UNL     1      41.469 -16.980   1.819  1.00  0.00     0.273 C 
HETATM    2  N   UNL     1      41.335 -15.609   1.829  1.00  0.00    -0.347 N 
HETATM    3  O   UNL     1      40.884 -17.710   1.023  1.00  0.00    -0.266 OA
HETATM    4  H   UNL     1      41.833 -15.138   2.579  1.00  0.00     0.163 HD
ENDROOT
BRANCH   2   5
HETATM    5  C   UNL     1      40.366 -14.907   1.016  1.00  0.00     0.114 C 
HETATM    6  C   UNL     1      39.317 -14.205   1.883  1.00  0.00     0.037 C 
BRANCH   5   7
HETATM    7  C   UNL     1      41.046 -13.912   0.091  1.00  0.00    -0.034 A 
HETATM    8  C   UNL     1      41.457 -12.663   0.589  1.00  0.00     0.041 A 
HETATM    9  C   UNL     1      42.118 -11.753  -0.240  1.00  0.00     0.069 A 
HETATM   10  C   UNL     1      42.373 -12.070  -1.574  1.00  0.00     0.096 A 
HETATM   11  N   UNL     1      42.550 -10.537   0.289  1.00  0.00    -0.323 N 
HETATM   12  O   UNL     1      43.044 -11.253  -2.439  1.00  0.00    -0.340 OA
HETATM   13  C   UNL     1      41.976 -13.306  -2.077  1.00  0.00     0.040 A 
HETATM   14  C   UNL     1      43.259  -9.929  -1.974  1.00  0.00     0.278 C 
HETATM   15  C   UNL     1      43.172  -9.599  -0.484  1.00  0.00     0.246 C 
HETATM   16  O   UNL     1      43.581  -8.545  -0.005  1.00  0.00    -0.271 OA
HETATM   17  C   UNL     1      41.320 -14.222  -1.252  1.00  0.00     0.012 A 
HETATM   18  H   UNL     1      42.434 -10.321   1.269  1.00  0.00     0.169 HD
ENDBRANCH   5   7
ENDBRANCH   2   5
BRANCH   1  19
HETATM   19  C   UNL     1      42.361 -17.477   2.878  1.00  0.00     0.157 A 
HETATM   20  C   UNL     1      43.087 -18.705   2.897  1.00  0.00     0.029 A 
HETATM   21  C   UNL     1      43.252 -19.801   2.027  1.00  0.00     0.023 A 
HETATM   22  C   UNL     1      43.750 -18.714   4.117  1.00  0.00     0.063 A 
HETATM   23  C   UNL     1      44.074 -20.874   2.411  1.00  0.00    -0.061 A 
HETATM   24  C   UNL     1      44.264 -22.052   1.501  1.00  0.00     0.048 C 
HETATM   25  C   UNL     1      44.723 -20.843   3.652  1.00  0.00     0.009 A 
HETATM   26  C   UNL     1      44.575 -19.764   4.531  1.00  0.00     0.032 A 
HETATM   27  N   UNL     1      43.401 -17.542   4.727  1.00  0.00    -0.277 N 
HETATM   28  H   UNL     1      43.702 -17.212   5.636  1.00  0.00     0.189 HD
HETATM   29  N   UNL     1      42.557 -16.772   4.017  1.00  0.00    -0.168 NA
ENDBRANCH   1  19
TORSDOF 3
ENDMDL
MODEL 6
REMARK VINA RESULT:      -8.6      2.753      8.019
REMARK  3 active torsions:
REMARK  status: ('A' for Active; 'I' for Inactive)
REMARK    1  A    between atoms: C_9  and  C_10 
REMARK       I    between atoms: C_10  and  N_11 
REMARK    2  A    between atoms: N_11  and  C_12 
REMARK    3  A    between atoms: C_12  and  C_13 
ROOT
HETATM    1  C   UNL     1      42.144 -14.601   2.180  1.00  0.00     0.273 C 
HETATM    2  N   UNL     1      42.028 -15.722   2.972  1.00  0.00    -0.347 N 
HETATM    3  O   UNL     1      42.978 -13.721   2.372  1.00  0.00    -0.266 OA
HETATM    4  H   UNL     1      41.257 -16.337   2.729  1.00  0.00     0.163 HD
ENDROOT
BRANCH   2   5
HETATM    5  C   UNL     1      42.763 -15.892   4.207  1.00  0.00     0.114 C 
HETATM    6  C   UNL     1      41.886 -15.581   5.423  1.00  0.00     0.037 C 
BRANCH   5   7
HETATM    7  C   UNL     1      43.342 -17.292   4.311  1.00  0.00    -0.034 A 
HETATM    8  C   UNL     1      43.194 -18.191   3.240  1.00  0.00     0.041 A 
HETATM    9  C   UNL     1      43.754 -19.469   3.304  1.00  0.00     0.069 A 
HETATM   10  C   UNL     1      44.463 -19.872   4.436  1.00  0.00     0.096 A 
HETATM   11  N   UNL     1      43.627 -20.327   2.213  1.00  0.00    -0.323 N 
HETATM   12  O   UNL     1      45.071 -21.088   4.565  1.00  0.00    -0.340 OA
HETATM   13  C   UNL     1      44.621 -18.989   5.501  1.00  0.00     0.040 A 
HETATM   14  C   UNL     1      44.732 -22.040   3.568  1.00  0.00     0.278 C 
HETATM   15  C   UNL     1      44.128 -21.597   2.236  1.00  0.00     0.246 C 
HETATM   16  O   UNL     1      44.043 -22.336   1.259  1.00  0.00    -0.271 OA
HETATM   17  C   UNL     1      44.068 -17.708   5.440  1.00  0.00     0.012 A 
HETATM   18  H   UNL     1      43.176 -20.027   1.360  1.00  0.00     0.169 HD
ENDBRANCH   5   7
ENDBRANCH   2   5
BRANCH   1  19
HETATM   19  C   UNL     1      41.147 -14.557   1.099  1.00  0.00     0.157 A 
HETATM   20  C   UNL     1      40.002 -13.710   1.007  1.00  0.00     0.029 A 
HETATM   21  C   UNL     1      39.429 -12.688   1.790  1.00  0.00     0.023 A 
HETATM   22  C   UNL     1      39.377 -14.075  -0.178  1.00  0.00     0.063 A 
HETATM   23  C   UNL     1      38.244 -12.067   1.359  1.00  0.00    -0.061 A 
HETATM   24  C   UNL     1      37.615 -10.977   2.177  1.00  0.00     0.048 C 
HETATM   25  C   UNL     1      37.646 -12.467   0.158  1.00  0.00     0.009 A 
HETATM   26  C   UNL     1      38.198 -13.479  -0.636  1.00  0.00     0.032 A 
HETATM   27  N   UNL     1      40.152 -15.071  -0.704  1.00  0.00    -0.277 N 
HETATM   28  H   UNL     1      39.997 -15.574  -1.570  1.00  0.00     0.189 HD
HETATM   29  N   UNL     1      41.223 -15.396   0.040  1.00  0.00    -0.168 NA
ENDBRANCH   1  19
TORSDOF 3
ENDMDL
MODEL 7
REMARK VINA RESULT:      -8.6      2.672      7.821
REMARK  3 active torsions:
REMARK  status: ('A' for Active; 'I' for Inactive)
REMARK    1  A    between atoms: C_9  and  C_10 
REMARK       I    between atoms: C_10  and  N_11 
REMARK    2  A    between atoms: N_11  and  C_12 
REMARK    3  A    between atoms: C_12  and  C_13 
ROOT
HETATM    1  C   UNL     1      42.290 -14.068   2.475  1.00  0.00     0.273 C 
HETATM    2  N   UNL     1      42.198 -15.384   2.875  1.00  0.00    -0.347 N 
HETATM    3  O   UNL     1      43.271 -13.363   2.694  1.00  0.00    -0.266 OA
HETATM    4  H   UNL     1      41.306 -15.828   2.675  1.00  0.00     0.163 HD
ENDROOT
BRANCH   2   5
HETATM    5  C   UNL     1      43.174 -16.014   3.737  1.00  0.00     0.114 C 
HETATM    6  C   UNL     1      42.749 -15.939   5.206  1.00  0.00     0.037 C 
BRANCH   5   7
HETATM    7  C   UNL     1      43.418 -17.456   3.325  1.00  0.00    -0.034 A 
HETATM    8  C   UNL     1      43.960 -18.364   4.251  1.00  0.00     0.041 A 
HETATM    9  C   UNL     1      44.154 -19.703   3.900  1.00  0.00     0.069 A 
HETATM   10  C   UNL     1      43.818 -20.153   2.623  1.00  0.00     0.096 A 
HETATM   11  N   UNL     1      44.656 -20.592   4.849  1.00  0.00    -0.323 N 
HETATM   12  O   UNL     1      43.941 -21.450   2.212  1.00  0.00    -0.340 OA
HETATM   13  C   UNL     1      43.275 -19.264   1.699  1.00  0.00     0.040 A 
HETATM   14  C   UNL     1      44.679 -22.291   3.086  1.00  0.00     0.278 C 
HETATM   15  C   UNL     1      44.895 -21.903   4.549  1.00  0.00     0.246 C 
HETATM   16  O   UNL     1      45.305 -22.689   5.398  1.00  0.00    -0.271 OA
HETATM   17  C   UNL     1      43.073 -17.926   2.046  1.00  0.00     0.012 A 
HETATM   18  H   UNL     1      44.841 -20.298   5.797  1.00  0.00     0.169 HD
ENDBRANCH   5   7
ENDBRANCH   2   5
BRANCH   1  19
HETATM   19  C   UNL     1      41.080 -13.592   1.786  1.00  0.00     0.157 A 
HETATM   20  C   UNL     1      40.647 -13.920   0.467  1.00  0.00     0.029 A 
HETATM   21  C   UNL     1      41.114 -14.736  -0.582  1.00  0.00     0.023 A 
HETATM   22  C   UNL     1      39.475 -13.198   0.282  1.00  0.00     0.063 A 
HETATM   23  C   UNL     1      40.391 -14.798  -1.786  1.00  0.00    -0.061 A 
HETATM   24  C   UNL     1      40.869 -15.660  -2.919  1.00  0.00     0.048 C 
HETATM   25  C   UNL     1      39.215 -14.053  -1.931  1.00  0.00     0.009 A 
HETATM   26  C   UNL     1      38.732 -13.237  -0.901  1.00  0.00     0.032 A 
HETATM   27  N   UNL     1      39.282 -12.516   1.451  1.00  0.00    -0.277 N 
HETATM   28  H   UNL     1      38.520 -11.887   1.674  1.00  0.00     0.189 HD
HETATM   29  N   UNL     1      40.234 -12.719   2.379  1.00  0.00    -0.168 NA
ENDBRANCH   1  19
TORSDOF 3
ENDMDL
MODEL 8
REMARK VINA RESULT:      -8.5      1.621      2.147
REMARK  3 active torsions:
REMARK  status: ('A' for Active; 'I' for Inactive)
REMARK    1  A    between atoms: C_9  and  C_10 
REMARK       I    between atoms: C_10  and  N_11 
REMARK    2  A    between atoms: N_11  and  C_12 
REMARK    3  A    between atoms: C_12  and  C_13 
ROOT
HETATM    1  C   UNL     1      42.604 -16.893   3.524  1.00  0.00     0.273 C 
HETATM    2  N   UNL     1      42.744 -16.005   2.480  1.00  0.00    -0.347 N 
HETATM    3  O   UNL     1      41.943 -16.652   4.531  1.00  0.00    -0.266 OA
HETATM    4  H   UNL     1      43.365 -16.316   1.738  1.00  0.00     0.163 HD
ENDROOT
BRANCH   2   5
HETATM    5  C   UNL     1      42.269 -14.640   2.538  1.00  0.00     0.114 C 
HETATM    6  C   UNL     1      43.307 -13.718   3.184  1.00  0.00     0.037 C 
BRANCH   5   7
HETATM    7  C   UNL     1      41.890 -14.133   1.157  1.00  0.00    -0.034 A 
HETATM    8  C   UNL     1      41.444 -15.038   0.178  1.00  0.00     0.041 A 
HETATM    9  C   UNL     1      41.054 -14.582  -1.083  1.00  0.00     0.069 A 
HETATM   10  C   UNL     1      41.110 -13.222  -1.390  1.00  0.00     0.096 A 
HETATM   11  N   UNL     1      40.579 -15.495  -2.023  1.00  0.00    -0.323 N 
HETATM   12  O   UNL     1      40.714 -12.691  -2.585  1.00  0.00    -0.340 OA
HETATM   13  C   UNL     1      41.545 -12.315  -0.427  1.00  0.00     0.040 A 
HETATM   14  C   UNL     1      40.471 -13.637  -3.614  1.00  0.00     0.278 C 
HETATM   15  C   UNL     1      40.216 -15.107  -3.281  1.00  0.00     0.246 C 
HETATM   16  O   UNL     1      39.765 -15.911  -4.093  1.00  0.00    -0.271 OA
HETATM   17  C   UNL     1      41.929 -12.764   0.838  1.00  0.00     0.012 A 
HETATM   18  H   UNL     1      40.468 -16.473  -1.795  1.00  0.00     0.169 HD
ENDBRANCH   5   7
ENDBRANCH   2   5
BRANCH   1  19
HETATM   19  C   UNL     1      43.350 -18.144   3.318  1.00  0.00     0.157 A 
HETATM   20  C   UNL     1      43.659 -19.142   4.290  1.00  0.00     0.029 A 
HETATM   21  C   UNL     1      43.403 -19.336   5.662  1.00  0.00     0.023 A 
HETATM   22  C   UNL     1      44.396 -20.098   3.604  1.00  0.00     0.063 A 
HETATM   23  C   UNL     1      43.898 -20.485   6.302  1.00  0.00    -0.061 A 
HETATM   24  C   UNL     1      43.639 -20.714   7.763  1.00  0.00     0.048 C 
HETATM   25  C   UNL     1      44.638 -21.424   5.573  1.00  0.00     0.009 A 
HETATM   26  C   UNL     1      44.903 -21.251   4.210  1.00  0.00     0.032 A 
HETATM   27  N   UNL     1      44.477 -19.640   2.319  1.00  0.00    -0.277 N 
HETATM   28  H   UNL     1      44.943 -20.087   1.538  1.00  0.00     0.189 HD
HETATM   29  N   UNL     1      43.867 -18.460   2.108  1.00  0.00    -0.168 NA
ENDBRANCH   1  19
TORSDOF 3
ENDMDL
MODEL 9
REMARK VINA RESULT:      -8.5      3.398      5.158
REMARK  3 active torsions:
REMARK  status: ('A' for Active; 'I' for Inactive)
REMARK    1  A    between atoms: C_9  and  C_10 
REMARK       I    between atoms: C_10  and  N_11 
REMARK    2  A    between atoms: N_11  and  C_12 
REMARK    3  A    between atoms: C_12  and  C_13 
ROOT
HETATM    1  C   UNL     1      43.374 -16.705   3.372  1.00  0.00     0.273 C 
HETATM    2  N   UNL     1      42.092 -16.357   3.738  1.00  0.00    -0.347 N 
HETATM    3  O   UNL     1      44.004 -16.128   2.490  1.00  0.00    -0.266 OA
HETATM    4  H   UNL     1      41.673 -16.957   4.443  1.00  0.00     0.163 HD
ENDROOT
BRANCH   2   5
HETATM    5  C   UNL     1      41.300 -15.391   3.008  1.00  0.00     0.114 C 
HETATM    6  C   UNL     1      40.070 -16.047   2.373  1.00  0.00     0.037 C 
BRANCH   5   7
HETATM    7  C   UNL     1      40.887 -14.234   3.901  1.00  0.00    -0.034 A 
HETATM    8  C   UNL     1      41.486 -12.974   3.734  1.00  0.00     0.041 A 
HETATM    9  C   UNL     1      41.089 -11.890   4.522  1.00  0.00     0.069 A 
HETATM   10  C   UNL     1      40.097 -12.048   5.489  1.00  0.00     0.096 A 
HETATM   11  N   UNL     1      41.671 -10.642   4.310  1.00  0.00    -0.323 N 
HETATM   12  O   UNL     1      39.626 -11.034   6.274  1.00  0.00    -0.340 OA
HETATM   13  C   UNL     1      39.491 -13.290   5.660  1.00  0.00     0.040 A 
HETATM   14  C   UNL     1      40.386  -9.836   6.231  1.00  0.00     0.278 C 
HETATM   15  C   UNL     1      41.343  -9.558   5.072  1.00  0.00     0.246 C 
HETATM   16  O   UNL     1      41.834  -8.452   4.858  1.00  0.00    -0.271 OA
HETATM   17  C   UNL     1      39.880 -14.375   4.872  1.00  0.00     0.012 A 
HETATM   18  H   UNL     1      42.342 -10.495   3.568  1.00  0.00     0.169 HD
ENDBRANCH   5   7
ENDBRANCH   2   5
BRANCH   1  19
HETATM   19  C   UNL     1      43.894 -17.855   4.128  1.00  0.00     0.157 A 
HETATM   20  C   UNL     1      44.057 -19.196   3.667  1.00  0.00     0.029 A 
HETATM   21  C   UNL     1      43.839 -19.888   2.459  1.00  0.00     0.023 A 
HETATM   22  C   UNL     1      44.552 -19.895   4.760  1.00  0.00     0.063 A 
HETATM   23  C   UNL     1      44.121 -21.263   2.389  1.00  0.00    -0.061 A 
HETATM   24  C   UNL     1      43.896 -22.023   1.113  1.00  0.00     0.048 C 
HETATM   25  C   UNL     1      44.618 -21.931   3.515  1.00  0.00     0.009 A 
HETATM   26  C   UNL     1      44.843 -21.262   4.724  1.00  0.00     0.032 A 
HETATM   27  N   UNL     1      44.656 -18.973   5.763  1.00  0.00    -0.277 N 
HETATM   28  H   UNL     1      44.986 -19.131   6.708  1.00  0.00     0.189 HD
HETATM   29  N   UNL     1      44.260 -17.733   5.425  1.00  0.00    -0.168 NA
ENDBRANCH   1  19
TORSDOF 3
ENDMDL
MODEL 10
REMARK VINA RESULT:      -8.5      2.561      7.494
REMARK  3 active torsions:
REMARK  status: ('A' for Active; 'I' for Inactive)
REMARK    1  A    between atoms: C_9  and  C_10 
REMARK       I    between atoms: C_10  and  N_11 
REMARK    2  A    between atoms: N_11  and  C_12 
REMARK    3  A    between atoms: C_12  and  C_13 
ROOT
HETATM    1  C   UNL     1      41.227 -13.763   1.718  1.00  0.00     0.273 C 
HETATM    2  N   UNL     1      41.570 -15.094   1.807  1.00  0.00    -0.347 N 
HETATM    3  O   UNL     1      40.560 -13.179   2.569  1.00  0.00    -0.266 OA
HETATM    4  H   UNL     1      42.076 -15.458   1.004  1.00  0.00     0.163 HD
ENDROOT
BRANCH   2   5
HETATM    5  C   UNL     1      41.038 -15.978   2.821  1.00  0.00     0.114 C 
HETATM    6  C   UNL     1      39.710 -16.599   2.377  1.00  0.00     0.037 C 
BRANCH   5   7
HETATM    7  C   UNL     1      42.039 -17.062   3.183  1.00  0.00    -0.034 A 
HETATM    8  C   UNL     1      42.145 -18.212   2.382  1.00  0.00     0.041 A 
HETATM    9  C   UNL     1      43.088 -19.198   2.679  1.00  0.00     0.069 A 
HETATM   10  C   UNL     1      43.932 -19.058   3.780  1.00  0.00     0.096 A 
HETATM   11  N   UNL     1      43.199 -20.310   1.846  1.00  0.00    -0.323 N 
HETATM   12  O   UNL     1      44.904 -19.957   4.119  1.00  0.00    -0.340 OA
HETATM   13  C   UNL     1      43.841 -17.921   4.579  1.00  0.00     0.040 A 
HETATM   14  C   UNL     1      44.848 -21.194   3.425  1.00  0.00     0.278 C 
HETATM   15  C   UNL     1      44.082 -21.319   2.109  1.00  0.00     0.246 C 
HETATM   16  O   UNL     1      44.199 -22.279   1.352  1.00  0.00    -0.271 OA
HETATM   17  C   UNL     1      42.905 -16.928   4.283  1.00  0.00     0.012 A 
HETATM   18  H   UNL     1      42.642 -20.395   1.007  1.00  0.00     0.169 HD
ENDBRANCH   5   7
ENDBRANCH   2   5
BRANCH   1  19
HETATM   19  C   UNL     1      41.719 -13.124   0.488  1.00  0.00     0.157 A 
HETATM   20  C   UNL     1      41.454 -13.514  -0.859  1.00  0.00     0.029 A 
HETATM   21  C   UNL     1      40.701 -14.521  -1.495  1.00  0.00     0.023 A 
HETATM   22  C   UNL     1      42.166 -12.615  -1.642  1.00  0.00     0.063 A 
HETATM   23  C   UNL     1      40.691 -14.595  -2.899  1.00  0.00    -0.061 A 
HETATM   24  C   UNL     1      39.897 -15.660  -3.599  1.00  0.00     0.048 C 
HETATM   25  C   UNL     1      41.424 -13.669  -3.650  1.00  0.00     0.009 A 
HETATM   26  C   UNL     1      42.177 -12.660  -3.039  1.00  0.00     0.032 A 
HETATM   27  N   UNL     1      42.783 -11.775  -0.758  1.00  0.00    -0.277 N 
HETATM   28  H   UNL     1      43.387 -10.992  -0.977  1.00  0.00     0.189 HD
HETATM   29  N   UNL     1      42.546 -12.055   0.536  1.00  0.00    -0.168 NA
ENDBRANCH   1  19
TORSDOF 3
ENDMDL
