MODEL 1
REMARK VINA RESULT:      -8.9      0.000      0.000
REMARK  8 active torsions:
REMARK  status: ('A' for Active; 'I' for Inactive)
REMARK    1  A    between atoms: O_2  and  C_3 
REMARK    2  A    between atoms: C_3  and  C_4 
REMARK    3  A    between atoms: C_4  and  N_5 
REMARK       I    between atoms: N_5  and  C_6 
REMARK    4  A    between atoms: C_6  and  C_7 
REMARK    5  A    between atoms: C_7  and  N_8 
REMARK       I    between atoms: N_14  and  C_15 
REMARK    6  A    between atoms: C_15  and  C_16 
REMARK    7  A    between atoms: C_19  and  C_20 
REMARK    8  A    between atoms: N_31  and  C_32 
ROOT
HETATM    1  N   UNL     1      41.981 -10.929  -2.676  1.00  0.00    -0.325 N 
HETATM    2  C   UNL     1      41.910 -11.289  -1.353  1.00  0.00     0.250 A 
HETATM    3  O   UNL     1      42.576 -10.796  -0.456  1.00  0.00    -0.270 OA
HETATM    4  C   UNL     1      40.897 -12.449  -1.230  1.00  0.00     0.118 A 
HETATM    5  C   UNL     1      39.805 -12.030  -0.230  1.00  0.00     0.061 C 
HETATM    6  C   UNL     1      40.264 -12.152   1.223  1.00  0.00     0.129 C 
HETATM    7  N   UNL     1      40.907 -13.439   1.462  1.00  0.00    -0.348 N 
HETATM    8  C   UNL     1      40.210 -14.422   2.168  1.00  0.00     0.253 C 
HETATM    9  O   UNL     1      39.056 -14.286   2.569  1.00  0.00    -0.267 OA
HETATM   10  C   UNL     1      42.092 -13.679   0.641  1.00  0.00     0.129 C 
HETATM   11  C   UNL     1      41.712 -13.693  -0.836  1.00  0.00     0.061 C 
HETATM   12  N   UNL     1      40.378 -12.558  -2.628  1.00  0.00    -0.346 N 
HETATM   13  C   UNL     1      41.060 -11.626  -3.514  1.00  0.00     0.254 A 
ENDROOT
BRANCH  12  14
HETATM   14  C   UNL     1      39.485 -13.480  -3.145  1.00  0.00     0.032 A 
HETATM   15  C   UNL     1      38.109 -13.236  -3.270  1.00  0.00     0.029 A 
HETATM   16  C   UNL     1      37.215 -14.187  -3.784  1.00  0.00     0.002 A 
HETATM   17  C   UNL     1      37.673 -15.428  -4.198  1.00  0.00     0.000 A 
HETATM   18  C   UNL     1      39.027 -15.710  -4.104  1.00  0.00     0.002 A 
HETATM   19  C   UNL     1      39.910 -14.749  -3.592  1.00  0.00     0.029 A 
ENDBRANCH  12  14
BRANCH   1  20
HETATM   20  C   UNL     1      42.855  -9.894  -3.207  1.00  0.00     0.230 C 
BRANCH  20  21
HETATM   21  C   UNL     1      42.274  -9.154  -4.418  1.00  0.00     0.235 C 
HETATM   22  N   UNL     1      42.862  -9.446  -5.629  1.00  0.00    -0.358 N 
HETATM   23  H   UNL     1      43.781  -9.878  -5.608  1.00  0.00     0.162 HD
HETATM   24  O   UNL     1      41.401  -8.299  -4.290  1.00  0.00    -0.272 OA
BRANCH  22  25
HETATM   25  C   UNL     1      42.527  -8.694  -6.826  1.00  0.00     0.148 C 
BRANCH  25  26
HETATM   26  C   UNL     1      43.696  -7.841  -7.310  1.00  0.00     0.186 C 
BRANCH  26  27
HETATM   27  O   UNL     1      44.139  -8.328  -8.581  1.00  0.00    -0.394 OA
HETATM   28  C   UNL     1      45.500  -7.988  -8.820  1.00  0.00     0.201 C 
ENDBRANCH  26  27
ENDBRANCH  25  26
ENDBRANCH  22  25
ENDBRANCH  20  21
ENDBRANCH   1  20
BRANCH   8  29
HETATM   29  C   UNL     1      40.883 -15.716   2.425  1.00  0.00     0.032 A 
HETATM   30  C   UNL     1      41.580 -15.939   3.614  1.00  0.00     0.018 A 
HETATM   31  C   UNL     1      42.334 -17.106   3.765  1.00  0.00     0.013 A 
HETATM   32  C   UNL     1      42.375 -18.086   2.755  1.00  0.00    -0.026 A 
HETATM   33  C   UNL     1      41.576 -17.879   1.613  1.00  0.00     0.013 A 
HETATM   34  C   UNL     1      40.837 -16.705   1.444  1.00  0.00     0.018 A 
BRANCH  32  35
HETATM   35  C   UNL     1      43.267 -19.263   2.867  1.00  0.00    -0.026 A 
HETATM   36  C   UNL     1      43.257 -20.293   1.911  1.00  0.00     0.012 A 
HETATM   37  C   UNL     1      44.064 -21.427   2.055  1.00  0.00     0.001 A 
HETATM   38  C   UNL     1      44.908 -21.549   3.155  1.00  0.00     0.000 A 
HETATM   39  C   UNL     1      44.945 -20.539   4.110  1.00  0.00     0.001 A 
HETATM   40  C   UNL     1      44.131 -19.412   3.969  1.00  0.00     0.012 A 
ENDBRANCH  32  35
ENDBRANCH   8  29
TORSDOF 8
ENDMDL
MODEL 2
REMARK VINA RESULT:      -8.8      0.951      1.565
REMARK  8 active torsions:
REMARK  status: ('A' for Active; 'I' for Inactive)
REMARK    1  A    between atoms: O_2  and  C_3 
REMARK    2  A    between atoms: C_3  and  C_4 
REMARK    3  A    between atoms: C_4  and  N_5 
REMARK       I    between atoms: N_5  and  C_6 
REMARK    4  A    between atoms: C_6  and  C_7 
REMARK    5  A    between atoms: C_7  and  N_8 
REMARK       I    between atoms: N_14  and  C_15 
REMARK    6  A    between atoms: C_15  and  C_16 
REMARK    7  A    between atoms: C_19  and  C_20 
REMARK    8  A    between atoms: N_31  and  C_32 
ROOT
HETATM    1  N   UNL     1      42.020 -10.925  -2.519  1.00  0.00    -0.325 N 
HETATM    2  C   UNL     1      41.960 -11.314  -1.204  1.00  0.00     0.250 A 
HETATM    3  O   UNL     1      42.638 -10.845  -0.303  1.00  0.00    -0.270 OA
HETATM    4  C   UNL     1      40.942 -12.471  -1.097  1.00  0.00     0.118 A 
HETATM    5  C   UNL     1      39.862 -12.068  -0.077  1.00  0.00     0.061 C 
HETATM    6  C   UNL     1      40.335 -12.225   1.368  1.00  0.00     0.129 C 
HETATM    7  N   UNL     1      40.973 -13.521   1.572  1.00  0.00    -0.348 N 
HETATM    8  C   UNL     1      40.277 -14.517   2.263  1.00  0.00     0.253 C 
HETATM    9  O   UNL     1      39.129 -14.383   2.679  1.00  0.00    -0.267 OA
HETATM   10  C   UNL     1      42.148 -13.749   0.733  1.00  0.00     0.129 C 
HETATM   11  C   UNL     1      41.754 -13.728  -0.739  1.00  0.00     0.061 C 
HETATM   12  N   UNL     1      40.408 -12.545  -2.491  1.00  0.00    -0.346 N 
HETATM   13  C   UNL     1      41.086 -11.598  -3.364  1.00  0.00     0.254 A 
ENDROOT
BRANCH  12  14
HETATM   14  C   UNL     1      39.505 -13.451  -3.020  1.00  0.00     0.032 A 
HETATM   15  C   UNL     1      39.863 -14.740  -3.444  1.00  0.00     0.029 A 
HETATM   16  C   UNL     1      38.937 -15.642  -3.991  1.00  0.00     0.002 A 
HETATM   17  C   UNL     1      37.605 -15.282  -4.128  1.00  0.00     0.000 A 
HETATM   18  C   UNL     1      37.203 -14.023  -3.709  1.00  0.00     0.002 A 
HETATM   19  C   UNL     1      38.138 -13.133  -3.163  1.00  0.00     0.029 A 
ENDBRANCH  12  14
BRANCH   1  20
HETATM   20  C   UNL     1      42.894  -9.883  -3.036  1.00  0.00     0.230 C 
BRANCH  20  21
HETATM   21  C   UNL     1      42.327  -9.148  -4.257  1.00  0.00     0.235 C 
HETATM   22  N   UNL     1      42.856  -9.524  -5.472  1.00  0.00    -0.358 N 
HETATM   23  H   UNL     1      43.743 -10.017  -5.461  1.00  0.00     0.162 HD
HETATM   24  O   UNL     1      41.520  -8.230  -4.136  1.00  0.00    -0.272 OA
BRANCH  22  25
HETATM   25  C   UNL     1      42.536  -8.794  -6.687  1.00  0.00     0.148 C 
BRANCH  25  26
HETATM   26  C   UNL     1      41.470  -9.505  -7.516  1.00  0.00     0.186 C 
BRANCH  26  27
HETATM   27  O   UNL     1      40.193  -8.918  -7.243  1.00  0.00    -0.394 OA
HETATM   28  C   UNL     1      39.350  -9.820  -6.535  1.00  0.00     0.201 C 
ENDBRANCH  26  27
ENDBRANCH  25  26
ENDBRANCH  22  25
ENDBRANCH  20  21
ENDBRANCH   1  20
BRANCH   8  29
HETATM   29  C   UNL     1      40.946 -15.819   2.484  1.00  0.00     0.032 A 
HETATM   30  C   UNL     1      41.691 -16.057   3.641  1.00  0.00     0.018 A 
HETATM   31  C   UNL     1      42.437 -17.233   3.753  1.00  0.00     0.013 A 
HETATM   32  C   UNL     1      42.423 -18.208   2.737  1.00  0.00    -0.026 A 
HETATM   33  C   UNL     1      41.578 -17.985   1.632  1.00  0.00     0.013 A 
HETATM   34  C   UNL     1      40.846 -16.802   1.501  1.00  0.00     0.018 A 
BRANCH  32  35
HETATM   35  C   UNL     1      43.305 -19.396   2.804  1.00  0.00    -0.026 A 
HETATM   36  C   UNL     1      43.246 -20.417   1.841  1.00  0.00     0.012 A 
HETATM   37  C   UNL     1      44.045 -21.561   1.943  1.00  0.00     0.001 A 
HETATM   38  C   UNL     1      44.929 -21.702   3.009  1.00  0.00     0.000 A 
HETATM   39  C   UNL     1      45.015 -20.702   3.971  1.00  0.00     0.001 A 
HETATM   40  C   UNL     1      44.208 -19.564   3.871  1.00  0.00     0.012 A 
ENDBRANCH  32  35
ENDBRANCH   8  29
TORSDOF 8
ENDMDL
MODEL 3
REMARK VINA RESULT:      -8.4      3.926     10.853
REMARK  8 active torsions:
REMARK  status: ('A' for Active; 'I' for Inactive)
REMARK    1  A    between atoms: O_2  and  C_3 
REMARK    2  A    between atoms: C_3  and  C_4 
REMARK    3  A    between atoms: C_4  and  N_5 
REMARK       I    between atoms: N_5  and  C_6 
REMARK    4  A    between atoms: C_6  and  C_7 
REMARK    5  A    between atoms: C_7  and  N_8 
REMARK       I    between atoms: N_14  and  C_15 
REMARK    6  A    between atoms: C_15  and  C_16 
REMARK    7  A    between atoms: C_19  and  C_20 
REMARK    8  A    between atoms: N_31  and  C_32 
ROOT
HETATM    1  N   UNL     1      43.881 -16.791   5.673  1.00  0.00    -0.325 N 
HETATM    2  C   UNL     1      43.386 -16.933   4.401  1.00  0.00     0.250 A 
HETATM    3  O   UNL     1      43.736 -17.790   3.604  1.00  0.00    -0.270 OA
HETATM    4  C   UNL     1      42.374 -15.792   4.154  1.00  0.00     0.118 A 
HETATM    5  C   UNL     1      41.024 -16.422   3.767  1.00  0.00     0.061 C 
HETATM    6  C   UNL     1      40.993 -16.891   2.312  1.00  0.00     0.129 C 
HETATM    7  N   UNL     1      41.511 -15.861   1.419  1.00  0.00    -0.348 N 
HETATM    8  C   UNL     1      40.614 -15.132   0.635  1.00  0.00     0.253 C 
HETATM    9  O   UNL     1      39.394 -15.274   0.682  1.00  0.00    -0.267 OA
HETATM   10  C   UNL     1      42.894 -15.473   1.690  1.00  0.00     0.129 C 
HETATM   11  C   UNL     1      43.007 -14.877   3.090  1.00  0.00     0.061 C 
HETATM   12  N   UNL     1      42.329 -15.123   5.490  1.00  0.00    -0.346 N 
HETATM   13  C   UNL     1      43.268 -15.737   6.416  1.00  0.00     0.254 A 
ENDROOT
BRANCH  12  14
HETATM   14  C   UNL     1      41.637 -13.981   5.857  1.00  0.00     0.032 A 
HETATM   15  C   UNL     1      42.261 -12.750   6.111  1.00  0.00     0.029 A 
HETATM   16  C   UNL     1      41.547 -11.605   6.496  1.00  0.00     0.002 A 
HETATM   17  C   UNL     1      40.169 -11.652   6.637  1.00  0.00     0.000 A 
HETATM   18  C   UNL     1      39.508 -12.845   6.383  1.00  0.00     0.002 A 
HETATM   19  C   UNL     1      40.234 -13.980   5.997  1.00  0.00     0.029 A 
ENDBRANCH  12  14
BRANCH   1  20
HETATM   20  C   UNL     1      44.890 -17.651   6.271  1.00  0.00     0.230 C 
BRANCH  20  21
HETATM   21  C   UNL     1      44.432 -19.101   6.465  1.00  0.00     0.235 C 
HETATM   22  N   UNL     1      44.888 -19.998   5.523  1.00  0.00    -0.358 N 
HETATM   23  H   UNL     1      45.230 -19.617   4.646  1.00  0.00     0.162 HD
HETATM   24  O   UNL     1      43.644 -19.412   7.355  1.00  0.00    -0.272 OA
BRANCH  22  25
HETATM   25  C   UNL     1      44.394 -21.363   5.488  1.00  0.00     0.148 C 
BRANCH  25  26
HETATM   26  C   UNL     1      44.746 -22.064   4.178  1.00  0.00     0.186 C 
BRANCH  26  27
HETATM   27  O   UNL     1      44.503 -21.169   3.087  1.00  0.00    -0.394 OA
HETATM   28  C   UNL     1      44.140 -21.877   1.907  1.00  0.00     0.201 C 
ENDBRANCH  26  27
ENDBRANCH  25  26
ENDBRANCH  22  25
ENDBRANCH  20  21
ENDBRANCH   1  20
BRANCH   8  29
HETATM   29  C   UNL     1      41.155 -14.106  -0.285  1.00  0.00     0.032 A 
HETATM   30  C   UNL     1      41.511 -12.839   0.182  1.00  0.00     0.018 A 
HETATM   31  C   UNL     1      41.871 -11.842  -0.729  1.00  0.00     0.013 A 
HETATM   32  C   UNL     1      41.922 -12.099  -2.113  1.00  0.00    -0.026 A 
HETATM   33  C   UNL     1      41.661 -13.416  -2.540  1.00  0.00     0.013 A 
HETATM   34  C   UNL     1      41.278 -14.413  -1.639  1.00  0.00     0.018 A 
BRANCH  32  35
HETATM   35  C   UNL     1      42.188 -11.013  -3.083  1.00  0.00    -0.026 A 
HETATM   36  C   UNL     1      42.286  -9.670  -2.682  1.00  0.00     0.012 A 
HETATM   37  C   UNL     1      42.482  -8.645  -3.613  1.00  0.00     0.001 A 
HETATM   38  C   UNL     1      42.596  -8.944  -4.968  1.00  0.00     0.000 A 
HETATM   39  C   UNL     1      42.513 -10.266  -5.391  1.00  0.00     0.001 A 
HETATM   40  C   UNL     1      42.307 -11.287  -4.459  1.00  0.00     0.012 A 
ENDBRANCH  32  35
ENDBRANCH   8  29
TORSDOF 8
ENDMDL
MODEL 4
REMARK VINA RESULT:      -8.4      5.196      7.954
REMARK  8 active torsions:
REMARK  status: ('A' for Active; 'I' for Inactive)
REMARK    1  A    between atoms: O_2  and  C_3 
REMARK    2  A    between atoms: C_3  and  C_4 
REMARK    3  A    between atoms: C_4  and  N_5 
REMARK       I    between atoms: N_5  and  C_6 
REMARK    4  A    between atoms: C_6  and  C_7 
REMARK    5  A    between atoms: C_7  and  N_8 
REMARK       I    between atoms: N_14  and  C_15 
REMARK    6  A    between atoms: C_15  and  C_16 
REMARK    7  A    between atoms: C_19  and  C_20 
REMARK    8  A    between atoms: N_31  and  C_32 
ROOT
HETATM    1  N   UNL     1      37.773 -11.576   1.812  1.00  0.00    -0.325 N 
HETATM    2  C   UNL     1      38.948 -12.205   1.487  1.00  0.00     0.250 A 
HETATM    3  O   UNL     1      39.232 -12.629   0.377  1.00  0.00    -0.270 OA
HETATM    4  C   UNL     1      39.794 -12.326   2.773  1.00  0.00     0.118 A 
HETATM    5  C   UNL     1      41.152 -11.646   2.522  1.00  0.00     0.061 C 
HETATM    6  C   UNL     1      42.101 -12.520   1.702  1.00  0.00     0.129 C 
HETATM    7  N   UNL     1      42.142 -13.881   2.225  1.00  0.00    -0.348 N 
HETATM    8  C   UNL     1      43.261 -14.294   2.953  1.00  0.00     0.253 C 
HETATM    9  O   UNL     1      44.208 -13.559   3.223  1.00  0.00    -0.267 OA
HETATM   10  C   UNL     1      40.850 -14.566   2.215  1.00  0.00     0.129 C 
HETATM   11  C   UNL     1      39.858 -13.828   3.107  1.00  0.00     0.061 C 
HETATM   12  N   UNL     1      38.959 -11.583   3.765  1.00  0.00    -0.346 N 
HETATM   13  C   UNL     1      37.710 -11.134   3.168  1.00  0.00     0.254 A 
ENDROOT
BRANCH  12  14
HETATM   14  C   UNL     1      39.180 -11.416   5.122  1.00  0.00     0.032 A 
HETATM   15  C   UNL     1      39.123 -12.468   6.048  1.00  0.00     0.029 A 
HETATM   16  C   UNL     1      39.336 -12.280   7.422  1.00  0.00     0.002 A 
HETATM   17  C   UNL     1      39.620 -11.018   7.921  1.00  0.00     0.000 A 
HETATM   18  C   UNL     1      39.699  -9.950   7.041  1.00  0.00     0.002 A 
HETATM   19  C   UNL     1      39.487 -10.153   5.670  1.00  0.00     0.029 A 
ENDBRANCH  12  14
BRANCH   1  20
HETATM   20  C   UNL     1      36.690 -11.307   0.878  1.00  0.00     0.230 C 
BRANCH  20  21
HETATM   21  C   UNL     1      35.722 -10.215   1.349  1.00  0.00     0.235 C 
HETATM   22  N   UNL     1      34.465 -10.651   1.706  1.00  0.00    -0.358 N 
HETATM   23  H   UNL     1      34.178 -11.566   1.373  1.00  0.00     0.162 HD
HETATM   24  O   UNL     1      36.033  -9.026   1.324  1.00  0.00    -0.272 OA
BRANCH  22  25
HETATM   25  C   UNL     1      33.402  -9.708   2.005  1.00  0.00     0.148 C 
BRANCH  25  26
HETATM   26  C   UNL     1      32.495 -10.206   3.128  1.00  0.00     0.186 C 
BRANCH  26  27
HETATM   27  O   UNL     1      32.373  -9.184   4.122  1.00  0.00    -0.394 OA
HETATM   28  C   UNL     1      33.057  -9.541   5.318  1.00  0.00     0.201 C 
ENDBRANCH  26  27
ENDBRANCH  25  26
ENDBRANCH  22  25
ENDBRANCH  20  21
ENDBRANCH   1  20
BRANCH   8  29
HETATM   29  C   UNL     1      43.299 -15.686   3.457  1.00  0.00     0.032 A 
HETATM   30  C   UNL     1      43.097 -15.965   4.810  1.00  0.00     0.018 A 
HETATM   31  C   UNL     1      43.292 -17.265   5.284  1.00  0.00     0.013 A 
HETATM   32  C   UNL     1      43.650 -18.315   4.416  1.00  0.00    -0.026 A 
HETATM   33  C   UNL     1      43.741 -18.020   3.041  1.00  0.00     0.013 A 
HETATM   34  C   UNL     1      43.570 -16.719   2.561  1.00  0.00     0.018 A 
BRANCH  32  35
HETATM   35  C   UNL     1      43.971 -19.662   4.937  1.00  0.00    -0.026 A 
HETATM   36  C   UNL     1      43.639 -20.048   6.247  1.00  0.00     0.012 A 
HETATM   37  C   UNL     1      43.996 -21.305   6.748  1.00  0.00     0.001 A 
HETATM   38  C   UNL     1      44.684 -22.208   5.944  1.00  0.00     0.000 A 
HETATM   39  C   UNL     1      45.017 -21.856   4.641  1.00  0.00     0.001 A 
HETATM   40  C   UNL     1      44.668 -20.596   4.146  1.00  0.00     0.012 A 
ENDBRANCH  32  35
ENDBRANCH   8  29
TORSDOF 8
ENDMDL
MODEL 5
REMARK VINA RESULT:      -8.3      4.137      7.225
REMARK  8 active torsions:
REMARK  status: ('A' for Active; 'I' for Inactive)
REMARK    1  A    between atoms: O_2  and  C_3 
REMARK    2  A    between atoms: C_3  and  C_4 
REMARK    3  A    between atoms: C_4  and  N_5 
REMARK       I    between atoms: N_5  and  C_6 
REMARK    4  A    between atoms: C_6  and  C_7 
REMARK    5  A    between atoms: C_7  and  N_8 
REMARK       I    between atoms: N_14  and  C_15 
REMARK    6  A    between atoms: C_15  and  C_16 
REMARK    7  A    between atoms: C_19  and  C_20 
REMARK    8  A    between atoms: N_31  and  C_32 
ROOT
HETATM    1  N   UNL     1      40.559  -8.595   3.162  1.00  0.00    -0.325 N 
HETATM    2  C   UNL     1      40.012  -9.846   3.300  1.00  0.00     0.250 A 
HETATM    3  O   UNL     1      39.394 -10.238   4.277  1.00  0.00    -0.270 OA
HETATM    4  C   UNL     1      40.373 -10.663   2.039  1.00  0.00     0.118 A 
HETATM    5  C   UNL     1      39.065 -11.161   1.398  1.00  0.00     0.061 C 
HETATM    6  C   UNL     1      38.478 -12.369   2.128  1.00  0.00     0.129 C 
HETATM    7  N   UNL     1      39.503 -13.375   2.381  1.00  0.00    -0.348 N 
HETATM    8  C   UNL     1      39.519 -14.536   1.604  1.00  0.00     0.253 C 
HETATM    9  O   UNL     1      38.740 -14.747   0.678  1.00  0.00    -0.267 OA
HETATM   10  C   UNL     1      40.615 -12.904   3.206  1.00  0.00     0.129 C 
HETATM   11  C   UNL     1      41.344 -11.764   2.502  1.00  0.00     0.061 C 
HETATM   12  N   UNL     1      41.068  -9.643   1.196  1.00  0.00    -0.346 N 
HETATM   13  C   UNL     1      41.189  -8.375   1.900  1.00  0.00     0.254 A 
ENDROOT
BRANCH  12  14
HETATM   14  C   UNL     1      41.681  -9.816  -0.033  1.00  0.00     0.032 A 
HETATM   15  C   UNL     1      43.073  -9.872  -0.200  1.00  0.00     0.029 A 
HETATM   16  C   UNL     1      43.680 -10.034  -1.454  1.00  0.00     0.002 A 
HETATM   17  C   UNL     1      42.905 -10.150  -2.598  1.00  0.00     0.000 A 
HETATM   18  C   UNL     1      41.524 -10.113  -2.480  1.00  0.00     0.002 A 
HETATM   19  C   UNL     1      40.932  -9.954  -1.220  1.00  0.00     0.029 A 
ENDBRANCH  12  14
BRANCH   1  20
HETATM   20  C   UNL     1      40.473  -7.539   4.160  1.00  0.00     0.230 C 
BRANCH  20  21
HETATM   21  C   UNL     1      41.345  -7.782   5.397  1.00  0.00     0.235 C 
HETATM   22  N   UNL     1      40.722  -8.428   6.443  1.00  0.00    -0.358 N 
HETATM   23  H   UNL     1      39.707  -8.434   6.447  1.00  0.00     0.162 HD
HETATM   24  O   UNL     1      42.493  -7.351   5.469  1.00  0.00    -0.272 OA
BRANCH  22  25
HETATM   25  C   UNL     1      41.376  -8.569   7.732  1.00  0.00     0.148 C 
BRANCH  25  26
HETATM   26  C   UNL     1      41.564 -10.033   8.120  1.00  0.00     0.186 C 
BRANCH  26  27
HETATM   27  O   UNL     1      42.935 -10.255   8.468  1.00  0.00    -0.394 OA
HETATM   28  C   UNL     1      43.049 -10.940   9.711  1.00  0.00     0.201 C 
ENDBRANCH  26  27
ENDBRANCH  25  26
ENDBRANCH  22  25
ENDBRANCH  20  21
ENDBRANCH   1  20
BRANCH   8  29
HETATM   29  C   UNL     1      40.550 -15.560   1.889  1.00  0.00     0.032 A 
HETATM   30  C   UNL     1      41.439 -15.978   0.896  1.00  0.00     0.018 A 
HETATM   31  C   UNL     1      42.297 -17.052   1.145  1.00  0.00     0.013 A 
HETATM   32  C   UNL     1      42.313 -17.702   2.395  1.00  0.00    -0.026 A 
HETATM   33  C   UNL     1      41.480 -17.187   3.408  1.00  0.00     0.013 A 
HETATM   34  C   UNL     1      40.603 -16.127   3.161  1.00  0.00     0.018 A 
BRANCH  32  35
HETATM   35  C   UNL     1      43.136 -18.912   2.617  1.00  0.00    -0.026 A 
HETATM   36  C   UNL     1      43.096 -20.007   1.737  1.00  0.00     0.012 A 
HETATM   37  C   UNL     1      43.835 -21.168   1.984  1.00  0.00     0.001 A 
HETATM   38  C   UNL     1      44.641 -21.255   3.116  1.00  0.00     0.000 A 
HETATM   39  C   UNL     1      44.708 -20.183   3.999  1.00  0.00     0.001 A 
HETATM   40  C   UNL     1      43.960 -19.027   3.753  1.00  0.00     0.012 A 
ENDBRANCH  32  35
ENDBRANCH   8  29
TORSDOF 8
ENDMDL
MODEL 6
REMARK VINA RESULT:      -7.8      3.869     10.366
REMARK  8 active torsions:
REMARK  status: ('A' for Active; 'I' for Inactive)
REMARK    1  A    between atoms: O_2  and  C_3 
REMARK    2  A    between atoms: C_3  and  C_4 
REMARK    3  A    between atoms: C_4  and  N_5 
REMARK       I    between atoms: N_5  and  C_6 
REMARK    4  A    between atoms: C_6  and  C_7 
REMARK    5  A    between atoms: C_7  and  N_8 
REMARK       I    between atoms: N_14  and  C_15 
REMARK    6  A    between atoms: C_15  and  C_16 
REMARK    7  A    between atoms: C_19  and  C_20 
REMARK    8  A    between atoms: N_31  and  C_32 
ROOT
HETATM    1  N   UNL     1      40.954 -16.063   1.125  1.00  0.00    -0.325 N 
HETATM    2  C   UNL     1      40.004 -15.217   1.640  1.00  0.00     0.250 A 
HETATM    3  O   UNL     1      39.248 -15.489   2.560  1.00  0.00    -0.270 OA
HETATM    4  C   UNL     1      40.033 -13.911   0.815  1.00  0.00     0.118 A 
HETATM    5  C   UNL     1      40.286 -12.738   1.779  1.00  0.00     0.061 C 
HETATM    6  C   UNL     1      39.030 -12.334   2.551  1.00  0.00     0.129 C 
HETATM    7  N   UNL     1      37.885 -12.206   1.656  1.00  0.00    -0.348 N 
HETATM    8  C   UNL     1      37.430 -10.930   1.317  1.00  0.00     0.253 C 
HETATM    9  O   UNL     1      37.968  -9.891   1.694  1.00  0.00    -0.267 OA
HETATM   10  C   UNL     1      37.544 -13.435   0.941  1.00  0.00     0.129 C 
HETATM   11  C   UNL     1      38.702 -13.859   0.044  1.00  0.00     0.061 C 
HETATM   12  N   UNL     1      41.186 -14.151  -0.105  1.00  0.00    -0.346 N 
HETATM   13  C   UNL     1      41.740 -15.484   0.084  1.00  0.00     0.254 A 
ENDROOT
BRANCH  12  14
HETATM   14  C   UNL     1      41.650 -13.346  -1.131  1.00  0.00     0.032 A 
HETATM   15  C   UNL     1      42.402 -12.180  -0.918  1.00  0.00     0.029 A 
HETATM   16  C   UNL     1      42.853 -11.367  -1.969  1.00  0.00     0.002 A 
HETATM   17  C   UNL     1      42.567 -11.700  -3.285  1.00  0.00     0.000 A 
HETATM   18  C   UNL     1      41.838 -12.850  -3.544  1.00  0.00     0.002 A 
HETATM   19  C   UNL     1      41.396 -13.654  -2.484  1.00  0.00     0.029 A 
ENDBRANCH  12  14
BRANCH   1  20
HETATM   20  C   UNL     1      41.212 -17.412   1.607  1.00  0.00     0.230 C 
BRANCH  20  21
HETATM   21  C   UNL     1      42.195 -17.473   2.782  1.00  0.00     0.235 C 
HETATM   22  N   UNL     1      42.939 -18.629   2.872  1.00  0.00    -0.358 N 
HETATM   23  H   UNL     1      42.600 -19.441   2.366  1.00  0.00     0.162 HD
HETATM   24  O   UNL     1      42.244 -16.580   3.625  1.00  0.00    -0.272 OA
BRANCH  22  25
HETATM   25  C   UNL     1      43.780 -18.890   4.027  1.00  0.00     0.148 C 
BRANCH  25  26
HETATM   26  C   UNL     1      44.624 -20.149   3.846  1.00  0.00     0.186 C 
BRANCH  26  27
HETATM   27  O   UNL     1      44.617 -20.525   2.464  1.00  0.00    -0.394 OA
HETATM   28  C   UNL     1      44.363 -21.916   2.307  1.00  0.00     0.201 C 
ENDBRANCH  26  27
ENDBRANCH  25  26
ENDBRANCH  22  25
ENDBRANCH  20  21
ENDBRANCH   1  20
BRANCH   8  29
HETATM   29  C   UNL     1      36.252 -10.815   0.427  1.00  0.00     0.032 A 
HETATM   30  C   UNL     1      34.959 -10.769   0.951  1.00  0.00     0.018 A 
HETATM   31  C   UNL     1      33.861 -10.817   0.087  1.00  0.00     0.013 A 
HETATM   32  C   UNL     1      34.031 -10.872  -1.310  1.00  0.00    -0.026 A 
HETATM   33  C   UNL     1      35.347 -10.810  -1.809  1.00  0.00     0.013 A 
HETATM   34  C   UNL     1      36.451 -10.784  -0.952  1.00  0.00     0.018 A 
BRANCH  32  35
HETATM   35  C   UNL     1      32.872 -11.043  -2.215  1.00  0.00    -0.026 A 
HETATM   36  C   UNL     1      31.569 -10.693  -1.823  1.00  0.00     0.012 A 
HETATM   37  C   UNL     1      30.473 -10.910  -2.666  1.00  0.00     0.001 A 
HETATM   38  C   UNL     1      30.660 -11.473  -3.925  1.00  0.00     0.000 A 
HETATM   39  C   UNL     1      31.940 -11.819  -4.342  1.00  0.00     0.001 A 
HETATM   40  C   UNL     1      33.032 -11.610  -3.494  1.00  0.00     0.012 A 
ENDBRANCH  32  35
ENDBRANCH   8  29
TORSDOF 8
ENDMDL
MODEL 7
REMARK VINA RESULT:      -7.7      3.921     10.301
REMARK  8 active torsions:
REMARK  status: ('A' for Active; 'I' for Inactive)
REMARK    1  A    between atoms: O_2  and  C_3 
REMARK    2  A    between atoms: C_3  and  C_4 
REMARK    3  A    between atoms: C_4  and  N_5 
REMARK       I    between atoms: N_5  and  C_6 
REMARK    4  A    between atoms: C_6  and  C_7 
REMARK    5  A    between atoms: C_7  and  N_8 
REMARK       I    between atoms: N_14  and  C_15 
REMARK    6  A    between atoms: C_15  and  C_16 
REMARK    7  A    between atoms: C_19  and  C_20 
REMARK    8  A    between atoms: N_31  and  C_32 
ROOT
HETATM    1  N   UNL     1      40.861 -16.005   0.999  1.00  0.00    -0.325 N 
HETATM    2  C   UNL     1      39.922 -15.155   1.527  1.00  0.00     0.250 A 
HETATM    3  O   UNL     1      39.178 -15.423   2.458  1.00  0.00    -0.270 OA
HETATM    4  C   UNL     1      39.943 -13.851   0.699  1.00  0.00     0.118 A 
HETATM    5  C   UNL     1      40.213 -12.677   1.657  1.00  0.00     0.061 C 
HETATM    6  C   UNL     1      38.970 -12.267   2.447  1.00  0.00     0.129 C 
HETATM    7  N   UNL     1      37.812 -12.137   1.569  1.00  0.00    -0.348 N 
HETATM    8  C   UNL     1      37.356 -10.860   1.235  1.00  0.00     0.253 C 
HETATM    9  O   UNL     1      37.903  -9.823   1.602  1.00  0.00    -0.267 OA
HETATM   10  C   UNL     1      37.456 -13.366   0.861  1.00  0.00     0.129 C 
HETATM   11  C   UNL     1      38.600 -13.795  -0.052  1.00  0.00     0.061 C 
HETATM   12  N   UNL     1      41.081 -14.096  -0.238  1.00  0.00    -0.346 N 
HETATM   13  C   UNL     1      41.633 -15.430  -0.054  1.00  0.00     0.254 A 
ENDROOT
BRANCH  12  14
HETATM   14  C   UNL     1      41.532 -13.294  -1.272  1.00  0.00     0.032 A 
HETATM   15  C   UNL     1      42.375 -12.189  -1.081  1.00  0.00     0.029 A 
HETATM   16  C   UNL     1      42.813 -11.378  -2.138  1.00  0.00     0.002 A 
HETATM   17  C   UNL     1      42.419 -11.650  -3.440  1.00  0.00     0.000 A 
HETATM   18  C   UNL     1      41.596 -12.740  -3.678  1.00  0.00     0.002 A 
HETATM   19  C   UNL     1      41.169 -13.543  -2.612  1.00  0.00     0.029 A 
ENDBRANCH  12  14
BRANCH   1  20
HETATM   20  C   UNL     1      41.121 -17.354   1.479  1.00  0.00     0.230 C 
BRANCH  20  21
HETATM   21  C   UNL     1      41.848 -17.401   2.828  1.00  0.00     0.235 C 
HETATM   22  N   UNL     1      41.035 -17.374   3.941  1.00  0.00    -0.358 N 
HETATM   23  H   UNL     1      40.084 -17.042   3.813  1.00  0.00     0.162 HD
HETATM   24  O   UNL     1      43.075 -17.380   2.898  1.00  0.00    -0.272 OA
BRANCH  22  25
HETATM   25  C   UNL     1      41.595 -17.241   5.274  1.00  0.00     0.148 C 
BRANCH  25  26
HETATM   26  C   UNL     1      41.529 -15.802   5.780  1.00  0.00     0.186 C 
BRANCH  26  27
HETATM   27  O   UNL     1      40.266 -15.234   5.419  1.00  0.00    -0.394 OA
HETATM   28  C   UNL     1      40.169 -13.877   5.837  1.00  0.00     0.201 C 
ENDBRANCH  26  27
ENDBRANCH  25  26
ENDBRANCH  22  25
ENDBRANCH  20  21
ENDBRANCH   1  20
BRANCH   8  29
HETATM   29  C   UNL     1      36.166 -10.743   0.362  1.00  0.00     0.032 A 
HETATM   30  C   UNL     1      34.880 -10.696   0.905  1.00  0.00     0.018 A 
HETATM   31  C   UNL     1      33.770 -10.742   0.057  1.00  0.00     0.013 A 
HETATM   32  C   UNL     1      33.919 -10.795  -1.342  1.00  0.00    -0.026 A 
HETATM   33  C   UNL     1      35.228 -10.734  -1.860  1.00  0.00     0.013 A 
HETATM   34  C   UNL     1      36.345 -10.710  -1.020  1.00  0.00     0.018 A 
BRANCH  32  35
HETATM   35  C   UNL     1      32.747 -10.964  -2.230  1.00  0.00    -0.026 A 
HETATM   36  C   UNL     1      31.595 -10.172  -2.094  1.00  0.00     0.012 A 
HETATM   37  C   UNL     1      30.471 -10.376  -2.902  1.00  0.00     0.001 A 
HETATM   38  C   UNL     1      30.481 -11.372  -3.874  1.00  0.00     0.000 A 
HETATM   39  C   UNL     1      31.612 -12.164  -4.037  1.00  0.00     0.001 A 
HETATM   40  C   UNL     1      32.730 -11.964  -3.222  1.00  0.00     0.012 A 
ENDBRANCH  32  35
ENDBRANCH   8  29
TORSDOF 8
ENDMDL
MODEL 8
REMARK VINA RESULT:      -7.7      3.669      7.055
REMARK  8 active torsions:
REMARK  status: ('A' for Active; 'I' for Inactive)
REMARK    1  A    between atoms: O_2  and  C_3 
REMARK    2  A    between atoms: C_3  and  C_4 
REMARK    3  A    between atoms: C_4  and  N_5 
REMARK       I    between atoms: N_5  and  C_6 
REMARK    4  A    between atoms: C_6  and  C_7 
REMARK    5  A    between atoms: C_7  and  N_8 
REMARK       I    between atoms: N_14  and  C_15 
REMARK    6  A    between atoms: C_15  and  C_16 
REMARK    7  A    between atoms: C_19  and  C_20 
REMARK    8  A    between atoms: N_31  and  C_32 
ROOT
HETATM    1  N   UNL     1      37.706 -10.143   0.249  1.00  0.00    -0.325 N 
HETATM    2  C   UNL     1      37.816 -11.493   0.027  1.00  0.00     0.250 A 
HETATM    3  O   UNL     1      36.902 -12.297   0.131  1.00  0.00    -0.270 OA
HETATM    4  C   UNL     1      39.292 -11.801  -0.309  1.00  0.00     0.118 A 
HETATM    5  C   UNL     1      39.338 -12.497  -1.681  1.00  0.00     0.061 C 
HETATM    6  C   UNL     1      38.950 -13.974  -1.601  1.00  0.00     0.129 C 
HETATM    7  N   UNL     1      39.650 -14.640  -0.509  1.00  0.00    -0.348 N 
HETATM    8  C   UNL     1      40.713 -15.496  -0.809  1.00  0.00     0.253 C 
HETATM    9  O   UNL     1      41.131 -15.691  -1.947  1.00  0.00    -0.267 OA
HETATM   10  C   UNL     1      39.375 -14.076   0.812  1.00  0.00     0.129 C 
HETATM   11  C   UNL     1      39.840 -12.625   0.870  1.00  0.00     0.061 C 
HETATM   12  N   UNL     1      39.894 -10.434  -0.344  1.00  0.00    -0.346 N 
HETATM   13  C   UNL     1      38.913  -9.419   0.013  1.00  0.00     0.254 A 
ENDROOT
BRANCH  12  14
HETATM   14  C   UNL     1      41.220 -10.082  -0.531  1.00  0.00     0.032 A 
HETATM   15  C   UNL     1      42.082 -10.760  -1.406  1.00  0.00     0.029 A 
HETATM   16  C   UNL     1      43.427 -10.399  -1.575  1.00  0.00     0.002 A 
HETATM   17  C   UNL     1      43.961  -9.333  -0.867  1.00  0.00     0.000 A 
HETATM   18  C   UNL     1      43.143  -8.626   0.001  1.00  0.00     0.002 A 
HETATM   19  C   UNL     1      41.800  -8.995   0.157  1.00  0.00     0.029 A 
ENDBRANCH  12  14
BRANCH   1  20
HETATM   20  C   UNL     1      36.477  -9.463   0.630  1.00  0.00     0.230 C 
BRANCH  20  21
HETATM   21  C   UNL     1      36.570  -8.720   1.968  1.00  0.00     0.235 C 
HETATM   22  N   UNL     1      36.060  -9.394   3.056  1.00  0.00    -0.358 N 
HETATM   23  H   UNL     1      35.424 -10.163   2.870  1.00  0.00     0.162 HD
HETATM   24  O   UNL     1      36.995  -7.569   2.036  1.00  0.00    -0.272 OA
BRANCH  22  25
HETATM   25  C   UNL     1      35.927  -8.741   4.347  1.00  0.00     0.148 C 
BRANCH  25  26
HETATM   26  C   UNL     1      34.486  -8.330   4.634  1.00  0.00     0.186 C 
BRANCH  26  27
HETATM   27  O   UNL     1      33.875  -9.314   5.476  1.00  0.00    -0.394 OA
HETATM   28  C   UNL     1      32.710  -9.862   4.871  1.00  0.00     0.201 C 
ENDBRANCH  26  27
ENDBRANCH  25  26
ENDBRANCH  22  25
ENDBRANCH  20  21
ENDBRANCH   1  20
BRANCH   8  29
HETATM   29  C   UNL     1      41.400 -16.184   0.308  1.00  0.00     0.032 A 
HETATM   30  C   UNL     1      42.622 -15.717   0.796  1.00  0.00     0.018 A 
HETATM   31  C   UNL     1      43.322 -16.471   1.742  1.00  0.00     0.013 A 
HETATM   32  C   UNL     1      42.801 -17.679   2.246  1.00  0.00    -0.026 A 
HETATM   33  C   UNL     1      41.518 -18.066   1.812  1.00  0.00     0.013 A 
HETATM   34  C   UNL     1      40.820 -17.330   0.850  1.00  0.00     0.018 A 
BRANCH  32  35
HETATM   35  C   UNL     1      43.596 -18.533   3.156  1.00  0.00    -0.026 A 
HETATM   36  C   UNL     1      43.962 -18.105   4.443  1.00  0.00     0.012 A 
HETATM   37  C   UNL     1      44.760 -18.898   5.275  1.00  0.00     0.001 A 
HETATM   38  C   UNL     1      45.201 -20.144   4.839  1.00  0.00     0.000 A 
HETATM   39  C   UNL     1      44.845 -20.597   3.574  1.00  0.00     0.001 A 
HETATM   40  C   UNL     1      44.055 -19.798   2.742  1.00  0.00     0.012 A 
ENDBRANCH  32  35
ENDBRANCH   8  29
TORSDOF 8
ENDMDL
MODEL 9
REMARK VINA RESULT:      -7.7      4.996      8.082
REMARK  8 active torsions:
REMARK  status: ('A' for Active; 'I' for Inactive)
REMARK    1  A    between atoms: O_2  and  C_3 
REMARK    2  A    between atoms: C_3  and  C_4 
REMARK    3  A    between atoms: C_4  and  N_5 
REMARK       I    between atoms: N_5  and  C_6 
REMARK    4  A    between atoms: C_6  and  C_7 
REMARK    5  A    between atoms: C_7  and  N_8 
REMARK       I    between atoms: N_14  and  C_15 
REMARK    6  A    between atoms: C_15  and  C_16 
REMARK    7  A    between atoms: C_19  and  C_20 
REMARK    8  A    between atoms: N_31  and  C_32 
ROOT
HETATM    1  N   UNL     1      41.931 -13.238  -0.174  1.00  0.00    -0.325 N 
HETATM    2  C   UNL     1      41.188 -12.494   0.708  1.00  0.00     0.250 A 
HETATM    3  O   UNL     1      40.765 -11.369   0.492  1.00  0.00    -0.270 OA
HETATM    4  C   UNL     1      41.046 -13.306   2.014  1.00  0.00     0.118 A 
HETATM    5  C   UNL     1      39.545 -13.479   2.313  1.00  0.00     0.061 C 
HETATM    6  C   UNL     1      38.921 -12.221   2.916  1.00  0.00     0.129 C 
HETATM    7  N   UNL     1      39.744 -11.696   4.000  1.00  0.00    -0.348 N 
HETATM    8  C   UNL     1      39.325 -11.881   5.319  1.00  0.00     0.253 C 
HETATM    9  O   UNL     1      38.314 -12.505   5.633  1.00  0.00    -0.267 OA
HETATM   10  C   UNL     1      41.099 -11.322   3.596  1.00  0.00     0.129 C 
HETATM   11  C   UNL     1      41.850 -12.547   3.084  1.00  0.00     0.061 C 
HETATM   12  N   UNL     1      41.706 -14.597   1.651  1.00  0.00    -0.346 N 
HETATM   13  C   UNL     1      42.259 -14.543   0.305  1.00  0.00     0.254 A 
ENDROOT
BRANCH  12  14
HETATM   14  C   UNL     1      41.945 -15.698   2.455  1.00  0.00     0.032 A 
HETATM   15  C   UNL     1      40.975 -16.264   3.296  1.00  0.00     0.029 A 
HETATM   16  C   UNL     1      41.236 -17.372   4.116  1.00  0.00     0.002 A 
HETATM   17  C   UNL     1      42.491 -17.961   4.119  1.00  0.00     0.000 A 
HETATM   18  C   UNL     1      43.478 -17.443   3.294  1.00  0.00     0.002 A 
HETATM   19  C   UNL     1      43.202 -16.338   2.478  1.00  0.00     0.029 A 
ENDBRANCH  12  14
BRANCH   1  20
HETATM   20  C   UNL     1      42.317 -12.802  -1.507  1.00  0.00     0.230 C 
BRANCH  20  21
HETATM   21  C   UNL     1      41.270 -13.107  -2.585  1.00  0.00     0.235 C 
HETATM   22  N   UNL     1      40.215 -12.223  -2.653  1.00  0.00    -0.358 N 
HETATM   23  H   UNL     1      40.049 -11.635  -1.844  1.00  0.00     0.162 HD
HETATM   24  O   UNL     1      41.337 -14.120  -3.277  1.00  0.00    -0.272 OA
BRANCH  22  25
HETATM   25  C   UNL     1      39.071 -12.487  -3.509  1.00  0.00     0.148 C 
BRANCH  25  26
HETATM   26  C   UNL     1      37.847 -12.921  -2.708  1.00  0.00     0.186 C 
BRANCH  26  27
HETATM   27  O   UNL     1      37.952 -14.318  -2.409  1.00  0.00    -0.394 OA
HETATM   28  C   UNL     1      37.574 -15.115  -3.526  1.00  0.00     0.201 C 
ENDBRANCH  26  27
ENDBRANCH  25  26
ENDBRANCH  22  25
ENDBRANCH  20  21
ENDBRANCH   1  20
BRANCH   8  29
HETATM   29  C   UNL     1      40.158 -11.322   6.408  1.00  0.00     0.032 A 
HETATM   30  C   UNL     1      41.462 -11.775   6.619  1.00  0.00     0.018 A 
HETATM   31  C   UNL     1      42.170 -11.345   7.744  1.00  0.00     0.013 A 
HETATM   32  C   UNL     1      41.609 -10.429   8.656  1.00  0.00    -0.026 A 
HETATM   33  C   UNL     1      40.333  -9.911   8.356  1.00  0.00     0.013 A 
HETATM   34  C   UNL     1      39.609 -10.352   7.245  1.00  0.00     0.018 A 
BRANCH  32  35
HETATM   35  C   UNL     1      42.313 -10.067   9.907  1.00  0.00    -0.026 A 
HETATM   36  C   UNL     1      43.491 -10.718  10.308  1.00  0.00     0.012 A 
HETATM   37  C   UNL     1      44.118 -10.407  11.520  1.00  0.00     0.001 A 
HETATM   38  C   UNL     1      43.584  -9.428  12.352  1.00  0.00     0.000 A 
HETATM   39  C   UNL     1      42.424  -8.761  11.974  1.00  0.00     0.001 A 
HETATM   40  C   UNL     1      41.794  -9.080  10.768  1.00  0.00     0.012 A 
ENDBRANCH  32  35
ENDBRANCH   8  29
TORSDOF 8
ENDMDL
MODEL 10
REMARK VINA RESULT:      -7.5      3.761      6.034
REMARK  8 active torsions:
REMARK  status: ('A' for Active; 'I' for Inactive)
REMARK    1  A    between atoms: O_2  and  C_3 
REMARK    2  A    between atoms: C_3  and  C_4 
REMARK    3  A    between atoms: C_4  and  N_5 
REMARK       I    between atoms: N_5  and  C_6 
REMARK    4  A    between atoms: C_6  and  C_7 
REMARK    5  A    between atoms: C_7  and  N_8 
REMARK       I    between atoms: N_14  and  C_15 
REMARK    6  A    between atoms: C_15  and  C_16 
REMARK    7  A    between atoms: C_19  and  C_20 
REMARK    8  A    between atoms: N_31  and  C_32 
ROOT
HETATM    1  N   UNL     1      37.854 -11.653   1.538  1.00  0.00    -0.325 N 
HETATM    2  C   UNL     1      39.042 -12.284   1.267  1.00  0.00     0.250 A 
HETATM    3  O   UNL     1      39.360 -12.744   0.182  1.00  0.00    -0.270 OA
HETATM    4  C   UNL     1      39.852 -12.355   2.581  1.00  0.00     0.118 A 
HETATM    5  C   UNL     1      41.212 -11.673   2.345  1.00  0.00     0.061 C 
HETATM    6  C   UNL     1      42.190 -12.567   1.583  1.00  0.00     0.129 C 
HETATM    7  N   UNL     1      42.225 -13.910   2.153  1.00  0.00    -0.348 N 
HETATM    8  C   UNL     1      43.325 -14.289   2.925  1.00  0.00     0.253 C 
HETATM    9  O   UNL     1      44.259 -13.538   3.197  1.00  0.00    -0.267 OA
HETATM   10  C   UNL     1      40.938 -14.604   2.130  1.00  0.00     0.129 C 
HETATM   11  C   UNL     1      39.917 -13.843   2.968  1.00  0.00     0.061 C 
HETATM   12  N   UNL     1      38.985 -11.584   3.523  1.00  0.00    -0.346 N 
HETATM   13  C   UNL     1      37.750 -11.165   2.876  1.00  0.00     0.254 A 
ENDROOT
BRANCH  12  14
HETATM   14  C   UNL     1      39.166 -11.369   4.878  1.00  0.00     0.032 A 
HETATM   15  C   UNL     1      39.387 -10.100   5.435  1.00  0.00     0.029 A 
HETATM   16  C   UNL     1      39.582  -9.900   6.810  1.00  0.00     0.002 A 
HETATM   17  C   UNL     1      39.557 -10.976   7.685  1.00  0.00     0.000 A 
HETATM   18  C   UNL     1      39.328 -12.247   7.181  1.00  0.00     0.002 A 
HETATM   19  C   UNL     1      39.133 -12.431   5.806  1.00  0.00     0.029 A 
ENDBRANCH  12  14
BRANCH   1  20
HETATM   20  C   UNL     1      36.796 -11.424   0.565  1.00  0.00     0.230 C 
BRANCH  20  21
HETATM   21  C   UNL     1      36.978 -10.144  -0.259  1.00  0.00     0.235 C 
HETATM   22  N   UNL     1      38.213  -9.992  -0.852  1.00  0.00    -0.358 N 
HETATM   23  H   UNL     1      38.977 -10.552  -0.486  1.00  0.00     0.162 HD
HETATM   24  O   UNL     1      36.104  -9.282  -0.307  1.00  0.00    -0.272 OA
BRANCH  22  25
HETATM   25  C   UNL     1      38.578  -8.752  -1.515  1.00  0.00     0.148 C 
BRANCH  25  26
HETATM   26  C   UNL     1      39.721  -8.950  -2.507  1.00  0.00     0.186 C 
BRANCH  26  27
HETATM   27  O   UNL     1      40.571 -10.003  -2.040  1.00  0.00    -0.394 OA
HETATM   28  C   UNL     1      41.899  -9.540  -1.827  1.00  0.00     0.201 C 
ENDBRANCH  26  27
ENDBRANCH  25  26
ENDBRANCH  22  25
ENDBRANCH  20  21
ENDBRANCH   1  20
BRANCH   8  29
HETATM   29  C   UNL     1      43.358 -15.662   3.478  1.00  0.00     0.032 A 
HETATM   30  C   UNL     1      43.219 -15.887   4.849  1.00  0.00     0.018 A 
HETATM   31  C   UNL     1      43.409 -17.174   5.361  1.00  0.00     0.013 A 
HETATM   32  C   UNL     1      43.700 -18.262   4.515  1.00  0.00    -0.026 A 
HETATM   33  C   UNL     1      43.728 -18.020   3.127  1.00  0.00     0.013 A 
HETATM   34  C   UNL     1      43.562 -16.732   2.609  1.00  0.00     0.018 A 
BRANCH  32  35
HETATM   35  C   UNL     1      44.018 -19.598   5.070  1.00  0.00    -0.026 A 
HETATM   36  C   UNL     1      44.777 -20.536   4.351  1.00  0.00     0.012 A 
HETATM   37  C   UNL     1      45.026 -21.815   4.861  1.00  0.00     0.001 A 
HETATM   38  C   UNL     1      44.526 -22.179   6.108  1.00  0.00     0.000 A 
HETATM   39  C   UNL     1      43.779 -21.267   6.845  1.00  0.00     0.001 A 
HETATM   40  C   UNL     1      43.525 -19.992   6.329  1.00  0.00     0.012 A 
ENDBRANCH  32  35
ENDBRANCH   8  29
TORSDOF 8
ENDMDL
