MODEL 1
REMARK VINA RESULT:      -9.4      0.000      0.000
REMARK  3 active torsions:
REMARK  status: ('A' for Active; 'I' for Inactive)
REMARK    1  A    between atoms: N_7  and  N_8 
REMARK       I    between atoms: N_8  and  C_9 
REMARK    2  A    between atoms: C_9  and  C_10 
REMARK    3  A    between atoms: C_14  and  C_15 
ROOT
HETATM    1  N   UNL     1      43.622 -15.697   5.613  1.00  0.00    -0.241 N 
HETATM    2  C   UNL     1      43.937 -14.363   5.415  1.00  0.00     0.289 C 
HETATM    3  O   UNL     1      44.033 -13.830   4.312  1.00  0.00    -0.264 OA
HETATM    4  H   UNL     1      43.574 -16.080   6.556  1.00  0.00     0.192 HD
ENDROOT
BRANCH   2   5
HETATM    5  C   UNL     1      44.165 -13.617   6.627  1.00  0.00     0.121 A 
HETATM    6  N   UNL     1      45.348 -13.701   7.304  1.00  0.00    -0.272 N 
HETATM    7  H   UNL     1      46.157 -14.258   7.043  1.00  0.00     0.189 HD
HETATM    8  N   UNL     1      45.395 -12.967   8.425  1.00  0.00    -0.174 NA
HETATM    9  C   UNL     1      44.203 -12.353   8.481  1.00  0.00     0.089 A 
HETATM   10  C   UNL     1      43.400 -12.738   7.369  1.00  0.00     0.071 A 
BRANCH   9  11
HETATM   11  C   UNL     1      43.856 -11.444   9.577  1.00  0.00    -0.006 A 
HETATM   12  C   UNL     1      44.560 -11.469  10.791  1.00  0.00     0.015 A 
HETATM   13  C   UNL     1      44.225 -10.590  11.828  1.00  0.00     0.024 A 
HETATM   14  C   UNL     1      43.184  -9.681  11.659  1.00  0.00     0.034 A 
HETATM   15 CL   UNL     1      42.777  -8.601  12.934  1.00  0.00    -0.084 Cl
HETATM   16  C   UNL     1      42.471  -9.644  10.464  1.00  0.00     0.024 A 
HETATM   17  C   UNL     1      42.805 -10.523   9.430  1.00  0.00     0.015 A 
ENDBRANCH   9  11
ENDBRANCH   2   5
BRANCH   1  18
HETATM   18  N   UNL     1      43.408 -16.535   4.553  1.00  0.00    -0.165 NA
HETATM   19  C   UNL     1      43.919 -17.721   4.648  1.00  0.00     0.157 A 
HETATM   20  C   UNL     1      43.829 -18.774   3.646  1.00  0.00     0.027 A 
HETATM   21  C   UNL     1      44.737 -18.312   5.803  1.00  0.00     0.277 A 
HETATM   22  C   UNL     1      43.213 -18.794   2.411  1.00  0.00     0.016 A 
HETATM   23  C   UNL     1      44.523 -19.871   4.156  1.00  0.00     0.048 A 
HETATM   24  C   UNL     1      43.313 -19.976   1.675  1.00  0.00     0.001 A 
HETATM   25  C   UNL     1      44.015 -21.089   2.185  1.00  0.00     0.002 A 
HETATM   26  C   UNL     1      44.632 -21.044   3.442  1.00  0.00     0.030 A 
HETATM   27  N   UNL     1      45.052 -19.595   5.415  1.00  0.00    -0.321 N 
HETATM   28  H   UNL     1      45.593 -20.232   5.982  1.00  0.00     0.169 HD
HETATM   29  O   UNL     1      45.017 -17.719   6.824  1.00  0.00    -0.266 OA
ENDBRANCH   1  18
TORSDOF 3
ENDMDL
MODEL 2
REMARK VINA RESULT:      -9.3      1.844      2.451
REMARK  3 active torsions:
REMARK  status: ('A' for Active; 'I' for Inactive)
REMARK    1  A    between atoms: N_7  and  N_8 
REMARK       I    between atoms: N_8  and  C_9 
REMARK    2  A    between atoms: C_9  and  C_10 
REMARK    3  A    between atoms: C_14  and  C_15 
ROOT
HETATM    1  N   UNL     1      44.353 -14.712   7.300  1.00  0.00    -0.241 N 
HETATM    2  C   UNL     1      45.189 -13.614   7.195  1.00  0.00     0.289 C 
HETATM    3  O   UNL     1      46.061 -13.485   6.339  1.00  0.00    -0.264 OA
HETATM    4  H   UNL     1      43.661 -14.762   8.046  1.00  0.00     0.192 HD
ENDROOT
BRANCH   2   5
HETATM    5  C   UNL     1      44.971 -12.599   8.196  1.00  0.00     0.121 A 
HETATM    6  N   UNL     1      45.977 -11.766   8.596  1.00  0.00    -0.272 N 
HETATM    7  H   UNL     1      46.932 -11.761   8.251  1.00  0.00     0.189 HD
HETATM    8  N   UNL     1      45.623 -10.895   9.553  1.00  0.00    -0.174 NA
HETATM    9  C   UNL     1      44.324 -11.145   9.778  1.00  0.00     0.089 A 
HETATM   10  C   UNL     1      43.878 -12.212   8.946  1.00  0.00     0.071 A 
BRANCH   9  11
HETATM   11  C   UNL     1      43.555 -10.387  10.770  1.00  0.00    -0.006 A 
HETATM   12  C   UNL     1      43.998 -10.271  12.097  1.00  0.00     0.015 A 
HETATM   13  C   UNL     1      43.259  -9.539  13.034  1.00  0.00     0.024 A 
HETATM   14  C   UNL     1      42.073  -8.918  12.651  1.00  0.00     0.034 A 
HETATM   15 CL   UNL     1      41.170  -8.017  13.804  1.00  0.00    -0.084 Cl
HETATM   16  C   UNL     1      41.615  -9.025  11.341  1.00  0.00     0.024 A 
HETATM   17  C   UNL     1      42.352  -9.759  10.407  1.00  0.00     0.015 A 
ENDBRANCH   9  11
ENDBRANCH   2   5
BRANCH   1  18
HETATM   18  N   UNL     1      44.464 -15.767   6.436  1.00  0.00    -0.165 NA
HETATM   19  C   UNL     1      44.183 -16.935   6.919  1.00  0.00     0.157 A 
HETATM   20  C   UNL     1      44.239 -18.196   6.193  1.00  0.00     0.027 A 
HETATM   21  C   UNL     1      43.740 -17.292   8.343  1.00  0.00     0.277 A 
HETATM   22  C   UNL     1      44.577 -18.469   4.883  1.00  0.00     0.016 A 
HETATM   23  C   UNL     1      43.869 -19.193   7.096  1.00  0.00     0.048 A 
HETATM   24  C   UNL     1      44.534 -19.807   4.486  1.00  0.00     0.001 A 
HETATM   25  C   UNL     1      44.162 -20.821   5.395  1.00  0.00     0.002 A 
HETATM   26  C   UNL     1      43.823 -20.518   6.720  1.00  0.00     0.030 A 
HETATM   27  N   UNL     1      43.579 -18.660   8.350  1.00  0.00    -0.321 N 
HETATM   28  H   UNL     1      43.290 -19.183   9.163  1.00  0.00     0.169 HD
HETATM   29  O   UNL     1      43.580 -16.487   9.238  1.00  0.00    -0.266 OA
ENDBRANCH   1  18
TORSDOF 3
ENDMDL
MODEL 3
REMARK VINA RESULT:      -9.2      1.912      3.127
REMARK  3 active torsions:
REMARK  status: ('A' for Active; 'I' for Inactive)
REMARK    1  A    between atoms: N_7  and  N_8 
REMARK       I    between atoms: N_8  and  C_9 
REMARK    2  A    between atoms: C_9  and  C_10 
REMARK    3  A    between atoms: C_14  and  C_15 
ROOT
HETATM    1  N   UNL     1      44.196 -14.537   7.589  1.00  0.00    -0.241 N 
HETATM    2  C   UNL     1      45.137 -13.524   7.535  1.00  0.00     0.289 C 
HETATM    3  O   UNL     1      46.096 -13.507   6.766  1.00  0.00    -0.264 OA
HETATM    4  H   UNL     1      43.434 -14.496   8.263  1.00  0.00     0.192 HD
ENDROOT
BRANCH   2   5
HETATM    5  C   UNL     1      44.921 -12.456   8.480  1.00  0.00     0.121 A 
HETATM    6  N   UNL     1      45.898 -11.544   8.761  1.00  0.00    -0.272 N 
HETATM    7  H   UNL     1      46.829 -11.511   8.356  1.00  0.00     0.189 HD
HETATM    8  N   UNL     1      45.551 -10.630   9.678  1.00  0.00    -0.174 NA
HETATM    9  C   UNL     1      44.284 -10.934  10.001  1.00  0.00     0.089 A 
HETATM   10  C   UNL     1      43.853 -12.078   9.270  1.00  0.00     0.071 A 
BRANCH   9  11
HETATM   11  C   UNL     1      43.533 -10.153  10.988  1.00  0.00    -0.006 A 
HETATM   12  C   UNL     1      42.408  -9.401  10.615  1.00  0.00     0.015 A 
HETATM   13  C   UNL     1      41.694  -8.665  11.568  1.00  0.00     0.024 A 
HETATM   14  C   UNL     1      42.100  -8.677  12.900  1.00  0.00     0.034 A 
HETATM   15 CL   UNL     1      41.218  -7.774  14.069  1.00  0.00    -0.084 Cl
HETATM   16  C   UNL     1      43.215  -9.413  13.290  1.00  0.00     0.024 A 
HETATM   17  C   UNL     1      43.928 -10.145  12.336  1.00  0.00     0.015 A 
ENDBRANCH   9  11
ENDBRANCH   2   5
BRANCH   1  18
HETATM   18  N   UNL     1      44.291 -15.630   6.771  1.00  0.00    -0.165 NA
HETATM   19  C   UNL     1      43.444 -15.689   5.793  1.00  0.00     0.157 A 
HETATM   20  C   UNL     1      43.350 -16.756   4.806  1.00  0.00     0.027 A 
HETATM   21  C   UNL     1      42.343 -14.686   5.431  1.00  0.00     0.277 A 
HETATM   22  C   UNL     1      44.090 -17.910   4.653  1.00  0.00     0.016 A 
HETATM   23  C   UNL     1      42.301 -16.418   3.952  1.00  0.00     0.048 A 
HETATM   24  C   UNL     1      43.743 -18.745   3.589  1.00  0.00     0.001 A 
HETATM   25  C   UNL     1      42.682 -18.410   2.721  1.00  0.00     0.002 A 
HETATM   26  C   UNL     1      41.945 -17.231   2.899  1.00  0.00     0.030 A 
HETATM   27  N   UNL     1      41.715 -15.208   4.321  1.00  0.00    -0.321 N 
HETATM   28  H   UNL     1      40.941 -14.760   3.856  1.00  0.00     0.169 HD
HETATM   29  O   UNL     1      42.118 -13.658   6.036  1.00  0.00    -0.266 OA
ENDBRANCH   1  18
TORSDOF 3
ENDMDL
MODEL 4
REMARK VINA RESULT:      -9.0      3.956      9.726
REMARK  3 active torsions:
REMARK  status: ('A' for Active; 'I' for Inactive)
REMARK    1  A    between atoms: N_7  and  N_8 
REMARK       I    between atoms: N_8  and  C_9 
REMARK    2  A    between atoms: C_9  and  C_10 
REMARK    3  A    between atoms: C_14  and  C_15 
ROOT
HETATM    1  N   UNL     1      42.900 -12.334   6.940  1.00  0.00    -0.241 N 
HETATM    2  C   UNL     1      42.016 -12.761   5.964  1.00  0.00     0.289 C 
HETATM    3  O   UNL     1      40.872 -12.334   5.831  1.00  0.00    -0.264 OA
HETATM    4  H   UNL     1      43.831 -12.742   7.005  1.00  0.00     0.192 HD
ENDROOT
BRANCH   2   5
HETATM    5  C   UNL     1      42.538 -13.782   5.091  1.00  0.00     0.121 A 
HETATM    6  N   UNL     1      43.230 -13.464   3.957  1.00  0.00    -0.272 N 
HETATM    7  H   UNL     1      43.449 -12.529   3.623  1.00  0.00     0.189 HD
HETATM    8  N   UNL     1      43.627 -14.524   3.238  1.00  0.00    -0.174 NA
HETATM    9  C   UNL     1      43.201 -15.588   3.936  1.00  0.00     0.089 A 
HETATM   10  C   UNL     1      42.510 -15.163   5.107  1.00  0.00     0.071 A 
BRANCH   9  11
HETATM   11  C   UNL     1      43.445 -16.958   3.476  1.00  0.00    -0.006 A 
HETATM   12  C   UNL     1      43.650 -18.005   4.388  1.00  0.00     0.015 A 
HETATM   13  C   UNL     1      43.875 -19.311   3.936  1.00  0.00     0.024 A 
HETATM   14  C   UNL     1      43.896 -19.579   2.570  1.00  0.00     0.034 A 
HETATM   15 CL   UNL     1      44.169 -21.185   2.019  1.00  0.00    -0.084 Cl
HETATM   16  C   UNL     1      43.699 -18.554   1.649  1.00  0.00     0.024 A 
HETATM   17  C   UNL     1      43.477 -17.250   2.102  1.00  0.00     0.015 A 
ENDBRANCH   9  11
ENDBRANCH   2   5
BRANCH   1  18
HETATM   18  N   UNL     1      42.533 -11.389   7.860  1.00  0.00    -0.165 NA
HETATM   19  C   UNL     1      43.191 -11.389   8.975  1.00  0.00     0.157 A 
HETATM   20  C   UNL     1      42.970 -10.487  10.097  1.00  0.00     0.027 A 
HETATM   21  C   UNL     1      44.335 -12.315   9.401  1.00  0.00     0.277 A 
HETATM   22  C   UNL     1      42.068  -9.456  10.262  1.00  0.00     0.016 A 
HETATM   23  C   UNL     1      43.888 -10.846  11.084  1.00  0.00     0.048 A 
HETATM   24  C   UNL     1      42.108  -8.771  11.478  1.00  0.00     0.001 A 
HETATM   25  C   UNL     1      43.034  -9.130  12.481  1.00  0.00     0.002 A 
HETATM   26  C   UNL     1      43.940 -10.181  12.289  1.00  0.00     0.030 A 
HETATM   27  N   UNL     1      44.683 -11.915  10.673  1.00  0.00    -0.321 N 
HETATM   28  H   UNL     1      45.415 -12.349  11.214  1.00  0.00     0.169 HD
HETATM   29  O   UNL     1      44.797 -13.203   8.715  1.00  0.00    -0.266 OA
ENDBRANCH   1  18
TORSDOF 3
ENDMDL
MODEL 5
REMARK VINA RESULT:      -8.8      7.309     10.600
REMARK  3 active torsions:
REMARK  status: ('A' for Active; 'I' for Inactive)
REMARK    1  A    between atoms: N_7  and  N_8 
REMARK       I    between atoms: N_8  and  C_9 
REMARK    2  A    between atoms: C_9  and  C_10 
REMARK    3  A    between atoms: C_14  and  C_15 
ROOT
HETATM    1  N   UNL     1      42.238 -14.147  -1.618  1.00  0.00    -0.241 N 
HETATM    2  C   UNL     1      41.113 -14.859  -1.237  1.00  0.00     0.289 C 
HETATM    3  O   UNL     1      40.019 -14.773  -1.789  1.00  0.00    -0.264 OA
HETATM    4  H   UNL     1      43.112 -14.254  -1.106  1.00  0.00     0.192 HD
ENDROOT
BRANCH   2   5
HETATM    5  C   UNL     1      41.312 -15.729  -0.105  1.00  0.00     0.121 A 
HETATM    6  N   UNL     1      40.334 -15.915   0.830  1.00  0.00    -0.272 N 
HETATM    7  H   UNL     1      39.410 -15.494   0.831  1.00  0.00     0.189 HD
HETATM    8  N   UNL     1      40.681 -16.733   1.835  1.00  0.00    -0.174 NA
HETATM    9  C   UNL     1      41.931 -17.123   1.540  1.00  0.00     0.089 A 
HETATM   10  C   UNL     1      42.364 -16.512   0.329  1.00  0.00     0.071 A 
BRANCH   9  11
HETATM   11  C   UNL     1      42.676 -18.040   2.409  1.00  0.00    -0.006 A 
HETATM   12  C   UNL     1      42.609 -17.931   3.806  1.00  0.00     0.015 A 
HETATM   13  C   UNL     1      43.319 -18.817   4.625  1.00  0.00     0.024 A 
HETATM   14  C   UNL     1      44.100 -19.818   4.052  1.00  0.00     0.034 A 
HETATM   15 CL   UNL     1      44.968 -20.907   5.062  1.00  0.00    -0.084 Cl
HETATM   16  C   UNL     1      44.182 -19.940   2.668  1.00  0.00     0.024 A 
HETATM   17  C   UNL     1      43.475 -19.053   1.852  1.00  0.00     0.015 A 
ENDBRANCH   9  11
ENDBRANCH   2   5
BRANCH   1  18
HETATM   18  N   UNL     1      42.191 -13.259  -2.659  1.00  0.00    -0.165 NA
HETATM   19  C   UNL     1      42.370 -12.013  -2.357  1.00  0.00     0.157 A 
HETATM   20  C   UNL     1      42.355 -10.897  -3.293  1.00  0.00     0.027 A 
HETATM   21  C   UNL     1      42.629 -11.399  -0.977  1.00  0.00     0.277 A 
HETATM   22  C   UNL     1      42.164 -10.867  -4.659  1.00  0.00     0.016 A 
HETATM   23  C   UNL     1      42.578  -9.744  -2.541  1.00  0.00     0.048 A 
HETATM   24  C   UNL     1      42.204  -9.614  -5.274  1.00  0.00     0.001 A 
HETATM   25  C   UNL     1      42.429  -8.443  -4.520  1.00  0.00     0.002 A 
HETATM   26  C   UNL     1      42.620  -8.500  -3.133  1.00  0.00     0.030 A 
HETATM   27  N   UNL     1      42.738 -10.042  -1.189  1.00  0.00    -0.321 N 
HETATM   28  H   UNL     1      42.909  -9.374  -0.452  1.00  0.00     0.169 HD
HETATM   29  O   UNL     1      42.711 -12.031   0.056  1.00  0.00    -0.266 OA
ENDBRANCH   1  18
TORSDOF 3
ENDMDL
MODEL 6
REMARK VINA RESULT:      -8.7      6.751     10.159
REMARK  3 active torsions:
REMARK  status: ('A' for Active; 'I' for Inactive)
REMARK    1  A    between atoms: N_7  and  N_8 
REMARK       I    between atoms: N_8  and  C_9 
REMARK    2  A    between atoms: C_9  and  C_10 
REMARK    3  A    between atoms: C_14  and  C_15 
ROOT
HETATM    1  N   UNL     1      39.940 -15.468   1.329  1.00  0.00    -0.241 N 
HETATM    2  C   UNL     1      40.911 -15.831   0.412  1.00  0.00     0.289 C 
HETATM    3  O   UNL     1      40.936 -15.454  -0.757  1.00  0.00    -0.264 OA
HETATM    4  H   UNL     1      39.970 -15.830   2.281  1.00  0.00     0.192 HD
ENDROOT
BRANCH   2   5
HETATM    5  C   UNL     1      41.920 -16.721   0.931  1.00  0.00     0.121 A 
HETATM    6  N   UNL     1      43.225 -16.622   0.540  1.00  0.00    -0.272 N 
HETATM    7  H   UNL     1      43.612 -15.948  -0.114  1.00  0.00     0.189 HD
HETATM    8  N   UNL     1      44.036 -17.537   1.092  1.00  0.00    -0.174 NA
HETATM    9  C   UNL     1      43.240 -18.255   1.899  1.00  0.00     0.089 A 
HETATM   10  C   UNL     1      41.901 -17.774   1.824  1.00  0.00     0.071 A 
BRANCH   9  11
HETATM   11  C   UNL     1      43.758 -19.370   2.697  1.00  0.00    -0.006 A 
HETATM   12  C   UNL     1      43.846 -20.665   2.164  1.00  0.00     0.015 A 
HETATM   13  C   UNL     1      44.350 -21.721   2.934  1.00  0.00     0.024 A 
HETATM   14  C   UNL     1      44.769 -21.488   4.241  1.00  0.00     0.034 A 
HETATM   15 CL   UNL     1      45.390 -22.787   5.182  1.00  0.00    -0.084 Cl
HETATM   16  C   UNL     1      44.686 -20.212   4.790  1.00  0.00     0.024 A 
HETATM   17  C   UNL     1      44.180 -19.159   4.021  1.00  0.00     0.015 A 
ENDBRANCH   9  11
ENDBRANCH   2   5
BRANCH   1  18
HETATM   18  N   UNL     1      38.902 -14.651   0.971  1.00  0.00    -0.165 NA
HETATM   19  C   UNL     1      38.822 -13.519   1.594  1.00  0.00     0.157 A 
HETATM   20  C   UNL     1      37.803 -12.499   1.387  1.00  0.00     0.027 A 
HETATM   21  C   UNL     1      39.746 -12.971   2.688  1.00  0.00     0.277 A 
HETATM   22  C   UNL     1      36.725 -12.463   0.526  1.00  0.00     0.016 A 
HETATM   23  C   UNL     1      38.094 -11.460   2.269  1.00  0.00     0.048 A 
HETATM   24  C   UNL     1      35.919 -11.324   0.573  1.00  0.00     0.001 A 
HETATM   25  C   UNL     1      36.207 -10.268   1.464  1.00  0.00     0.002 A 
HETATM   26  C   UNL     1      37.308 -10.329   2.328  1.00  0.00     0.030 A 
HETATM   27  N   UNL     1      39.230 -11.740   3.027  1.00  0.00    -0.321 N 
HETATM   28  H   UNL     1      39.634 -11.140   3.731  1.00  0.00     0.169 HD
HETATM   29  O   UNL     1      40.718 -13.552   3.125  1.00  0.00    -0.266 OA
ENDBRANCH   1  18
TORSDOF 3
ENDMDL
MODEL 7
REMARK VINA RESULT:      -8.5      7.401     10.646
REMARK  3 active torsions:
REMARK  status: ('A' for Active; 'I' for Inactive)
REMARK    1  A    between atoms: N_7  and  N_8 
REMARK       I    between atoms: N_8  and  C_9 
REMARK    2  A    between atoms: C_9  and  C_10 
REMARK    3  A    between atoms: C_14  and  C_15 
ROOT
HETATM    1  N   UNL     1      40.180 -14.965   0.042  1.00  0.00    -0.241 N 
HETATM    2  C   UNL     1      40.347 -15.393   1.348  1.00  0.00     0.289 C 
HETATM    3  O   UNL     1      39.703 -14.968   2.304  1.00  0.00    -0.264 OA
HETATM    4  H   UNL     1      40.760 -15.348  -0.703  1.00  0.00     0.192 HD
ENDROOT
BRANCH   2   5
HETATM    5  C   UNL     1      41.368 -16.395   1.522  1.00  0.00     0.121 A 
HETATM    6  N   UNL     1      42.359 -16.571   0.598  1.00  0.00    -0.272 N 
HETATM    7  H   UNL     1      42.487 -16.043  -0.260  1.00  0.00     0.189 HD
HETATM    8  N   UNL     1      43.217 -17.559   0.891  1.00  0.00    -0.174 NA
HETATM    9  C   UNL     1      42.791 -18.043   2.069  1.00  0.00     0.089 A 
HETATM   10  C   UNL     1      41.629 -17.338   2.497  1.00  0.00     0.071 A 
BRANCH   9  11
HETATM   11  C   UNL     1      43.477 -19.151   2.740  1.00  0.00    -0.006 A 
HETATM   12  C   UNL     1      43.950 -19.022   4.055  1.00  0.00     0.015 A 
HETATM   13  C   UNL     1      44.597 -20.090   4.688  1.00  0.00     0.024 A 
HETATM   14  C   UNL     1      44.776 -21.293   4.010  1.00  0.00     0.034 A 
HETATM   15 CL   UNL     1      45.569 -22.604   4.792  1.00  0.00    -0.084 Cl
HETATM   16  C   UNL     1      44.318 -21.439   2.704  1.00  0.00     0.024 A 
HETATM   17  C   UNL     1      43.674 -20.371   2.072  1.00  0.00     0.015 A 
ENDBRANCH   9  11
ENDBRANCH   2   5
BRANCH   1  18
HETATM   18  N   UNL     1      39.267 -13.995  -0.271  1.00  0.00    -0.165 NA
HETATM   19  C   UNL     1      38.943 -13.895  -1.520  1.00  0.00     0.157 A 
HETATM   20  C   UNL     1      38.003 -12.936  -2.085  1.00  0.00     0.027 A 
HETATM   21  C   UNL     1      39.452 -14.727  -2.702  1.00  0.00     0.277 A 
HETATM   22  C   UNL     1      37.252 -11.947  -1.483  1.00  0.00     0.016 A 
HETATM   23  C   UNL     1      37.965 -13.176  -3.458  1.00  0.00     0.048 A 
HETATM   24  C   UNL     1      36.435 -11.180  -2.317  1.00  0.00     0.001 A 
HETATM   25  C   UNL     1      36.393 -11.417  -3.707  1.00  0.00     0.002 A 
HETATM   26  C   UNL     1      37.166 -12.428  -4.294  1.00  0.00     0.030 A 
HETATM   27  N   UNL     1      38.814 -14.223  -3.814  1.00  0.00    -0.321 N 
HETATM   28  H   UNL     1      38.955 -14.578  -4.748  1.00  0.00     0.169 HD
HETATM   29  O   UNL     1      40.256 -15.632  -2.613  1.00  0.00    -0.266 OA
ENDBRANCH   1  18
TORSDOF 3
ENDMDL
MODEL 8
REMARK VINA RESULT:      -8.5      6.786      9.001
REMARK  3 active torsions:
REMARK  status: ('A' for Active; 'I' for Inactive)
REMARK    1  A    between atoms: N_7  and  N_8 
REMARK       I    between atoms: N_8  and  C_9 
REMARK    2  A    between atoms: C_9  and  C_10 
REMARK    3  A    between atoms: C_14  and  C_15 
ROOT
HETATM    1  N   UNL     1      42.515 -16.139   2.197  1.00  0.00    -0.241 N 
HETATM    2  C   UNL     1      41.300 -16.089   1.536  1.00  0.00     0.289 C 
HETATM    3  O   UNL     1      40.274 -16.640   1.929  1.00  0.00    -0.264 OA
HETATM    4  H   UNL     1      43.332 -15.671   1.807  1.00  0.00     0.192 HD
ENDROOT
BRANCH   2   5
HETATM    5  C   UNL     1      41.317 -15.332   0.309  1.00  0.00     0.121 A 
HETATM    6  N   UNL     1      40.901 -15.880  -0.871  1.00  0.00    -0.272 N 
HETATM    7  H   UNL     1      40.546 -16.821  -1.010  1.00  0.00     0.189 HD
HETATM    8  N   UNL     1      41.003 -15.058  -1.926  1.00  0.00    -0.174 NA
HETATM    9  C   UNL     1      41.484 -13.911  -1.420  1.00  0.00     0.089 A 
HETATM   10  C   UNL     1      41.696 -14.045  -0.018  1.00  0.00     0.071 A 
BRANCH   9  11
HETATM   11  C   UNL     1      41.737 -12.742  -2.268  1.00  0.00    -0.006 A 
HETATM   12  C   UNL     1      42.543 -11.683  -1.821  1.00  0.00     0.015 A 
HETATM   13  C   UNL     1      42.784 -10.575  -2.642  1.00  0.00     0.024 A 
HETATM   14  C   UNL     1      42.222 -10.519  -3.915  1.00  0.00     0.034 A 
HETATM   15 CL   UNL     1      42.524  -9.158  -4.923  1.00  0.00    -0.084 Cl
HETATM   16  C   UNL     1      41.417 -11.558  -4.375  1.00  0.00     0.024 A 
HETATM   17  C   UNL     1      41.175 -12.662  -3.553  1.00  0.00     0.015 A 
ENDBRANCH   9  11
ENDBRANCH   2   5
BRANCH   1  18
HETATM   18  N   UNL     1      42.656 -16.845   3.360  1.00  0.00    -0.165 NA
HETATM   19  C   UNL     1      43.321 -17.953   3.280  1.00  0.00     0.157 A 
HETATM   20  C   UNL     1      43.589 -18.870   4.380  1.00  0.00     0.027 A 
HETATM   21  C   UNL     1      43.975 -18.580   2.044  1.00  0.00     0.277 A 
HETATM   22  C   UNL     1      43.237 -18.808   5.713  1.00  0.00     0.016 A 
HETATM   23  C   UNL     1      44.324 -19.929   3.846  1.00  0.00     0.048 A 
HETATM   24  C   UNL     1      43.651 -19.866   6.524  1.00  0.00     0.001 A 
HETATM   25  C   UNL     1      44.394 -20.941   5.990  1.00  0.00     0.002 A 
HETATM   26  C   UNL     1      44.739 -20.980   4.633  1.00  0.00     0.030 A 
HETATM   27  N   UNL     1      44.546 -19.755   2.481  1.00  0.00    -0.321 N 
HETATM   28  H   UNL     1      45.051 -20.387   1.879  1.00  0.00     0.169 HD
HETATM   29  O   UNL     1      43.960 -18.092   0.933  1.00  0.00    -0.266 OA
ENDBRANCH   1  18
TORSDOF 3
ENDMDL
MODEL 9
REMARK VINA RESULT:      -8.4      2.550      2.980
REMARK  3 active torsions:
REMARK  status: ('A' for Active; 'I' for Inactive)
REMARK    1  A    between atoms: N_7  and  N_8 
REMARK       I    between atoms: N_8  and  C_9 
REMARK    2  A    between atoms: C_9  and  C_10 
REMARK    3  A    between atoms: C_14  and  C_15 
ROOT
HETATM    1  N   UNL     1      41.824 -15.575   3.988  1.00  0.00    -0.241 N 
HETATM    2  C   UNL     1      42.250 -14.338   3.536  1.00  0.00     0.289 C 
HETATM    3  O   UNL     1      42.880 -14.158   2.497  1.00  0.00    -0.264 OA
HETATM    4  H   UNL     1      41.319 -15.654   4.869  1.00  0.00     0.192 HD
ENDROOT
BRANCH   2   5
HETATM    5  C   UNL     1      41.907 -13.235   4.400  1.00  0.00     0.121 A 
HETATM    6  N   UNL     1      41.866 -11.952   3.935  1.00  0.00    -0.272 N 
HETATM    7  H   UNL     1      42.054 -11.646   2.984  1.00  0.00     0.189 HD
HETATM    8  N   UNL     1      41.557 -11.038   4.866  1.00  0.00    -0.174 NA
HETATM    9  C   UNL     1      41.360 -11.747   5.988  1.00  0.00     0.089 A 
HETATM   10  C   UNL     1      41.573 -13.133   5.737  1.00  0.00     0.071 A 
BRANCH   9  11
HETATM   11  C   UNL     1      40.995 -11.102   7.253  1.00  0.00    -0.006 A 
HETATM   12  C   UNL     1      39.660 -11.052   7.683  1.00  0.00     0.015 A 
HETATM   13  C   UNL     1      39.324 -10.439   8.897  1.00  0.00     0.024 A 
HETATM   14  C   UNL     1      40.321  -9.873   9.687  1.00  0.00     0.034 A 
HETATM   15 CL   UNL     1      39.905  -9.124  11.179  1.00  0.00    -0.084 Cl
HETATM   16  C   UNL     1      41.650  -9.908   9.276  1.00  0.00     0.024 A 
HETATM   17  C   UNL     1      41.984 -10.518   8.063  1.00  0.00     0.015 A 
ENDBRANCH   9  11
ENDBRANCH   2   5
BRANCH   1  18
HETATM   18  N   UNL     1      42.103 -16.716   3.286  1.00  0.00    -0.165 NA
HETATM   19  C   UNL     1      42.935 -17.539   3.839  1.00  0.00     0.157 A 
HETATM   20  C   UNL     1      43.386 -18.805   3.277  1.00  0.00     0.027 A 
HETATM   21  C   UNL     1      43.653 -17.400   5.187  1.00  0.00     0.277 A 
HETATM   22  C   UNL     1      43.066 -19.429   2.089  1.00  0.00     0.016 A 
HETATM   23  C   UNL     1      44.279 -19.354   4.197  1.00  0.00     0.048 A 
HETATM   24  C   UNL     1      43.682 -20.657   1.836  1.00  0.00     0.001 A 
HETATM   25  C   UNL     1      44.587 -21.218   2.762  1.00  0.00     0.002 A 
HETATM   26  C   UNL     1      44.895 -20.564   3.962  1.00  0.00     0.030 A 
HETATM   27  N   UNL     1      44.431 -18.530   5.310  1.00  0.00    -0.321 N 
HETATM   28  H   UNL     1      45.023 -18.715   6.107  1.00  0.00     0.169 HD
HETATM   29  O   UNL     1      43.521 -16.462   5.946  1.00  0.00    -0.266 OA
ENDBRANCH   1  18
TORSDOF 3
ENDMDL
MODEL 10
REMARK VINA RESULT:      -8.2      4.925      9.808
REMARK  3 active torsions:
REMARK  status: ('A' for Active; 'I' for Inactive)
REMARK    1  A    between atoms: N_7  and  N_8 
REMARK       I    between atoms: N_8  and  C_9 
REMARK    2  A    between atoms: C_9  and  C_10 
REMARK    3  A    between atoms: C_14  and  C_15 
ROOT
HETATM    1  N   UNL     1      42.520 -13.583   4.383  1.00  0.00    -0.241 N 
HETATM    2  C   UNL     1      42.725 -13.822   3.035  1.00  0.00     0.289 C 
HETATM    3  O   UNL     1      42.719 -12.951   2.168  1.00  0.00    -0.264 OA
HETATM    4  H   UNL     1      42.522 -14.354   5.048  1.00  0.00     0.192 HD
ENDROOT
BRANCH   2   5
HETATM    5  C   UNL     1      42.943 -15.207   2.700  1.00  0.00     0.121 A 
HETATM    6  N   UNL     1      42.668 -15.690   1.452  1.00  0.00    -0.272 N 
HETATM    7  H   UNL     1      42.309 -15.159   0.664  1.00  0.00     0.189 HD
HETATM    8  N   UNL     1      42.899 -17.002   1.306  1.00  0.00    -0.174 NA
HETATM    9  C   UNL     1      43.369 -17.401   2.499  1.00  0.00     0.089 A 
HETATM   10  C   UNL     1      43.409 -16.301   3.403  1.00  0.00     0.071 A 
BRANCH   9  11
HETATM   11  C   UNL     1      43.748 -18.795   2.750  1.00  0.00    -0.006 A 
HETATM   12  C   UNL     1      44.367 -19.173   3.952  1.00  0.00     0.015 A 
HETATM   13  C   UNL     1      44.718 -20.508   4.183  1.00  0.00     0.024 A 
HETATM   14  C   UNL     1      44.452 -21.474   3.216  1.00  0.00     0.034 A 
HETATM   15 CL   UNL     1      44.882 -23.114   3.505  1.00  0.00    -0.084 Cl
HETATM   16  C   UNL     1      43.843 -21.118   2.016  1.00  0.00     0.024 A 
HETATM   17  C   UNL     1      43.496 -19.784   1.785  1.00  0.00     0.015 A 
ENDBRANCH   9  11
ENDBRANCH   2   5
BRANCH   1  18
HETATM   18  N   UNL     1      42.271 -12.319   4.845  1.00  0.00    -0.165 NA
HETATM   19  C   UNL     1      41.307 -12.201   5.701  1.00  0.00     0.157 A 
HETATM   20  C   UNL     1      40.859 -10.961   6.319  1.00  0.00     0.027 A 
HETATM   21  C   UNL     1      40.403 -13.301   6.268  1.00  0.00     0.277 A 
HETATM   22  C   UNL     1      41.313  -9.666   6.174  1.00  0.00     0.016 A 
HETATM   23  C   UNL     1      39.799 -11.294   7.161  1.00  0.00     0.048 A 
HETATM   24  C   UNL     1      40.658  -8.681   6.916  1.00  0.00     0.001 A 
HETATM   25  C   UNL     1      39.583  -9.012   7.769  1.00  0.00     0.002 A 
HETATM   26  C   UNL     1      39.142 -10.335   7.899  1.00  0.00     0.030 A 
HETATM   27  N   UNL     1      39.536 -12.663   7.128  1.00  0.00    -0.321 N 
HETATM   28  H   UNL     1      38.817 -13.140   7.651  1.00  0.00     0.169 HD
HETATM   29  O   UNL     1      40.483 -14.478   5.980  1.00  0.00    -0.266 OA
ENDBRANCH   1  18
TORSDOF 3
ENDMDL
