MODEL 1
REMARK VINA RESULT:      -8.1      0.000      0.000
REMARK  6 active torsions:
REMARK  status: ('A' for Active; 'I' for Inactive)
REMARK    1  A    between atoms: O_2  and  C_3 
REMARK    2  A    between atoms: C_3  and  C_4 
REMARK    3  A    between atoms: C_4  and  N_5 
REMARK       I    between atoms: N_5  and  C_6 
REMARK    4  A    between atoms: C_6  and  C_7 
REMARK    5  A    between atoms: C_12  and  C_13 
REMARK    6  A    between atoms: C_21  and  C_22 
ROOT
HETATM    1  C   UNL     1      42.080 -12.948   5.256  1.00  0.00     0.170 A 
HETATM    2  N   UNL     1      41.408 -13.216   4.109  1.00  0.00    -0.163 NA
HETATM    3  N   UNL     1      41.787 -14.464   3.793  1.00  0.00    -0.238 N 
HETATM    4  C   UNL     1      42.765 -14.965   4.612  1.00  0.00     0.145 A 
HETATM    5  N   UNL     1      43.338 -16.171   4.361  1.00  0.00    -0.365 N 
HETATM    6  C   UNL     1      43.204 -16.762   3.034  1.00  0.00     0.118 C 
HETATM    7  C   UNL     1      41.753 -16.602   2.564  1.00  0.00     0.066 C 
HETATM    8  C   UNL     1      41.339 -15.117   2.573  1.00  0.00     0.221 C 
HETATM    9  C   UNL     1      42.945 -14.024   5.600  1.00  0.00     0.115 A 
HETATM   10 CL   UNL     1      44.014 -14.129   6.914  1.00  0.00    -0.077 Cl
HETATM   11  H   UNL     1      44.199 -16.413   4.856  1.00  0.00     0.162 HD
ENDROOT
BRANCH   1  12
HETATM   12  C   UNL     1      41.885 -11.675   5.968  1.00  0.00     0.273 C 
HETATM   13  N   UNL     1      42.034 -11.786   7.335  1.00  0.00    -0.353 N 
HETATM   14  H   UNL     1      42.403 -12.675   7.668  1.00  0.00     0.162 HD
HETATM   15  O   UNL     1      41.624 -10.614   5.410  1.00  0.00    -0.266 OA
BRANCH  13  16
HETATM   16  C   UNL     1      42.109 -10.634   8.209  1.00  0.00     0.149 C 
BRANCH  16  17
HETATM   17  C   UNL     1      43.052 -10.884   9.384  1.00  0.00     0.186 C 
BRANCH  17  18
HETATM   18  O   UNL     1      44.391 -11.006   8.896  1.00  0.00    -0.394 OA
HETATM   19  C   UNL     1      45.136 -11.955   9.648  1.00  0.00     0.201 C 
ENDBRANCH  17  18
ENDBRANCH  16  17
ENDBRANCH  13  16
ENDBRANCH   1  12
BRANCH   8  20
HETATM   20  C   UNL     1      39.842 -15.006   2.387  1.00  0.00     0.409 C 
HETATM   21  F   UNL     1      39.192 -14.771   3.548  1.00  0.00    -0.169 F 
HETATM   22  F   UNL     1      39.482 -14.053   1.500  1.00  0.00    -0.169 F 
HETATM   23  F   UNL     1      39.355 -16.179   1.898  1.00  0.00    -0.169 F 
ENDBRANCH   8  20
BRANCH   6  24
HETATM   24  C   UNL     1      43.612 -18.223   3.059  1.00  0.00    -0.035 A 
HETATM   25  C   UNL     1      44.253 -18.789   4.175  1.00  0.00     0.011 A 
HETATM   26  C   UNL     1      44.603 -20.141   4.188  1.00  0.00     0.024 A 
HETATM   27  C   UNL     1      44.306 -20.943   3.090  1.00  0.00     0.034 A 
HETATM   28 CL   UNL     1      44.732 -22.610   3.106  1.00  0.00    -0.084 Cl
HETATM   29  C   UNL     1      43.662 -20.404   1.979  1.00  0.00     0.024 A 
HETATM   30  C   UNL     1      43.315 -19.050   1.964  1.00  0.00     0.011 A 
ENDBRANCH   6  24
TORSDOF 6
ENDMDL
MODEL 2
REMARK VINA RESULT:      -8.0      3.279      3.881
REMARK  6 active torsions:
REMARK  status: ('A' for Active; 'I' for Inactive)
REMARK    1  A    between atoms: O_2  and  C_3 
REMARK    2  A    between atoms: C_3  and  C_4 
REMARK    3  A    between atoms: C_4  and  N_5 
REMARK       I    between atoms: N_5  and  C_6 
REMARK    4  A    between atoms: C_6  and  C_7 
REMARK    5  A    between atoms: C_12  and  C_13 
REMARK    6  A    between atoms: C_21  and  C_22 
ROOT
HETATM    1  C   UNL     1      40.371 -13.341   4.546  1.00  0.00     0.170 A 
HETATM    2  N   UNL     1      41.334 -13.497   5.488  1.00  0.00    -0.163 NA
HETATM    3  N   UNL     1      41.918 -14.662   5.167  1.00  0.00    -0.238 N 
HETATM    4  C   UNL     1      41.297 -15.323   4.139  1.00  0.00     0.145 A 
HETATM    5  N   UNL     1      41.695 -16.567   3.765  1.00  0.00    -0.365 N 
HETATM    6  C   UNL     1      42.512 -17.359   4.679  1.00  0.00     0.118 C 
HETATM    7  C   UNL     1      43.602 -16.461   5.276  1.00  0.00     0.066 C 
HETATM    8  C   UNL     1      42.975 -15.242   5.980  1.00  0.00     0.221 C 
HETATM    9  C   UNL     1      40.317 -14.471   3.683  1.00  0.00     0.115 A 
HETATM   10 CL   UNL     1      39.252 -14.753   2.392  1.00  0.00    -0.077 Cl
HETATM   11  H   UNL     1      41.084 -17.110   3.152  1.00  0.00     0.162 HD
ENDROOT
BRANCH   1  12
HETATM   12  C   UNL     1      39.532 -12.132   4.514  1.00  0.00     0.273 C 
HETATM   13  N   UNL     1      39.705 -11.320   5.615  1.00  0.00    -0.353 N 
HETATM   14  H   UNL     1      40.482 -11.563   6.227  1.00  0.00     0.162 HD
HETATM   15  O   UNL     1      38.760 -11.861   3.601  1.00  0.00    -0.266 OA
BRANCH  13  16
HETATM   16  C   UNL     1      39.159  -9.980   5.692  1.00  0.00     0.149 C 
BRANCH  16  17
HETATM   17  C   UNL     1      39.525  -9.301   7.009  1.00  0.00     0.186 C 
BRANCH  17  18
HETATM   18  O   UNL     1      38.453  -9.472   7.942  1.00  0.00    -0.394 OA
HETATM   19  C   UNL     1      38.890 -10.130   9.123  1.00  0.00     0.201 C 
ENDBRANCH  17  18
ENDBRANCH  16  17
ENDBRANCH  13  16
ENDBRANCH   1  12
BRANCH   8  20
HETATM   20  C   UNL     1      44.056 -14.234   6.308  1.00  0.00     0.409 C 
HETATM   21  F   UNL     1      43.606 -13.229   7.092  1.00  0.00    -0.169 F 
HETATM   22  F   UNL     1      45.137 -14.783   6.901  1.00  0.00    -0.169 F 
HETATM   23  F   UNL     1      44.507 -13.660   5.159  1.00  0.00    -0.169 F 
ENDBRANCH   8  20
BRANCH   6  24
HETATM   24  C   UNL     1      43.117 -18.547   3.955  1.00  0.00    -0.035 A 
HETATM   25  C   UNL     1      44.047 -19.395   4.582  1.00  0.00     0.011 A 
HETATM   26  C   UNL     1      44.578 -20.496   3.905  1.00  0.00     0.024 A 
HETATM   27  C   UNL     1      44.178 -20.765   2.600  1.00  0.00     0.034 A 
HETATM   28 CL   UNL     1      44.828 -22.123   1.766  1.00  0.00    -0.084 Cl
HETATM   29  C   UNL     1      43.251 -19.943   1.965  1.00  0.00     0.024 A 
HETATM   30  C   UNL     1      42.722 -18.839   2.639  1.00  0.00     0.011 A 
ENDBRANCH   6  24
TORSDOF 6
ENDMDL
MODEL 3
REMARK VINA RESULT:      -7.8      3.393      4.972
REMARK  6 active torsions:
REMARK  status: ('A' for Active; 'I' for Inactive)
REMARK    1  A    between atoms: O_2  and  C_3 
REMARK    2  A    between atoms: C_3  and  C_4 
REMARK    3  A    between atoms: C_4  and  N_5 
REMARK       I    between atoms: N_5  and  C_6 
REMARK    4  A    between atoms: C_6  and  C_7 
REMARK    5  A    between atoms: C_12  and  C_13 
REMARK    6  A    between atoms: C_21  and  C_22 
ROOT
HETATM    1  C   UNL     1      40.312 -13.366   4.556  1.00  0.00     0.170 A 
HETATM    2  N   UNL     1      41.292 -13.515   5.482  1.00  0.00    -0.163 NA
HETATM    3  N   UNL     1      41.871 -14.682   5.157  1.00  0.00    -0.238 N 
HETATM    4  C   UNL     1      41.232 -15.350   4.146  1.00  0.00     0.145 A 
HETATM    5  N   UNL     1      41.624 -16.596   3.772  1.00  0.00    -0.365 N 
HETATM    6  C   UNL     1      42.459 -17.381   4.676  1.00  0.00     0.118 C 
HETATM    7  C   UNL     1      43.559 -16.478   5.246  1.00  0.00     0.066 C 
HETATM    8  C   UNL     1      42.945 -15.255   5.954  1.00  0.00     0.221 C 
HETATM    9  C   UNL     1      40.243 -14.502   3.703  1.00  0.00     0.115 A 
HETATM   10 CL   UNL     1      39.154 -14.793   2.434  1.00  0.00    -0.077 Cl
HETATM   11  H   UNL     1      41.002 -17.144   3.174  1.00  0.00     0.162 HD
ENDROOT
BRANCH   1  12
HETATM   12  C   UNL     1      39.471 -12.158   4.533  1.00  0.00     0.273 C 
HETATM   13  N   UNL     1      39.693 -11.361   3.430  1.00  0.00    -0.353 N 
HETATM   14  H   UNL     1      40.282 -11.765   2.704  1.00  0.00     0.162 HD
HETATM   15  O   UNL     1      38.647 -11.884   5.399  1.00  0.00    -0.266 OA
BRANCH  13  16
HETATM   16  C   UNL     1      38.832 -10.249   3.083  1.00  0.00     0.149 C 
BRANCH  16  17
HETATM   17  C   UNL     1      37.622 -10.709   2.274  1.00  0.00     0.186 C 
BRANCH  17  18
HETATM   18  O   UNL     1      38.046 -11.657   1.289  1.00  0.00    -0.394 OA
HETATM   19  C   UNL     1      38.361 -11.022   0.056  1.00  0.00     0.201 C 
ENDBRANCH  17  18
ENDBRANCH  16  17
ENDBRANCH  13  16
ENDBRANCH   1  12
BRANCH   8  20
HETATM   20  C   UNL     1      44.030 -14.244   6.255  1.00  0.00     0.409 C 
HETATM   21  F   UNL     1      44.505 -13.648   5.138  1.00  0.00    -0.169 F 
HETATM   22  F   UNL     1      43.640 -13.280   7.116  1.00  0.00    -0.169 F 
HETATM   23  F   UNL     1      45.086 -14.870   6.842  1.00  0.00    -0.169 F 
ENDBRANCH   8  20
BRANCH   6  24
HETATM   24  C   UNL     1      43.052 -18.573   3.948  1.00  0.00    -0.035 A 
HETATM   25  C   UNL     1      42.705 -18.872   2.619  1.00  0.00     0.011 A 
HETATM   26  C   UNL     1      43.279 -19.962   1.960  1.00  0.00     0.024 A 
HETATM   27  C   UNL     1      44.211 -20.757   2.619  1.00  0.00     0.034 A 
HETATM   28 CL   UNL     1      44.922 -22.098   1.806  1.00  0.00    -0.084 Cl
HETATM   29  C   UNL     1      44.577 -20.471   3.932  1.00  0.00     0.024 A 
HETATM   30  C   UNL     1      44.000 -19.384   4.594  1.00  0.00     0.011 A 
ENDBRANCH   6  24
TORSDOF 6
ENDMDL
MODEL 4
REMARK VINA RESULT:      -7.8      1.338      2.151
REMARK  6 active torsions:
REMARK  status: ('A' for Active; 'I' for Inactive)
REMARK    1  A    between atoms: O_2  and  C_3 
REMARK    2  A    between atoms: C_3  and  C_4 
REMARK    3  A    between atoms: C_4  and  N_5 
REMARK       I    between atoms: N_5  and  C_6 
REMARK    4  A    between atoms: C_6  and  C_7 
REMARK    5  A    between atoms: C_12  and  C_13 
REMARK    6  A    between atoms: C_21  and  C_22 
ROOT
HETATM    1  C   UNL     1      41.907 -13.089   4.965  1.00  0.00     0.170 A 
HETATM    2  N   UNL     1      41.273 -13.403   3.808  1.00  0.00    -0.163 NA
HETATM    3  N   UNL     1      41.675 -14.658   3.547  1.00  0.00    -0.238 N 
HETATM    4  C   UNL     1      42.632 -15.119   4.413  1.00  0.00     0.145 A 
HETATM    5  N   UNL     1      43.225 -16.327   4.223  1.00  0.00    -0.365 N 
HETATM    6  C   UNL     1      43.138 -16.965   2.913  1.00  0.00     0.118 C 
HETATM    7  C   UNL     1      41.701 -16.837   2.393  1.00  0.00     0.066 C 
HETATM    8  C   UNL     1      41.273 -15.358   2.337  1.00  0.00     0.221 C 
HETATM    9  C   UNL     1      42.771 -14.143   5.372  1.00  0.00     0.115 A 
HETATM   10 CL   UNL     1      43.799 -14.190   6.722  1.00  0.00    -0.077 Cl
HETATM   11  H   UNL     1      44.072 -16.542   4.752  1.00  0.00     0.162 HD
ENDROOT
BRANCH   1  12
HETATM   12  C   UNL     1      41.676 -11.794   5.626  1.00  0.00     0.273 C 
HETATM   13  N   UNL     1      41.378 -11.912   6.967  1.00  0.00    -0.353 N 
HETATM   14  H   UNL     1      41.501 -12.840   7.367  1.00  0.00     0.162 HD
HETATM   15  O   UNL     1      41.748 -10.713   5.051  1.00  0.00    -0.266 OA
BRANCH  13  16
HETATM   16  C   UNL     1      41.336 -10.773   7.861  1.00  0.00     0.149 C 
BRANCH  16  17
HETATM   17  C   UNL     1      40.030 -10.731   8.651  1.00  0.00     0.186 C 
BRANCH  17  18
HETATM   18  O   UNL     1      38.962 -10.354   7.776  1.00  0.00    -0.394 OA
HETATM   19  C   UNL     1      39.160  -9.052   7.241  1.00  0.00     0.201 C 
ENDBRANCH  17  18
ENDBRANCH  16  17
ENDBRANCH  13  16
ENDBRANCH   1  12
BRANCH   8  20
HETATM   20  C   UNL     1      39.780 -15.270   2.101  1.00  0.00     0.409 C 
HETATM   21  F   UNL     1      39.218 -16.479   1.885  1.00  0.00    -0.169 F 
HETATM   22  F   UNL     1      39.114 -14.666   3.108  1.00  0.00    -0.169 F 
HETATM   23  F   UNL     1      39.539 -14.524   0.989  1.00  0.00    -0.169 F 
ENDBRANCH   8  20
BRANCH   6  24
HETATM   24  C   UNL     1      43.560 -18.419   3.002  1.00  0.00    -0.035 A 
HETATM   25  C   UNL     1      43.364 -19.310   1.933  1.00  0.00     0.011 A 
HETATM   26  C   UNL     1      43.778 -20.641   2.026  1.00  0.00     0.024 A 
HETATM   27  C   UNL     1      44.401 -21.091   3.187  1.00  0.00     0.034 A 
HETATM   28 CL   UNL     1      44.916 -22.729   3.302  1.00  0.00    -0.084 Cl
HETATM   29  C   UNL     1      44.614 -20.222   4.254  1.00  0.00     0.024 A 
HETATM   30  C   UNL     1      44.196 -18.892   4.162  1.00  0.00     0.011 A 
ENDBRANCH   6  24
TORSDOF 6
ENDMDL
MODEL 5
REMARK VINA RESULT:      -7.7      1.836      2.250
REMARK  6 active torsions:
REMARK  status: ('A' for Active; 'I' for Inactive)
REMARK    1  A    between atoms: O_2  and  C_3 
REMARK    2  A    between atoms: C_3  and  C_4 
REMARK    3  A    between atoms: C_4  and  N_5 
REMARK       I    between atoms: N_5  and  C_6 
REMARK    4  A    between atoms: C_6  and  C_7 
REMARK    5  A    between atoms: C_12  and  C_13 
REMARK    6  A    between atoms: C_21  and  C_22 
ROOT
HETATM    1  C   UNL     1      41.311 -13.272   3.590  1.00  0.00     0.170 A 
HETATM    2  N   UNL     1      41.470 -13.544   2.270  1.00  0.00    -0.163 NA
HETATM    3  N   UNL     1      41.973 -14.788   2.252  1.00  0.00    -0.238 N 
HETATM    4  C   UNL     1      42.262 -15.282   3.497  1.00  0.00     0.145 A 
HETATM    5  N   UNL     1      42.879 -16.484   3.648  1.00  0.00    -0.365 N 
HETATM    6  C   UNL     1      43.578 -17.073   2.510  1.00  0.00     0.118 C 
HETATM    7  C   UNL     1      42.704 -16.924   1.259  1.00  0.00     0.066 C 
HETATM    8  C   UNL     1      42.358 -15.443   1.011  1.00  0.00     0.221 C 
HETATM    9  C   UNL     1      41.802 -14.342   4.390  1.00  0.00     0.115 A 
HETATM   10 CL   UNL     1      41.861 -14.441   6.083  1.00  0.00    -0.077 Cl
HETATM   11  H   UNL     1      43.269 -16.720   4.563  1.00  0.00     0.162 HD
ENDROOT
BRANCH   1  12
HETATM   12  C   UNL     1      40.716 -12.002   4.035  1.00  0.00     0.273 C 
HETATM   13  N   UNL     1      41.633 -11.136   4.592  1.00  0.00    -0.353 N 
HETATM   14  H   UNL     1      42.611 -11.403   4.492  1.00  0.00     0.162 HD
HETATM   15  O   UNL     1      39.526 -11.729   3.919  1.00  0.00    -0.266 OA
BRANCH  13  16
HETATM   16  C   UNL     1      41.321  -9.754   4.891  1.00  0.00     0.149 C 
BRANCH  16  17
HETATM   17  C   UNL     1      40.919  -9.574   6.353  1.00  0.00     0.186 C 
BRANCH  17  18
HETATM   18  O   UNL     1      42.099  -9.441   7.153  1.00  0.00    -0.394 OA
HETATM   19  C   UNL     1      42.027 -10.244   8.324  1.00  0.00     0.201 C 
ENDBRANCH  17  18
ENDBRANCH  16  17
ENDBRANCH  13  16
ENDBRANCH   1  12
BRANCH   8  20
HETATM   20  C   UNL     1      41.276 -15.344  -0.042  1.00  0.00     0.409 C 
HETATM   21  F   UNL     1      40.035 -15.314   0.493  1.00  0.00    -0.169 F 
HETATM   22  F   UNL     1      41.415 -14.272  -0.852  1.00  0.00    -0.169 F 
HETATM   23  F   UNL     1      41.326 -16.437  -0.851  1.00  0.00    -0.169 F 
ENDBRANCH   8  20
BRANCH   6  24
HETATM   24  C   UNL     1      43.899 -18.531   2.783  1.00  0.00    -0.035 A 
HETATM   25  C   UNL     1      44.419 -18.952   4.019  1.00  0.00     0.011 A 
HETATM   26  C   UNL     1      44.688 -20.301   4.258  1.00  0.00     0.024 A 
HETATM   27  C   UNL     1      44.432 -21.244   3.268  1.00  0.00     0.034 A 
HETATM   28 CL   UNL     1      44.760 -22.908   3.562  1.00  0.00    -0.084 Cl
HETATM   29  C   UNL     1      43.907 -20.849   2.040  1.00  0.00     0.024 A 
HETATM   30  C   UNL     1      43.641 -19.498   1.798  1.00  0.00     0.011 A 
ENDBRANCH   6  24
TORSDOF 6
ENDMDL
MODEL 6
REMARK VINA RESULT:      -7.7      4.011      6.253
REMARK  6 active torsions:
REMARK  status: ('A' for Active; 'I' for Inactive)
REMARK    1  A    between atoms: O_2  and  C_3 
REMARK    2  A    between atoms: C_3  and  C_4 
REMARK    3  A    between atoms: C_4  and  N_5 
REMARK       I    between atoms: N_5  and  C_6 
REMARK    4  A    between atoms: C_6  and  C_7 
REMARK    5  A    between atoms: C_12  and  C_13 
REMARK    6  A    between atoms: C_21  and  C_22 
ROOT
HETATM    1  C   UNL     1      41.331 -14.235   0.979  1.00  0.00     0.170 A 
HETATM    2  N   UNL     1      41.625 -13.817   2.235  1.00  0.00    -0.163 NA
HETATM    3  N   UNL     1      42.146 -14.903   2.827  1.00  0.00    -0.238 N 
HETATM    4  C   UNL     1      42.086 -16.032   2.053  1.00  0.00     0.145 A 
HETATM    5  N   UNL     1      42.469 -17.240   2.545  1.00  0.00    -0.365 N 
HETATM    6  C   UNL     1      42.578 -17.419   3.989  1.00  0.00     0.118 C 
HETATM    7  C   UNL     1      43.288 -16.199   4.588  1.00  0.00     0.066 C 
HETATM    8  C   UNL     1      42.537 -14.902   4.228  1.00  0.00     0.221 C 
HETATM    9  C   UNL     1      41.604 -15.624   0.830  1.00  0.00     0.115 A 
HETATM   10 CL   UNL     1      41.355 -16.599  -0.536  1.00  0.00    -0.077 Cl
HETATM   11  H   UNL     1      42.212 -18.081   2.024  1.00  0.00     0.162 HD
ENDROOT
BRANCH   1  12
HETATM   12  C   UNL     1      40.787 -13.303  -0.021  1.00  0.00     0.273 C 
HETATM   13  N   UNL     1      41.741 -12.821  -0.892  1.00  0.00    -0.353 N 
HETATM   14  H   UNL     1      42.653 -13.271  -0.842  1.00  0.00     0.162 HD
HETATM   15  O   UNL     1      39.604 -12.987  -0.086  1.00  0.00    -0.266 OA
BRANCH  13  16
HETATM   16  C   UNL     1      41.403 -12.073  -2.086  1.00  0.00     0.149 C 
BRANCH  16  17
HETATM   17  C   UNL     1      41.438 -12.959  -3.329  1.00  0.00     0.186 C 
BRANCH  17  18
HETATM   18  O   UNL     1      40.114 -13.420  -3.617  1.00  0.00    -0.394 OA
HETATM   19  C   UNL     1      40.026 -14.836  -3.534  1.00  0.00     0.201 C 
ENDBRANCH  17  18
ENDBRANCH  16  17
ENDBRANCH  13  16
ENDBRANCH   1  12
BRANCH   8  20
HETATM   20  C   UNL     1      43.394 -13.705   4.577  1.00  0.00     0.409 C 
HETATM   21  F   UNL     1      42.694 -12.549   4.575  1.00  0.00    -0.169 F 
HETATM   22  F   UNL     1      44.017 -13.821   5.769  1.00  0.00    -0.169 F 
HETATM   23  F   UNL     1      44.380 -13.565   3.649  1.00  0.00    -0.169 F 
ENDBRANCH   8  20
BRANCH   6  24
HETATM   24  C   UNL     1      43.327 -18.699   4.309  1.00  0.00    -0.035 A 
HETATM   25  C   UNL     1      43.467 -19.159   5.630  1.00  0.00     0.011 A 
HETATM   26  C   UNL     1      44.142 -20.351   5.903  1.00  0.00     0.024 A 
HETATM   27  C   UNL     1      44.675 -21.100   4.858  1.00  0.00     0.034 A 
HETATM   28 CL   UNL     1      45.503 -22.571   5.192  1.00  0.00    -0.084 Cl
HETATM   29  C   UNL     1      44.538 -20.666   3.542  1.00  0.00     0.024 A 
HETATM   30  C   UNL     1      43.866 -19.472   3.268  1.00  0.00     0.011 A 
ENDBRANCH   6  24
TORSDOF 6
ENDMDL
MODEL 7
REMARK VINA RESULT:      -7.6      3.660      5.139
REMARK  6 active torsions:
REMARK  status: ('A' for Active; 'I' for Inactive)
REMARK    1  A    between atoms: O_2  and  C_3 
REMARK    2  A    between atoms: C_3  and  C_4 
REMARK    3  A    between atoms: C_4  and  N_5 
REMARK       I    between atoms: N_5  and  C_6 
REMARK    4  A    between atoms: C_6  and  C_7 
REMARK    5  A    between atoms: C_12  and  C_13 
REMARK    6  A    between atoms: C_21  and  C_22 
ROOT
HETATM    1  C   UNL     1      41.574 -13.106   1.947  1.00  0.00     0.170 A 
HETATM    2  N   UNL     1      41.825 -13.243   3.273  1.00  0.00    -0.163 NA
HETATM    3  N   UNL     1      42.260 -14.507   3.393  1.00  0.00    -0.238 N 
HETATM    4  C   UNL     1      42.183 -15.227   2.230  1.00  0.00     0.145 A 
HETATM    5  N   UNL     1      42.479 -16.553   2.206  1.00  0.00    -0.365 N 
HETATM    6  C   UNL     1      42.506 -17.300   3.460  1.00  0.00     0.118 C 
HETATM    7  C   UNL     1      43.245 -16.469   4.516  1.00  0.00     0.066 C 
HETATM    8  C   UNL     1      42.579 -15.090   4.687  1.00  0.00     0.221 C 
HETATM    9  C   UNL     1      41.785 -14.334   1.261  1.00  0.00     0.115 A 
HETATM   10 CL   UNL     1      41.557 -14.665  -0.388  1.00  0.00    -0.077 Cl
HETATM   11  H   UNL     1      42.208 -17.099   1.385  1.00  0.00     0.162 HD
ENDROOT
BRANCH   1  12
HETATM   12  C   UNL     1      41.129 -11.818   1.390  1.00  0.00     0.273 C 
HETATM   13  N   UNL     1      42.165 -10.941   1.149  1.00  0.00    -0.353 N 
HETATM   14  H   UNL     1      43.103 -11.330   1.235  1.00  0.00     0.162 HD
HETATM   15  O   UNL     1      39.957 -11.547   1.153  1.00  0.00    -0.266 OA
BRANCH  13  16
HETATM   16  C   UNL     1      41.992  -9.713   0.401  1.00  0.00     0.149 C 
BRANCH  16  17
HETATM   17  C   UNL     1      43.057  -9.563  -0.684  1.00  0.00     0.186 C 
BRANCH  17  18
HETATM   18  O   UNL     1      43.560 -10.857  -1.032  1.00  0.00    -0.394 OA
HETATM   19  C   UNL     1      42.881 -11.394  -2.160  1.00  0.00     0.201 C 
ENDBRANCH  17  18
ENDBRANCH  16  17
ENDBRANCH  13  16
ENDBRANCH   1  12
BRANCH   8  20
HETATM   20  C   UNL     1      43.476 -14.190   5.508  1.00  0.00     0.409 C 
HETATM   21  F   UNL     1      44.048 -14.839   6.547  1.00  0.00    -0.169 F 
HETATM   22  F   UNL     1      44.454 -13.604   4.784  1.00  0.00    -0.169 F 
HETATM   23  F   UNL     1      42.741 -13.176   6.039  1.00  0.00    -0.169 F 
ENDBRANCH   8  20
BRANCH   6  24
HETATM   24  C   UNL     1      43.173 -18.648   3.260  1.00  0.00    -0.035 A 
HETATM   25  C   UNL     1      43.995 -19.217   4.249  1.00  0.00     0.011 A 
HETATM   26  C   UNL     1      44.583 -20.469   4.054  1.00  0.00     0.024 A 
HETATM   27  C   UNL     1      44.348 -21.168   2.875  1.00  0.00     0.034 A 
HETATM   28 CL   UNL     1      45.068 -22.713   2.636  1.00  0.00    -0.084 Cl
HETATM   29  C   UNL     1      43.528 -20.627   1.888  1.00  0.00     0.024 A 
HETATM   30  C   UNL     1      42.942 -19.373   2.080  1.00  0.00     0.011 A 
ENDBRANCH   6  24
TORSDOF 6
ENDMDL
MODEL 8
REMARK VINA RESULT:      -7.6      3.425      5.534
REMARK  6 active torsions:
REMARK  status: ('A' for Active; 'I' for Inactive)
REMARK    1  A    between atoms: O_2  and  C_3 
REMARK    2  A    between atoms: C_3  and  C_4 
REMARK    3  A    between atoms: C_4  and  N_5 
REMARK       I    between atoms: N_5  and  C_6 
REMARK    4  A    between atoms: C_6  and  C_7 
REMARK    5  A    between atoms: C_12  and  C_13 
REMARK    6  A    between atoms: C_21  and  C_22 
ROOT
HETATM    1  C   UNL     1      43.261 -14.963   5.716  1.00  0.00     0.170 A 
HETATM    2  N   UNL     1      43.198 -16.163   5.088  1.00  0.00    -0.163 NA
HETATM    3  N   UNL     1      42.421 -15.931   4.018  1.00  0.00    -0.238 N 
HETATM    4  C   UNL     1      41.879 -14.672   3.996  1.00  0.00     0.145 A 
HETATM    5  N   UNL     1      40.981 -14.313   3.042  1.00  0.00    -0.365 N 
HETATM    6  C   UNL     1      40.301 -15.353   2.276  1.00  0.00     0.118 C 
HETATM    7  C   UNL     1      41.325 -16.416   1.862  1.00  0.00     0.066 C 
HETATM    8  C   UNL     1      42.039 -16.993   3.100  1.00  0.00     0.221 C 
HETATM    9  C   UNL     1      42.441 -14.003   5.059  1.00  0.00     0.115 A 
HETATM   10 CL   UNL     1      42.163 -12.388   5.499  1.00  0.00    -0.077 Cl
HETATM   11  H   UNL     1      40.442 -13.455   3.178  1.00  0.00     0.162 HD
ENDROOT
BRANCH   1  12
HETATM   12  C   UNL     1      44.085 -14.782   6.922  1.00  0.00     0.273 C 
HETATM   13  N   UNL     1      44.824 -13.619   6.908  1.00  0.00    -0.353 N 
HETATM   14  H   UNL     1      44.604 -12.964   6.160  1.00  0.00     0.162 HD
HETATM   15  O   UNL     1      44.111 -15.578   7.855  1.00  0.00    -0.266 OA
BRANCH  13  16
HETATM   16  C   UNL     1      45.527 -13.125   8.075  1.00  0.00     0.149 C 
BRANCH  16  17
HETATM   17  C   UNL     1      44.604 -12.317   8.984  1.00  0.00     0.186 C 
BRANCH  17  18
HETATM   18  O   UNL     1      44.473 -12.989  10.240  1.00  0.00    -0.394 OA
HETATM   19  C   UNL     1      44.085 -12.093  11.273  1.00  0.00     0.201 C 
ENDBRANCH  17  18
ENDBRANCH  16  17
ENDBRANCH  13  16
ENDBRANCH   1  12
BRANCH   8  20
HETATM   20  C   UNL     1      43.230 -17.818   2.661  1.00  0.00     0.409 C 
HETATM   21  F   UNL     1      44.289 -17.053   2.316  1.00  0.00    -0.169 F 
HETATM   22  F   UNL     1      43.635 -18.709   3.591  1.00  0.00    -0.169 F 
HETATM   23  F   UNL     1      42.898 -18.546   1.561  1.00  0.00    -0.169 F 
ENDBRANCH   8  20
BRANCH   6  24
HETATM   24  C   UNL     1      39.613 -14.754   1.063  1.00  0.00    -0.035 A 
HETATM   25  C   UNL     1      40.289 -14.589  -0.159  1.00  0.00     0.011 A 
HETATM   26  C   UNL     1      39.633 -14.055  -1.271  1.00  0.00     0.024 A 
HETATM   27  C   UNL     1      38.293 -13.690  -1.174  1.00  0.00     0.034 A 
HETATM   28 CL   UNL     1      37.482 -13.037  -2.544  1.00  0.00    -0.084 Cl
HETATM   29  C   UNL     1      37.603 -13.856   0.024  1.00  0.00     0.024 A 
HETATM   30  C   UNL     1      38.260 -14.386   1.138  1.00  0.00     0.011 A 
ENDBRANCH   6  24
TORSDOF 6
ENDMDL
MODEL 9
REMARK VINA RESULT:      -7.5      4.544      6.777
REMARK  6 active torsions:
REMARK  status: ('A' for Active; 'I' for Inactive)
REMARK    1  A    between atoms: O_2  and  C_3 
REMARK    2  A    between atoms: C_3  and  C_4 
REMARK    3  A    between atoms: C_4  and  N_5 
REMARK       I    between atoms: N_5  and  C_6 
REMARK    4  A    between atoms: C_6  and  C_7 
REMARK    5  A    between atoms: C_12  and  C_13 
REMARK    6  A    between atoms: C_21  and  C_22 
ROOT
HETATM    1  C   UNL     1      41.399 -16.632   4.829  1.00  0.00     0.170 A 
HETATM    2  N   UNL     1      41.909 -17.443   3.869  1.00  0.00    -0.163 NA
HETATM    3  N   UNL     1      41.680 -16.779   2.725  1.00  0.00    -0.238 N 
HETATM    4  C   UNL     1      40.936 -15.640   2.891  1.00  0.00     0.145 A 
HETATM    5  N   UNL     1      40.521 -14.912   1.821  1.00  0.00    -0.365 N 
HETATM    6  C   UNL     1      40.528 -15.525   0.497  1.00  0.00     0.118 C 
HETATM    7  C   UNL     1      41.841 -16.295   0.312  1.00  0.00     0.066 C 
HETATM    8  C   UNL     1      42.018 -17.343   1.428  1.00  0.00     0.221 C 
HETATM    9  C   UNL     1      40.776 -15.491   4.250  1.00  0.00     0.115 A 
HETATM   10 CL   UNL     1      39.964 -14.227   5.040  1.00  0.00    -0.077 Cl
HETATM   11  H   UNL     1      39.799 -14.203   1.964  1.00  0.00     0.162 HD
ENDROOT
BRANCH   1  12
HETATM   12  C   UNL     1      41.509 -16.982   6.254  1.00  0.00     0.273 C 
HETATM   13  N   UNL     1      42.799 -17.273   6.645  1.00  0.00    -0.353 N 
HETATM   14  H   UNL     1      43.526 -17.066   5.962  1.00  0.00     0.162 HD
HETATM   15  O   UNL     1      40.556 -17.009   7.025  1.00  0.00    -0.266 OA
BRANCH  13  16
HETATM   16  C   UNL     1      43.179 -17.423   8.035  1.00  0.00     0.149 C 
BRANCH  16  17
HETATM   17  C   UNL     1      44.120 -18.609   8.233  1.00  0.00     0.186 C 
BRANCH  17  18
HETATM   18  O   UNL     1      43.996 -19.501   7.120  1.00  0.00    -0.394 OA
HETATM   19  C   UNL     1      43.584 -20.797   7.535  1.00  0.00     0.201 C 
ENDBRANCH  17  18
ENDBRANCH  16  17
ENDBRANCH  13  16
ENDBRANCH   1  12
BRANCH   8  20
HETATM   20  C   UNL     1      43.431 -17.885   1.397  1.00  0.00     0.409 C 
HETATM   21  F   UNL     1      44.297 -17.112   2.088  1.00  0.00    -0.169 F 
HETATM   22  F   UNL     1      43.529 -19.150   1.859  1.00  0.00    -0.169 F 
HETATM   23  F   UNL     1      43.877 -17.919   0.112  1.00  0.00    -0.169 F 
ENDBRANCH   8  20
BRANCH   6  24
HETATM   24  C   UNL     1      40.358 -14.468  -0.578  1.00  0.00    -0.035 A 
HETATM   25  C   UNL     1      41.394 -14.157  -1.476  1.00  0.00     0.011 A 
HETATM   26  C   UNL     1      41.212 -13.195  -2.472  1.00  0.00     0.024 A 
HETATM   27  C   UNL     1      39.989 -12.542  -2.587  1.00  0.00     0.034 A 
HETATM   28 CL   UNL     1      39.760 -11.360  -3.816  1.00  0.00    -0.084 Cl
HETATM   29  C   UNL     1      38.946 -12.843  -1.714  1.00  0.00     0.024 A 
HETATM   30  C   UNL     1      39.129 -13.802  -0.715  1.00  0.00     0.011 A 
ENDBRANCH   6  24
TORSDOF 6
ENDMDL
MODEL 10
REMARK VINA RESULT:      -7.4      2.425      3.384
REMARK  6 active torsions:
REMARK  status: ('A' for Active; 'I' for Inactive)
REMARK    1  A    between atoms: O_2  and  C_3 
REMARK    2  A    between atoms: C_3  and  C_4 
REMARK    3  A    between atoms: C_4  and  N_5 
REMARK       I    between atoms: N_5  and  C_6 
REMARK    4  A    between atoms: C_6  and  C_7 
REMARK    5  A    between atoms: C_12  and  C_13 
REMARK    6  A    between atoms: C_21  and  C_22 
ROOT
HETATM    1  C   UNL     1      41.996 -13.141   3.778  1.00  0.00     0.170 A 
HETATM    2  N   UNL     1      41.891 -13.476   2.468  1.00  0.00    -0.163 NA
HETATM    3  N   UNL     1      42.275 -14.761   2.428  1.00  0.00    -0.238 N 
HETATM    4  C   UNL     1      42.742 -15.232   3.627  1.00  0.00     0.145 A 
HETATM    5  N   UNL     1      43.273 -16.479   3.731  1.00  0.00    -0.365 N 
HETATM    6  C   UNL     1      43.704 -17.173   2.522  1.00  0.00     0.118 C 
HETATM    7  C   UNL     1      42.634 -16.992   1.438  1.00  0.00     0.066 C 
HETATM    8  C   UNL     1      42.375 -15.495   1.176  1.00  0.00     0.221 C 
HETATM    9  C   UNL     1      42.531 -14.220   4.535  1.00  0.00     0.115 A 
HETATM   10 CL   UNL     1      42.886 -14.260   6.195  1.00  0.00    -0.077 Cl
HETATM   11  H   UNL     1      43.800 -16.715   4.575  1.00  0.00     0.162 HD
ENDROOT
BRANCH   1  12
HETATM   12  C   UNL     1      41.599 -11.806   4.252  1.00  0.00     0.273 C 
HETATM   13  N   UNL     1      41.349 -10.916   3.229  1.00  0.00    -0.353 N 
HETATM   14  H   UNL     1      41.316 -11.317   2.293  1.00  0.00     0.162 HD
HETATM   15  O   UNL     1      41.492 -11.507   5.437  1.00  0.00    -0.266 OA
BRANCH  13  16
HETATM   16  C   UNL     1      40.733  -9.624   3.449  1.00  0.00     0.149 C 
BRANCH  16  17
HETATM   17  C   UNL     1      39.259  -9.630   3.047  1.00  0.00     0.186 C 
BRANCH  17  18
HETATM   18  O   UNL     1      38.517  -8.824   3.968  1.00  0.00    -0.394 OA
HETATM   19  C   UNL     1      38.902  -9.079   5.312  1.00  0.00     0.201 C 
ENDBRANCH  17  18
ENDBRANCH  16  17
ENDBRANCH  13  16
ENDBRANCH   1  12
BRANCH   8  20
HETATM   20  C   UNL     1      41.132 -15.337   0.326  1.00  0.00     0.409 C 
HETATM   21  F   UNL     1      41.078 -16.234  -0.683  1.00  0.00    -0.169 F 
HETATM   22  F   UNL     1      39.986 -15.424   1.033  1.00  0.00    -0.169 F 
HETATM   23  F   UNL     1      41.128 -14.103  -0.248  1.00  0.00    -0.169 F 
ENDBRANCH   8  20
BRANCH   6  24
HETATM   24  C   UNL     1      43.945 -18.642   2.812  1.00  0.00    -0.035 A 
HETATM   25  C   UNL     1      43.746 -19.629   1.830  1.00  0.00     0.011 A 
HETATM   26  C   UNL     1      43.994 -20.975   2.110  1.00  0.00     0.024 A 
HETATM   27  C   UNL     1      44.452 -21.347   3.370  1.00  0.00     0.034 A 
HETATM   28 CL   UNL     1      44.762 -23.004   3.715  1.00  0.00    -0.084 Cl
HETATM   29  C   UNL     1      44.666 -20.384   4.353  1.00  0.00     0.024 A 
HETATM   30  C   UNL     1      44.415 -19.037   4.075  1.00  0.00     0.011 A 
ENDBRANCH   6  24
TORSDOF 6
ENDMDL
