MODEL 1
REMARK VINA RESULT:     -10.2      0.000      0.000
REMARK  7 active torsions:
REMARK  status: ('A' for Active; 'I' for Inactive)
REMARK    1  A    between atoms: C_2  and  C_3 
REMARK    2  A    between atoms: C_4  and  N_5 
REMARK    3  A    between atoms: N_5  and  C_6 
REMARK    4  A    between atoms: C_8  and  N_9 
REMARK    5  A    between atoms: C_11  and  C_12 
REMARK    6  A    between atoms: C_12  and  N_13 
REMARK    7  A    between atoms: C_17  and  C_18 
ROOT
HETATM    1  C   UNL     1      41.057 -13.754   4.187  1.00  0.00     0.218 C 
ENDROOT
BRANCH   1   2
HETATM    2  C   UNL     1      40.632 -13.976   2.751  1.00  0.00     0.166 A 
HETATM    3  N   UNL     1      39.348 -14.276   2.552  1.00  0.00    -0.200 NA
HETATM    4  C   UNL     1      39.018 -14.514   1.296  1.00  0.00     0.219 A 
HETATM    5  N   UNL     1      39.843 -14.444   0.270  1.00  0.00    -0.031 NA
HETATM    6  C   UNL     1      41.100 -14.112   0.549  1.00  0.00     0.731 A 
HETATM    7  N   UNL     1      41.535 -13.829   1.775  1.00  0.00    -0.045 NA
BRANCH   4   8
HETATM    8  N   UNL     1      37.697 -14.814   1.030  1.00  0.00    -0.270 NA
HETATM    9  H   UNL     1      37.193 -13.969   0.801  1.00  0.00     0.127 HD
HETATM   10  H   UNL     1      37.314 -15.398   1.760  1.00  0.00     0.127 HD
ENDBRANCH   4   8
BRANCH   6  11
HETATM   11  N   UNL     1      42.039 -13.997  -0.477  1.00  0.00    -0.188 N 
HETATM   12  H   UNL     1      42.391 -14.913  -0.717  1.00  0.00     0.184 HD
BRANCH  11  13
HETATM   13  C   UNL     1      42.164 -13.028  -1.492  1.00  0.00     0.055 A 
HETATM   14  C   UNL     1      41.778 -13.331  -2.818  1.00  0.00    -0.031 A 
HETATM   15  C   UNL     1      41.931 -12.359  -3.827  1.00  0.00     0.009 A 
HETATM   16  C   UNL     1      42.461 -11.103  -3.541  1.00  0.00     0.001 A 
HETATM   17  C   UNL     1      42.857 -10.806  -2.245  1.00  0.00     0.002 A 
HETATM   18  C   UNL     1      42.718 -11.762  -1.236  1.00  0.00     0.030 A 
BRANCH  14  19
HETATM   19  C   UNL     1      41.267 -14.696  -3.222  1.00  0.00     0.036 C 
HETATM   20  C   UNL     1      39.788 -14.658  -3.585  1.00  0.00     0.010 C 
ENDBRANCH  14  19
ENDBRANCH  11  13
ENDBRANCH   6  11
ENDBRANCH   1   2
BRANCH   1  21
HETATM   21  N   UNL     1      42.011 -14.717   4.696  1.00  0.00    -0.260 N 
HETATM   22  C   UNL     1      43.335 -14.462   4.827  1.00  0.00     0.326 C 
HETATM   23  O   UNL     1      43.942 -13.471   4.457  1.00  0.00    -0.247 OA
HETATM   24  N   UNL     1      43.918 -15.498   5.513  1.00  0.00    -0.321 N 
HETATM   25  C   UNL     1      42.997 -16.585   5.773  1.00  0.00     0.140 C 
HETATM   26  H   UNL     1      44.923 -15.537   5.616  1.00  0.00     0.165 HD
HETATM   27  C   UNL     1      41.688 -15.862   5.367  1.00  0.00     0.261 C 
HETATM   28  C   UNL     1      42.943 -16.937   7.258  1.00  0.00     0.054 C 
HETATM   29  O   UNL     1      40.553 -16.259   5.603  1.00  0.00    -0.270 OA
BRANCH  25  30
HETATM   30  C   UNL     1      43.365 -17.786   4.906  1.00  0.00    -0.020 A 
HETATM   31  C   UNL     1      43.849 -18.993   5.443  1.00  0.00     0.022 A 
HETATM   32  C   UNL     1      44.134 -20.103   4.626  1.00  0.00    -0.025 A 
HETATM   33  C   UNL     1      43.944 -20.007   3.230  1.00  0.00    -0.026 A 
HETATM   34  C   UNL     1      44.603 -21.311   5.169  1.00  0.00     0.012 A 
HETATM   35  C   UNL     1      43.491 -18.799   2.686  1.00  0.00     0.013 A 
HETATM   36  C   UNL     1      44.211 -21.120   2.417  1.00  0.00     0.012 A 
HETATM   37  C   UNL     1      43.210 -17.707   3.509  1.00  0.00     0.011 A 
HETATM   38  C   UNL     1      44.664 -22.316   2.974  1.00  0.00     0.001 A 
HETATM   39  C   UNL     1      44.862 -22.411   4.349  1.00  0.00     0.001 A 
ENDBRANCH  25  30
ENDBRANCH   1  21
TORSDOF 7
ENDMDL
MODEL 2
REMARK VINA RESULT:     -10.0      4.265      7.403
REMARK  7 active torsions:
REMARK  status: ('A' for Active; 'I' for Inactive)
REMARK    1  A    between atoms: C_2  and  C_3 
REMARK    2  A    between atoms: C_4  and  N_5 
REMARK    3  A    between atoms: N_5  and  C_6 
REMARK    4  A    between atoms: C_8  and  N_9 
REMARK    5  A    between atoms: C_11  and  C_12 
REMARK    6  A    between atoms: C_12  and  N_13 
REMARK    7  A    between atoms: C_17  and  C_18 
ROOT
HETATM    1  C   UNL     1      41.461 -13.811   4.606  1.00  0.00     0.218 C 
ENDROOT
BRANCH   1   2
HETATM    2  C   UNL     1      41.480 -12.433   5.231  1.00  0.00     0.166 A 
HETATM    3  N   UNL     1      41.332 -11.402   4.398  1.00  0.00    -0.200 NA
HETATM    4  C   UNL     1      41.403 -10.211   4.964  1.00  0.00     0.219 A 
HETATM    5  N   UNL     1      41.575  -9.995   6.254  1.00  0.00    -0.031 NA
HETATM    6  C   UNL     1      41.687 -11.075   7.021  1.00  0.00     0.731 A 
HETATM    7  N   UNL     1      41.606 -12.320   6.558  1.00  0.00    -0.045 NA
BRANCH   4   8
HETATM    8  N   UNL     1      41.241  -9.108   4.151  1.00  0.00    -0.270 NA
HETATM    9  H   UNL     1      40.297  -9.083   3.791  1.00  0.00     0.127 HD
HETATM   10  H   UNL     1      41.993  -9.051   3.479  1.00  0.00     0.127 HD
ENDBRANCH   4   8
BRANCH   6  11
HETATM   11  N   UNL     1      41.854 -10.942   8.400  1.00  0.00    -0.188 N 
HETATM   12  H   UNL     1      41.008 -11.230   8.871  1.00  0.00     0.184 HD
BRANCH  11  13
HETATM   13  C   UNL     1      43.021 -11.002   9.186  1.00  0.00     0.055 A 
HETATM   14  C   UNL     1      43.117 -10.249  10.378  1.00  0.00    -0.031 A 
HETATM   15  C   UNL     1      44.300 -10.300  11.141  1.00  0.00     0.009 A 
HETATM   16  C   UNL     1      45.382 -11.080  10.739  1.00  0.00     0.001 A 
HETATM   17  C   UNL     1      45.300 -11.809   9.561  1.00  0.00     0.002 A 
HETATM   18  C   UNL     1      44.136 -11.761   8.791  1.00  0.00     0.030 A 
BRANCH  14  19
HETATM   19  C   UNL     1      42.017  -9.319  10.841  1.00  0.00     0.036 C 
HETATM   20  C   UNL     1      42.459  -8.473  12.027  1.00  0.00     0.010 C 
ENDBRANCH  14  19
ENDBRANCH  11  13
ENDBRANCH   6  11
ENDBRANCH   1   2
BRANCH   1  21
HETATM   21  N   UNL     1      42.401 -14.752   5.177  1.00  0.00    -0.260 N 
HETATM   22  C   UNL     1      43.735 -14.528   5.250  1.00  0.00     0.326 C 
HETATM   23  O   UNL     1      44.360 -13.595   4.773  1.00  0.00    -0.247 OA
HETATM   24  N   UNL     1      44.308 -15.513   6.015  1.00  0.00    -0.321 N 
HETATM   25  C   UNL     1      43.363 -16.542   6.399  1.00  0.00     0.140 C 
HETATM   26  H   UNL     1      45.313 -15.574   6.095  1.00  0.00     0.165 HD
HETATM   27  C   UNL     1      42.065 -15.819   5.961  1.00  0.00     0.261 C 
HETATM   28  C   UNL     1      43.341 -16.752   7.912  1.00  0.00     0.054 C 
HETATM   29  O   UNL     1      40.926 -16.157   6.263  1.00  0.00    -0.270 OA
BRANCH  25  30
HETATM   30  C   UNL     1      43.672 -17.830   5.639  1.00  0.00    -0.020 A 
HETATM   31  C   UNL     1      43.240 -18.057   4.319  1.00  0.00     0.022 A 
HETATM   32  C   UNL     1      43.581 -19.231   3.623  1.00  0.00    -0.025 A 
HETATM   33  C   UNL     1      44.366 -20.216   4.262  1.00  0.00    -0.026 A 
HETATM   34  C   UNL     1      43.161 -19.447   2.300  1.00  0.00     0.012 A 
HETATM   35  C   UNL     1      44.774 -20.010   5.585  1.00  0.00     0.013 A 
HETATM   36  C   UNL     1      44.722 -21.380   3.562  1.00  0.00     0.012 A 
HETATM   37  C   UNL     1      44.429 -18.838   6.263  1.00  0.00     0.011 A 
HETATM   38  C   UNL     1      44.306 -21.573   2.244  1.00  0.00     0.001 A 
HETATM   39  C   UNL     1      43.524 -20.607   1.614  1.00  0.00     0.001 A 
ENDBRANCH  25  30
ENDBRANCH   1  21
TORSDOF 7
ENDMDL
MODEL 3
REMARK VINA RESULT:      -9.9      1.635      3.040
REMARK  7 active torsions:
REMARK  status: ('A' for Active; 'I' for Inactive)
REMARK    1  A    between atoms: C_2  and  C_3 
REMARK    2  A    between atoms: C_4  and  N_5 
REMARK    3  A    between atoms: N_5  and  C_6 
REMARK    4  A    between atoms: C_8  and  N_9 
REMARK    5  A    between atoms: C_11  and  C_12 
REMARK    6  A    between atoms: C_12  and  N_13 
REMARK    7  A    between atoms: C_17  and  C_18 
ROOT
HETATM    1  C   UNL     1      41.724 -13.024   2.951  1.00  0.00     0.218 C 
ENDROOT
BRANCH   1   2
HETATM    2  C   UNL     1      41.826 -13.079   1.442  1.00  0.00     0.166 A 
HETATM    3  N   UNL     1      42.498 -12.087   0.856  1.00  0.00    -0.200 NA
HETATM    4  C   UNL     1      42.528 -12.135  -0.463  1.00  0.00     0.219 A 
HETATM    5  N   UNL     1      41.981 -13.082  -1.199  1.00  0.00    -0.031 NA
HETATM    6  C   UNL     1      41.352 -14.050  -0.538  1.00  0.00     0.731 A 
HETATM    7  N   UNL     1      41.282 -14.113   0.789  1.00  0.00    -0.045 NA
BRANCH   4   8
HETATM    8  N   UNL     1      43.223 -11.141  -1.121  1.00  0.00    -0.270 NA
HETATM    9  H   UNL     1      43.524 -11.474  -2.026  1.00  0.00     0.127 HD
HETATM   10  H   UNL     1      43.930 -10.745  -0.517  1.00  0.00     0.127 HD
ENDBRANCH   4   8
BRANCH   6  11
HETATM   11  N   UNL     1      40.759 -15.103  -1.235  1.00  0.00    -0.188 N 
HETATM   12  H   UNL     1      40.779 -15.939  -0.667  1.00  0.00     0.184 HD
BRANCH  11  13
HETATM   13  C   UNL     1      39.765 -15.089  -2.234  1.00  0.00     0.055 A 
HETATM   14  C   UNL     1      38.648 -14.231  -2.115  1.00  0.00    -0.031 A 
HETATM   15  C   UNL     1      37.651 -14.246  -3.110  1.00  0.00     0.009 A 
HETATM   16  C   UNL     1      37.744 -15.094  -4.210  1.00  0.00     0.001 A 
HETATM   17  C   UNL     1      38.831 -15.950  -4.324  1.00  0.00     0.002 A 
HETATM   18  C   UNL     1      39.823 -15.952  -3.341  1.00  0.00     0.030 A 
BRANCH  14  19
HETATM   19  C   UNL     1      38.436 -13.338  -0.913  1.00  0.00     0.036 C 
HETATM   20  C   UNL     1      37.623 -14.037   0.169  1.00  0.00     0.010 C 
ENDBRANCH  14  19
ENDBRANCH  11  13
ENDBRANCH   6  11
ENDBRANCH   1   2
BRANCH   1  21
HETATM   21  N   UNL     1      42.289 -14.164   3.641  1.00  0.00    -0.260 N 
HETATM   22  C   UNL     1      43.550 -14.191   4.136  1.00  0.00     0.326 C 
HETATM   23  O   UNL     1      44.422 -13.349   3.997  1.00  0.00    -0.247 OA
HETATM   24  N   UNL     1      43.703 -15.325   4.894  1.00  0.00    -0.321 N 
HETATM   25  C   UNL     1      42.547 -16.196   4.837  1.00  0.00     0.140 C 
HETATM   26  H   UNL     1      44.612 -15.573   5.260  1.00  0.00     0.165 HD
HETATM   27  C   UNL     1      41.572 -15.216   4.137  1.00  0.00     0.261 C 
HETATM   28  C   UNL     1      42.020 -16.526   6.232  1.00  0.00     0.054 C 
HETATM   29  O   UNL     1      40.360 -15.367   4.039  1.00  0.00    -0.270 OA
BRANCH  25  30
HETATM   30  C   UNL     1      42.889 -17.448   4.035  1.00  0.00    -0.020 A 
HETATM   31  C   UNL     1      43.615 -18.524   4.576  1.00  0.00     0.022 A 
HETATM   32  C   UNL     1      43.874 -19.690   3.831  1.00  0.00    -0.025 A 
HETATM   33  C   UNL     1      43.407 -19.784   2.502  1.00  0.00    -0.026 A 
HETATM   34  C   UNL     1      44.588 -20.768   4.380  1.00  0.00     0.012 A 
HETATM   35  C   UNL     1      42.708 -18.705   1.947  1.00  0.00     0.013 A 
HETATM   36  C   UNL     1      43.649 -20.953   1.764  1.00  0.00     0.012 A 
HETATM   37  C   UNL     1      42.457 -17.555   2.700  1.00  0.00     0.011 A 
HETATM   38  C   UNL     1      44.348 -22.020   2.330  1.00  0.00     0.001 A 
HETATM   39  C   UNL     1      44.819 -21.926   3.637  1.00  0.00     0.001 A 
ENDBRANCH  25  30
ENDBRANCH   1  21
TORSDOF 7
ENDMDL
MODEL 4
REMARK VINA RESULT:      -9.9      0.922      2.190
REMARK  7 active torsions:
REMARK  status: ('A' for Active; 'I' for Inactive)
REMARK    1  A    between atoms: C_2  and  C_3 
REMARK    2  A    between atoms: C_4  and  N_5 
REMARK    3  A    between atoms: N_5  and  C_6 
REMARK    4  A    between atoms: C_8  and  N_9 
REMARK    5  A    between atoms: C_11  and  C_12 
REMARK    6  A    between atoms: C_12  and  N_13 
REMARK    7  A    between atoms: C_17  and  C_18 
ROOT
HETATM    1  C   UNL     1      41.426 -13.877   4.916  1.00  0.00     0.218 C 
ENDROOT
BRANCH   1   2
HETATM    2  C   UNL     1      41.025 -14.103   3.474  1.00  0.00     0.166 A 
HETATM    3  N   UNL     1      39.848 -14.697   3.272  1.00  0.00    -0.200 NA
HETATM    4  C   UNL     1      39.548 -14.926   2.007  1.00  0.00     0.219 A 
HETATM    5  N   UNL     1      40.298 -14.588   0.977  1.00  0.00    -0.031 NA
HETATM    6  C   UNL     1      41.444 -13.975   1.261  1.00  0.00     0.731 A 
HETATM    7  N   UNL     1      41.833 -13.674   2.498  1.00  0.00    -0.045 NA
BRANCH   4   8
HETATM    8  N   UNL     1      38.334 -15.526   1.739  1.00  0.00    -0.270 NA
HETATM    9  H   UNL     1      37.650 -15.237   2.425  1.00  0.00     0.127 HD
HETATM   10  H   UNL     1      38.454 -16.519   1.597  1.00  0.00     0.127 HD
ENDBRANCH   4   8
BRANCH   6  11
HETATM   11  N   UNL     1      42.293 -13.565   0.233  1.00  0.00    -0.188 N 
HETATM   12  H   UNL     1      43.225 -13.916   0.405  1.00  0.00     0.184 HD
BRANCH  11  13
HETATM   13  C   UNL     1      42.012 -13.262  -1.114  1.00  0.00     0.055 A 
HETATM   14  C   UNL     1      42.287 -11.973  -1.626  1.00  0.00    -0.031 A 
HETATM   15  C   UNL     1      41.979 -11.677  -2.968  1.00  0.00     0.009 A 
HETATM   16  C   UNL     1      41.403 -12.634  -3.802  1.00  0.00     0.001 A 
HETATM   17  C   UNL     1      41.117 -13.896  -3.300  1.00  0.00     0.002 A 
HETATM   18  C   UNL     1      41.410 -14.200  -1.969  1.00  0.00     0.030 A 
BRANCH  14  19
HETATM   19  C   UNL     1      42.839 -10.858  -0.765  1.00  0.00     0.036 C 
HETATM   20  C   UNL     1      43.596  -9.830  -1.595  1.00  0.00     0.010 C 
ENDBRANCH  14  19
ENDBRANCH  11  13
ENDBRANCH   6  11
ENDBRANCH   1   2
BRANCH   1  21
HETATM   21  N   UNL     1      42.352 -14.853   5.450  1.00  0.00    -0.260 N 
HETATM   22  C   UNL     1      43.683 -14.635   5.573  1.00  0.00     0.326 C 
HETATM   23  O   UNL     1      44.320 -13.673   5.174  1.00  0.00    -0.247 OA
HETATM   24  N   UNL     1      44.236 -15.668   6.288  1.00  0.00    -0.321 N 
HETATM   25  C   UNL     1      43.283 -16.719   6.579  1.00  0.00     0.140 C 
HETATM   26  H   UNL     1      45.240 -15.734   6.391  1.00  0.00     0.165 HD
HETATM   27  C   UNL     1      41.996 -15.968   6.155  1.00  0.00     0.261 C 
HETATM   28  C   UNL     1      43.221 -17.026   8.074  1.00  0.00     0.054 C 
HETATM   29  O   UNL     1      40.850 -16.324   6.403  1.00  0.00    -0.270 OA
BRANCH  25  30
HETATM   30  C   UNL     1      43.613 -17.955   5.747  1.00  0.00    -0.020 A 
HETATM   31  C   UNL     1      43.225 -18.092   4.402  1.00  0.00     0.022 A 
HETATM   32  C   UNL     1      43.586 -19.220   3.641  1.00  0.00    -0.025 A 
HETATM   33  C   UNL     1      44.346 -20.249   4.239  1.00  0.00    -0.026 A 
HETATM   34  C   UNL     1      43.209 -19.346   2.293  1.00  0.00     0.012 A 
HETATM   35  C   UNL     1      44.711 -20.132   5.585  1.00  0.00     0.013 A 
HETATM   36  C   UNL     1      44.722 -21.366   3.475  1.00  0.00     0.012 A 
HETATM   37  C   UNL     1      44.347 -19.006   6.327  1.00  0.00     0.011 A 
HETATM   38  C   UNL     1      44.350 -21.469   2.134  1.00  0.00     0.001 A 
HETATM   39  C   UNL     1      43.591 -20.460   1.545  1.00  0.00     0.001 A 
ENDBRANCH  25  30
ENDBRANCH   1  21
TORSDOF 7
ENDMDL
MODEL 5
REMARK VINA RESULT:      -9.8      1.543      2.827
REMARK  7 active torsions:
REMARK  status: ('A' for Active; 'I' for Inactive)
REMARK    1  A    between atoms: C_2  and  C_3 
REMARK    2  A    between atoms: C_4  and  N_5 
REMARK    3  A    between atoms: N_5  and  C_6 
REMARK    4  A    between atoms: C_8  and  N_9 
REMARK    5  A    between atoms: C_11  and  C_12 
REMARK    6  A    between atoms: C_12  and  N_13 
REMARK    7  A    between atoms: C_17  and  C_18 
ROOT
HETATM    1  C   UNL     1      41.159 -13.358   2.031  1.00  0.00     0.218 C 
ENDROOT
BRANCH   1   2
HETATM    2  C   UNL     1      41.353 -13.565   0.544  1.00  0.00     0.166 A 
HETATM    3  N   UNL     1      40.720 -14.606   0.002  1.00  0.00    -0.200 NA
HETATM    4  C   UNL     1      40.948 -14.790  -1.285  1.00  0.00     0.219 A 
HETATM    5  N   UNL     1      41.707 -14.019  -2.038  1.00  0.00    -0.031 NA
HETATM    6  C   UNL     1      42.281 -12.985  -1.429  1.00  0.00     0.731 A 
HETATM    7  N   UNL     1      42.101 -12.693  -0.143  1.00  0.00    -0.045 NA
BRANCH   4   8
HETATM    8  N   UNL     1      40.306 -15.846  -1.901  1.00  0.00    -0.270 NA
HETATM    9  H   UNL     1      39.546 -16.171  -1.320  1.00  0.00     0.127 HD
HETATM   10  H   UNL     1      40.977 -16.534  -2.212  1.00  0.00     0.127 HD
ENDBRANCH   4   8
BRANCH   6  11
HETATM   11  N   UNL     1      43.088 -12.105  -2.151  1.00  0.00    -0.188 N 
HETATM   12  H   UNL     1      43.950 -12.568  -2.404  1.00  0.00     0.184 HD
BRANCH  11  13
HETATM   13  C   UNL     1      42.738 -11.012  -2.969  1.00  0.00     0.055 A 
HETATM   14  C   UNL     1      42.857  -9.691  -2.481  1.00  0.00    -0.031 A 
HETATM   15  C   UNL     1      42.481  -8.609  -3.302  1.00  0.00     0.009 A 
HETATM   16  C   UNL     1      41.990  -8.819  -4.588  1.00  0.00     0.001 A 
HETATM   17  C   UNL     1      41.857 -10.115  -5.067  1.00  0.00     0.002 A 
HETATM   18  C   UNL     1      42.218 -11.197  -4.261  1.00  0.00     0.030 A 
BRANCH  14  19
HETATM   19  C   UNL     1      43.307  -9.385  -1.069  1.00  0.00     0.036 C 
HETATM   20  C   UNL     1      44.276  -8.211  -1.032  1.00  0.00     0.010 C 
ENDBRANCH  14  19
ENDBRANCH  11  13
ENDBRANCH   6  11
ENDBRANCH   1   2
BRANCH   1  21
HETATM   21  N   UNL     1      41.778 -14.362   2.870  1.00  0.00    -0.260 N 
HETATM   22  C   UNL     1      43.007 -14.222   3.424  1.00  0.00     0.326 C 
HETATM   23  O   UNL     1      43.811 -13.325   3.233  1.00  0.00    -0.247 OA
HETATM   24  N   UNL     1      43.211 -15.250   4.311  1.00  0.00    -0.321 N 
HETATM   25  C   UNL     1      42.137 -16.222   4.297  1.00  0.00     0.140 C 
HETATM   26  H   UNL     1      44.116 -15.374   4.744  1.00  0.00     0.165 HD
HETATM   27  C   UNL     1      41.125 -15.415   3.447  1.00  0.00     0.261 C 
HETATM   28  C   UNL     1      41.561 -16.446   5.693  1.00  0.00     0.054 C 
HETATM   29  O   UNL     1      39.937 -15.684   3.308  1.00  0.00    -0.270 OA
BRANCH  25  30
HETATM   30  C   UNL     1      42.628 -17.518   3.657  1.00  0.00    -0.020 A 
HETATM   31  C   UNL     1      43.385 -18.473   4.358  1.00  0.00     0.022 A 
HETATM   32  C   UNL     1      43.783 -19.684   3.760  1.00  0.00    -0.025 A 
HETATM   33  C   UNL     1      43.427 -19.946   2.419  1.00  0.00    -0.026 A 
HETATM   34  C   UNL     1      44.526 -20.643   4.469  1.00  0.00     0.012 A 
HETATM   35  C   UNL     1      42.700 -18.987   1.706  1.00  0.00     0.013 A 
HETATM   36  C   UNL     1      43.808 -21.162   1.827  1.00  0.00     0.012 A 
HETATM   37  C   UNL     1      42.310 -17.791   2.313  1.00  0.00     0.011 A 
HETATM   38  C   UNL     1      44.535 -22.108   2.550  1.00  0.00     0.001 A 
HETATM   39  C   UNL     1      44.896 -21.847   3.870  1.00  0.00     0.001 A 
ENDBRANCH  25  30
ENDBRANCH   1  21
TORSDOF 7
ENDMDL
MODEL 6
REMARK VINA RESULT:      -9.8      2.526      7.767
REMARK  7 active torsions:
REMARK  status: ('A' for Active; 'I' for Inactive)
REMARK    1  A    between atoms: C_2  and  C_3 
REMARK    2  A    between atoms: C_4  and  N_5 
REMARK    3  A    between atoms: N_5  and  C_6 
REMARK    4  A    between atoms: C_8  and  N_9 
REMARK    5  A    between atoms: C_11  and  C_12 
REMARK    6  A    between atoms: C_12  and  N_13 
REMARK    7  A    between atoms: C_17  and  C_18 
ROOT
HETATM    1  C   UNL     1      43.001 -15.045   6.679  1.00  0.00     0.218 C 
ENDROOT
BRANCH   1   2
HETATM    2  C   UNL     1      43.531 -16.463   6.650  1.00  0.00     0.166 A 
HETATM    3  N   UNL     1      43.489 -17.135   7.801  1.00  0.00    -0.200 NA
HETATM    4  C   UNL     1      44.003 -18.351   7.758  1.00  0.00     0.219 A 
HETATM    5  N   UNL     1      44.506 -18.922   6.681  1.00  0.00    -0.031 NA
HETATM    6  C   UNL     1      44.487 -18.196   5.567  1.00  0.00     0.731 A 
HETATM    7  N   UNL     1      43.971 -16.971   5.493  1.00  0.00    -0.045 NA
BRANCH   4   8
HETATM    8  N   UNL     1      43.972 -19.098   8.918  1.00  0.00    -0.270 NA
HETATM    9  H   UNL     1      44.686 -19.813   8.884  1.00  0.00     0.127 HD
HETATM   10  H   UNL     1      43.028 -19.397   9.120  1.00  0.00     0.127 HD
ENDBRANCH   4   8
BRANCH   6  11
HETATM   11  N   UNL     1      44.982 -18.726   4.375  1.00  0.00    -0.188 N 
HETATM   12  H   UNL     1      45.982 -18.585   4.332  1.00  0.00     0.184 HD
BRANCH  11  13
HETATM   13  C   UNL     1      44.497 -19.781   3.578  1.00  0.00     0.055 A 
HETATM   14  C   UNL     1      43.606 -19.518   2.513  1.00  0.00    -0.031 A 
HETATM   15  C   UNL     1      43.110 -20.586   1.739  1.00  0.00     0.009 A 
HETATM   16  C   UNL     1      43.483 -21.901   2.006  1.00  0.00     0.001 A 
HETATM   17  C   UNL     1      44.346 -22.168   3.060  1.00  0.00     0.002 A 
HETATM   18  C   UNL     1      44.838 -21.119   3.840  1.00  0.00     0.030 A 
BRANCH  14  19
HETATM   19  C   UNL     1      43.094 -18.127   2.209  1.00  0.00     0.036 C 
HETATM   20  C   UNL     1      43.971 -17.417   1.186  1.00  0.00     0.010 C 
ENDBRANCH  14  19
ENDBRANCH  11  13
ENDBRANCH   6  11
ENDBRANCH   1   2
BRANCH   1  21
HETATM   21  N   UNL     1      41.830 -14.817   5.860  1.00  0.00    -0.260 N 
HETATM   22  C   UNL     1      40.727 -15.603   5.893  1.00  0.00     0.326 C 
HETATM   23  O   UNL     1      40.576 -16.648   6.504  1.00  0.00    -0.247 OA
HETATM   24  N   UNL     1      39.737 -15.006   5.153  1.00  0.00    -0.321 N 
HETATM   25  C   UNL     1      40.192 -13.812   4.470  1.00  0.00     0.140 C 
HETATM   26  H   UNL     1      38.871 -15.496   4.974  1.00  0.00     0.165 HD
HETATM   27  C   UNL     1      41.557 -13.660   5.186  1.00  0.00     0.261 C 
HETATM   28  C   UNL     1      39.312 -12.607   4.793  1.00  0.00     0.054 C 
HETATM   29  O   UNL     1      42.275 -12.668   5.145  1.00  0.00    -0.270 OA
BRANCH  25  30
HETATM   30  C   UNL     1      40.277 -14.083   2.970  1.00  0.00    -0.020 A 
HETATM   31  C   UNL     1      39.201 -13.855   2.093  1.00  0.00     0.022 A 
HETATM   32  C   UNL     1      39.321 -14.065   0.707  1.00  0.00    -0.025 A 
HETATM   33  C   UNL     1      40.545 -14.527   0.177  1.00  0.00    -0.026 A 
HETATM   34  C   UNL     1      38.248 -13.821  -0.167  1.00  0.00     0.012 A 
HETATM   35  C   UNL     1      41.611 -14.784   1.047  1.00  0.00     0.013 A 
HETATM   36  C   UNL     1      40.671 -14.720  -1.209  1.00  0.00     0.012 A 
HETATM   37  C   UNL     1      41.478 -14.570   2.421  1.00  0.00     0.011 A 
HETATM   38  C   UNL     1      39.600 -14.460  -2.064  1.00  0.00     0.001 A 
HETATM   39  C   UNL     1      38.388 -14.013  -1.542  1.00  0.00     0.001 A 
ENDBRANCH  25  30
ENDBRANCH   1  21
TORSDOF 7
ENDMDL
MODEL 7
REMARK VINA RESULT:      -9.8      1.797      2.652
REMARK  7 active torsions:
REMARK  status: ('A' for Active; 'I' for Inactive)
REMARK    1  A    between atoms: C_2  and  C_3 
REMARK    2  A    between atoms: C_4  and  N_5 
REMARK    3  A    between atoms: N_5  and  C_6 
REMARK    4  A    between atoms: C_8  and  N_9 
REMARK    5  A    between atoms: C_11  and  C_12 
REMARK    6  A    between atoms: C_12  and  N_13 
REMARK    7  A    between atoms: C_17  and  C_18 
ROOT
HETATM    1  C   UNL     1      40.756 -14.091   5.837  1.00  0.00     0.218 C 
ENDROOT
BRANCH   1   2
HETATM    2  C   UNL     1      40.551 -13.496   4.460  1.00  0.00     0.166 A 
HETATM    3  N   UNL     1      41.003 -12.255   4.278  1.00  0.00    -0.200 NA
HETATM    4  C   UNL     1      40.766 -11.744   3.083  1.00  0.00     0.219 A 
HETATM    5  N   UNL     1      40.162 -12.375   2.096  1.00  0.00    -0.031 NA
HETATM    6  C   UNL     1      39.766 -13.619   2.349  1.00  0.00     0.731 A 
HETATM    7  N   UNL     1      39.974 -14.239   3.508  1.00  0.00    -0.045 NA
BRANCH   4   8
HETATM    8  N   UNL     1      41.226 -10.467   2.834  1.00  0.00    -0.270 NA
HETATM    9  H   UNL     1      42.225 -10.486   2.682  1.00  0.00     0.127 HD
HETATM   10  H   UNL     1      40.877  -9.823   3.530  1.00  0.00     0.127 HD
ENDBRANCH   4   8
BRANCH   6  11
HETATM   11  N   UNL     1      39.133 -14.369   1.357  1.00  0.00    -0.188 N 
HETATM   12  H   UNL     1      38.302 -14.800   1.737  1.00  0.00     0.184 HD
BRANCH  11  13
HETATM   13  C   UNL     1      39.132 -14.210  -0.043  1.00  0.00     0.055 A 
HETATM   14  C   UNL     1      40.277 -14.546  -0.800  1.00  0.00    -0.031 A 
HETATM   15  C   UNL     1      40.269 -14.358  -2.196  1.00  0.00     0.009 A 
HETATM   16  C   UNL     1      39.150 -13.844  -2.846  1.00  0.00     0.001 A 
HETATM   17  C   UNL     1      38.027 -13.498  -2.106  1.00  0.00     0.002 A 
HETATM   18  C   UNL     1      38.025 -13.671  -0.721  1.00  0.00     0.030 A 
BRANCH  14  19
HETATM   19  C   UNL     1      41.558 -15.036  -0.159  1.00  0.00     0.036 C 
HETATM   20  C   UNL     1      41.541 -16.545   0.045  1.00  0.00     0.010 C 
ENDBRANCH  14  19
ENDBRANCH  11  13
ENDBRANCH   6  11
ENDBRANCH   1   2
BRANCH   1  21
HETATM   21  N   UNL     1      41.795 -15.096   5.917  1.00  0.00    -0.260 N 
HETATM   22  C   UNL     1      43.119 -14.808   5.896  1.00  0.00     0.326 C 
HETATM   23  O   UNL     1      43.641 -13.723   5.704  1.00  0.00    -0.247 OA
HETATM   24  N   UNL     1      43.824 -15.950   6.187  1.00  0.00    -0.321 N 
HETATM   25  C   UNL     1      42.974 -17.118   6.299  1.00  0.00     0.140 C 
HETATM   26  H   UNL     1      44.832 -15.956   6.113  1.00  0.00     0.165 HD
HETATM   27  C   UNL     1      41.607 -16.391   6.311  1.00  0.00     0.261 C 
HETATM   28  C   UNL     1      43.178 -17.837   7.631  1.00  0.00     0.054 C 
HETATM   29  O   UNL     1      40.533 -16.899   6.614  1.00  0.00    -0.270 OA
BRANCH  25  30
HETATM   30  C   UNL     1      43.207 -18.036   5.102  1.00  0.00    -0.020 A 
HETATM   31  C   UNL     1      43.876 -19.268   5.207  1.00  0.00     0.022 A 
HETATM   32  C   UNL     1      44.033 -20.120   4.098  1.00  0.00    -0.025 A 
HETATM   33  C   UNL     1      43.519 -19.729   2.842  1.00  0.00    -0.026 A 
HETATM   34  C   UNL     1      44.689 -21.357   4.210  1.00  0.00     0.012 A 
HETATM   35  C   UNL     1      42.877 -18.491   2.724  1.00  0.00     0.013 A 
HETATM   36  C   UNL     1      43.659 -20.586   1.739  1.00  0.00     0.012 A 
HETATM   37  C   UNL     1      42.727 -17.657   3.834  1.00  0.00     0.011 A 
HETATM   38  C   UNL     1      44.302 -21.818   1.871  1.00  0.00     0.001 A 
HETATM   39  C   UNL     1      44.820 -22.201   3.107  1.00  0.00     0.001 A 
ENDBRANCH  25  30
ENDBRANCH   1  21
TORSDOF 7
ENDMDL
MODEL 8
REMARK VINA RESULT:      -9.7      4.134      7.262
REMARK  7 active torsions:
REMARK  status: ('A' for Active; 'I' for Inactive)
REMARK    1  A    between atoms: C_2  and  C_3 
REMARK    2  A    between atoms: C_4  and  N_5 
REMARK    3  A    between atoms: N_5  and  C_6 
REMARK    4  A    between atoms: C_8  and  N_9 
REMARK    5  A    between atoms: C_11  and  C_12 
REMARK    6  A    between atoms: C_12  and  N_13 
REMARK    7  A    between atoms: C_17  and  C_18 
ROOT
HETATM    1  C   UNL     1      40.030 -14.327   4.493  1.00  0.00     0.218 C 
ENDROOT
BRANCH   1   2
HETATM    2  C   UNL     1      39.708 -13.014   5.173  1.00  0.00     0.166 A 
HETATM    3  N   UNL     1      39.370 -12.000   4.374  1.00  0.00    -0.200 NA
HETATM    4  C   UNL     1      39.143 -10.855   4.991  1.00  0.00     0.219 A 
HETATM    5  N   UNL     1      39.200 -10.673   6.296  1.00  0.00    -0.031 NA
HETATM    6  C   UNL     1      39.517 -11.740   7.024  1.00  0.00     0.731 A 
HETATM    7  N   UNL     1      39.742 -12.945   6.509  1.00  0.00    -0.045 NA
BRANCH   4   8
HETATM    8  N   UNL     1      38.775  -9.775   4.214  1.00  0.00    -0.270 NA
HETATM    9  H   UNL     1      38.295  -9.091   4.784  1.00  0.00     0.127 HD
HETATM   10  H   UNL     1      38.307 -10.086   3.375  1.00  0.00     0.127 HD
ENDBRANCH   4   8
BRANCH   6  11
HETATM   11  N   UNL     1      39.584 -11.644   8.415  1.00  0.00    -0.188 N 
HETATM   12  H   UNL     1      39.352 -12.538   8.826  1.00  0.00     0.184 HD
BRANCH  11  13
HETATM   13  C   UNL     1      40.356 -10.796   9.233  1.00  0.00     0.055 A 
HETATM   14  C   UNL     1      39.726  -9.859  10.083  1.00  0.00    -0.031 A 
HETATM   15  C   UNL     1      40.511  -9.001  10.878  1.00  0.00     0.009 A 
HETATM   16  C   UNL     1      41.902  -9.059  10.840  1.00  0.00     0.001 A 
HETATM   17  C   UNL     1      42.527  -9.967   9.996  1.00  0.00     0.002 A 
HETATM   18  C   UNL     1      41.760 -10.817   9.197  1.00  0.00     0.030 A 
BRANCH  14  19
HETATM   19  C   UNL     1      38.223  -9.681  10.123  1.00  0.00     0.036 C 
HETATM   20  C   UNL     1      37.776  -8.973  11.395  1.00  0.00     0.010 C 
ENDBRANCH  14  19
ENDBRANCH  11  13
ENDBRANCH   6  11
ENDBRANCH   1   2
BRANCH   1  21
HETATM   21  N   UNL     1      41.357 -14.840   4.758  1.00  0.00    -0.260 N 
HETATM   22  C   UNL     1      42.482 -14.333   4.200  1.00  0.00     0.326 C 
HETATM   23  O   UNL     1      42.563 -13.474   3.337  1.00  0.00    -0.247 OA
HETATM   24  N   UNL     1      43.573 -14.907   4.804  1.00  0.00    -0.321 N 
HETATM   25  C   UNL     1      43.208 -15.950   5.741  1.00  0.00     0.140 C 
HETATM   26  H   UNL     1      44.502 -14.731   4.447  1.00  0.00     0.165 HD
HETATM   27  C   UNL     1      41.685 -15.674   5.790  1.00  0.00     0.261 C 
HETATM   28  C   UNL     1      43.812 -15.703   7.122  1.00  0.00     0.054 C 
HETATM   29  O   UNL     1      40.904 -16.137   6.614  1.00  0.00    -0.270 OA
BRANCH  25  30
HETATM   30  C   UNL     1      43.600 -17.310   5.171  1.00  0.00    -0.020 A 
HETATM   31  C   UNL     1      43.104 -17.794   3.947  1.00  0.00     0.022 A 
HETATM   32  C   UNL     1      43.520 -19.030   3.419  1.00  0.00    -0.025 A 
HETATM   33  C   UNL     1      44.448 -19.816   4.136  1.00  0.00    -0.026 A 
HETATM   34  C   UNL     1      43.034 -19.503   2.188  1.00  0.00     0.012 A 
HETATM   35  C   UNL     1      44.923 -19.354   5.369  1.00  0.00     0.013 A 
HETATM   36  C   UNL     1      44.878 -21.041   3.601  1.00  0.00     0.012 A 
HETATM   37  C   UNL     1      44.503 -18.124   5.880  1.00  0.00     0.011 A 
HETATM   38  C   UNL     1      44.394 -21.489   2.371  1.00  0.00     0.001 A 
HETATM   39  C   UNL     1      43.471 -20.721   1.666  1.00  0.00     0.001 A 
ENDBRANCH  25  30
ENDBRANCH   1  21
TORSDOF 7
ENDMDL
MODEL 9
REMARK VINA RESULT:      -9.5      2.324      7.281
REMARK  7 active torsions:
REMARK  status: ('A' for Active; 'I' for Inactive)
REMARK    1  A    between atoms: C_2  and  C_3 
REMARK    2  A    between atoms: C_4  and  N_5 
REMARK    3  A    between atoms: N_5  and  C_6 
REMARK    4  A    between atoms: C_8  and  N_9 
REMARK    5  A    between atoms: C_11  and  C_12 
REMARK    6  A    between atoms: C_12  and  N_13 
REMARK    7  A    between atoms: C_17  and  C_18 
ROOT
HETATM    1  C   UNL     1      42.902 -15.080   6.999  1.00  0.00     0.218 C 
ENDROOT
BRANCH   1   2
HETATM    2  C   UNL     1      43.413 -16.504   7.026  1.00  0.00     0.166 A 
HETATM    3  N   UNL     1      43.605 -17.042   8.231  1.00  0.00    -0.200 NA
HETATM    4  C   UNL     1      44.099 -18.267   8.224  1.00  0.00     0.219 A 
HETATM    5  N   UNL     1      44.372 -18.967   7.140  1.00  0.00    -0.031 NA
HETATM    6  C   UNL     1      44.127 -18.369   5.978  1.00  0.00     0.731 A 
HETATM    7  N   UNL     1      43.608 -17.149   5.870  1.00  0.00    -0.045 NA
BRANCH   4   8
HETATM    8  N   UNL     1      44.304 -18.878   9.444  1.00  0.00    -0.270 NA
HETATM    9  H   UNL     1      43.876 -18.331  10.178  1.00  0.00     0.127 HD
HETATM   10  H   UNL     1      45.277 -19.123   9.558  1.00  0.00     0.127 HD
ENDBRANCH   4   8
BRANCH   6  11
HETATM   11  N   UNL     1      44.369 -19.042   4.779  1.00  0.00    -0.188 N 
HETATM   12  H   UNL     1      44.377 -20.038   4.947  1.00  0.00     0.184 HD
BRANCH  11  13
HETATM   13  C   UNL     1      44.087 -18.665   3.451  1.00  0.00     0.055 A 
HETATM   14  C   UNL     1      44.004 -19.644   2.435  1.00  0.00    -0.031 A 
HETATM   15  C   UNL     1      43.746 -19.250   1.107  1.00  0.00     0.009 A 
HETATM   16  C   UNL     1      43.572 -17.908   0.777  1.00  0.00     0.001 A 
HETATM   17  C   UNL     1      43.668 -16.941   1.767  1.00  0.00     0.002 A 
HETATM   18  C   UNL     1      43.932 -17.317   3.086  1.00  0.00     0.030 A 
BRANCH  14  19
HETATM   19  C   UNL     1      44.258 -21.112   2.700  1.00  0.00     0.036 C 
HETATM   20  C   UNL     1      44.091 -21.948   1.438  1.00  0.00     0.010 C 
ENDBRANCH  14  19
ENDBRANCH  11  13
ENDBRANCH   6  11
ENDBRANCH   1   2
BRANCH   1  21
HETATM   21  N   UNL     1      41.801 -14.846   6.088  1.00  0.00    -0.260 N 
HETATM   22  C   UNL     1      40.657 -15.572   6.092  1.00  0.00     0.326 C 
HETATM   23  O   UNL     1      40.411 -16.568   6.752  1.00  0.00    -0.247 OA
HETATM   24  N   UNL     1      39.752 -14.975   5.250  1.00  0.00    -0.321 N 
HETATM   25  C   UNL     1      40.315 -13.851   4.530  1.00  0.00     0.140 C 
HETATM   26  H   UNL     1      38.875 -15.432   5.041  1.00  0.00     0.165 HD
HETATM   27  C   UNL     1      41.636 -13.721   5.329  1.00  0.00     0.261 C 
HETATM   28  C   UNL     1      39.482 -12.585   4.719  1.00  0.00     0.054 C 
HETATM   29  O   UNL     1      42.407 -12.770   5.279  1.00  0.00    -0.270 OA
BRANCH  25  30
HETATM   30  C   UNL     1      40.485 -14.220   3.058  1.00  0.00    -0.020 A 
HETATM   31  C   UNL     1      40.975 -13.316   2.099  1.00  0.00     0.022 A 
HETATM   32  C   UNL     1      41.170 -13.696   0.758  1.00  0.00    -0.025 A 
HETATM   33  C   UNL     1      40.856 -15.013   0.356  1.00  0.00    -0.026 A 
HETATM   34  C   UNL     1      41.675 -12.795  -0.194  1.00  0.00     0.012 A 
HETATM   35  C   UNL     1      40.340 -15.909   1.299  1.00  0.00     0.013 A 
HETATM   36  C   UNL     1      41.067 -15.398  -0.978  1.00  0.00     0.012 A 
HETATM   37  C   UNL     1      40.154 -15.518   2.627  1.00  0.00     0.011 A 
HETATM   38  C   UNL     1      41.581 -14.493  -1.908  1.00  0.00     0.001 A 
HETATM   39  C   UNL     1      41.882 -13.191  -1.516  1.00  0.00     0.001 A 
ENDBRANCH  25  30
ENDBRANCH   1  21
TORSDOF 7
ENDMDL
MODEL 10
REMARK VINA RESULT:      -9.5      2.226      8.196
REMARK  7 active torsions:
REMARK  status: ('A' for Active; 'I' for Inactive)
REMARK    1  A    between atoms: C_2  and  C_3 
REMARK    2  A    between atoms: C_4  and  N_5 
REMARK    3  A    between atoms: N_5  and  C_6 
REMARK    4  A    between atoms: C_8  and  N_9 
REMARK    5  A    between atoms: C_11  and  C_12 
REMARK    6  A    between atoms: C_12  and  N_13 
REMARK    7  A    between atoms: C_17  and  C_18 
ROOT
HETATM    1  C   UNL     1      41.733 -12.961   3.890  1.00  0.00     0.218 C 
ENDROOT
BRANCH   1   2
HETATM    2  C   UNL     1      41.825 -14.434   4.225  1.00  0.00     0.166 A 
HETATM    3  N   UNL     1      40.898 -14.913   5.055  1.00  0.00    -0.200 NA
HETATM    4  C   UNL     1      41.033 -16.188   5.369  1.00  0.00     0.219 A 
HETATM    5  N   UNL     1      41.973 -16.987   4.903  1.00  0.00    -0.031 NA
HETATM    6  C   UNL     1      42.842 -16.441   4.058  1.00  0.00     0.731 A 
HETATM    7  N   UNL     1      42.785 -15.173   3.657  1.00  0.00    -0.045 NA
BRANCH   4   8
HETATM    8  N   UNL     1      40.091 -16.740   6.214  1.00  0.00    -0.270 NA
HETATM    9  H   UNL     1      39.559 -16.006   6.660  1.00  0.00     0.127 HD
HETATM   10  H   UNL     1      40.518 -17.432   6.814  1.00  0.00     0.127 HD
ENDBRANCH   4   8
BRANCH   6  11
HETATM   11  N   UNL     1      43.861 -17.216   3.502  1.00  0.00    -0.188 N 
HETATM   12  H   UNL     1      44.750 -16.758   3.644  1.00  0.00     0.184 HD
BRANCH  11  13
HETATM   13  C   UNL     1      43.936 -18.607   3.295  1.00  0.00     0.055 A 
HETATM   14  C   UNL     1      44.479 -19.448   4.293  1.00  0.00    -0.031 A 
HETATM   15  C   UNL     1      44.570 -20.835   4.062  1.00  0.00     0.009 A 
HETATM   16  C   UNL     1      44.135 -21.394   2.863  1.00  0.00     0.001 A 
HETATM   17  C   UNL     1      43.615 -20.572   1.873  1.00  0.00     0.002 A 
HETATM   18  C   UNL     1      43.527 -19.195   2.086  1.00  0.00     0.030 A 
BRANCH  14  19
HETATM   19  C   UNL     1      45.044 -18.908   5.589  1.00  0.00     0.036 C 
HETATM   20  C   UNL     1      44.125 -19.202   6.767  1.00  0.00     0.010 C 
ENDBRANCH  14  19
ENDBRANCH  11  13
ENDBRANCH   6  11
ENDBRANCH   1   2
BRANCH   1  21
HETATM   21  N   UNL     1      40.987 -12.656   2.688  1.00  0.00    -0.260 N 
HETATM   22  C   UNL     1      39.646 -12.459   2.668  1.00  0.00     0.326 C 
HETATM   23  O   UNL     1      38.859 -12.606   3.587  1.00  0.00    -0.247 OA
HETATM   24  N   UNL     1      39.286 -11.999   1.425  1.00  0.00    -0.321 N 
HETATM   25  C   UNL     1      40.394 -11.984   0.492  1.00  0.00     0.140 C 
HETATM   26  H   UNL     1      38.309 -11.896   1.186  1.00  0.00     0.165 HD
HETATM   27  C   UNL     1      41.535 -12.243   1.506  1.00  0.00     0.261 C 
HETATM   28  C   UNL     1      40.580 -10.606  -0.140  1.00  0.00     0.054 C 
HETATM   29  O   UNL     1      42.732 -12.108   1.280  1.00  0.00    -0.270 OA
BRANCH  25  30
HETATM   30  C   UNL     1      40.198 -13.079  -0.553  1.00  0.00    -0.020 A 
HETATM   31  C   UNL     1      39.040 -13.176  -1.346  1.00  0.00     0.022 A 
HETATM   32  C   UNL     1      38.905 -14.166  -2.338  1.00  0.00    -0.025 A 
HETATM   33  C   UNL     1      39.949 -15.096  -2.538  1.00  0.00    -0.026 A 
HETATM   34  C   UNL     1      37.754 -14.250  -3.138  1.00  0.00     0.012 A 
HETATM   35  C   UNL     1      41.091 -15.023  -1.732  1.00  0.00     0.013 A 
HETATM   36  C   UNL     1      39.823 -16.072  -3.540  1.00  0.00     0.012 A 
HETATM   37  C   UNL     1      41.211 -14.034  -0.754  1.00  0.00     0.011 A 
HETATM   38  C   UNL     1      38.678 -16.133  -4.335  1.00  0.00     0.001 A 
HETATM   39  C   UNL     1      37.643 -15.223  -4.132  1.00  0.00     0.001 A 
ENDBRANCH  25  30
ENDBRANCH   1  21
TORSDOF 7
ENDMDL
