MODEL 1
REMARK VINA RESULT:      -9.1      0.000      0.000
REMARK  4 active torsions:
REMARK  status: ('A' for Active; 'I' for Inactive)
REMARK    1  A    between atoms: C_6  and  N_7 
REMARK       I    between atoms: N_7  and  C_8 
REMARK    2  A    between atoms: C_8  and  C_9 
REMARK    3  A    between atoms: C_10  and  C_11 
REMARK    4  A    between atoms: C_14  and  O_15 
ROOT
HETATM    1  C   UNL     1      41.191 -15.430   4.454  1.00  0.00     0.062 A 
HETATM    2  C   UNL     1      41.391 -14.136   3.676  1.00  0.00     0.202 A 
HETATM    3  N   UNL     1      41.059 -12.964   4.498  1.00  0.00    -0.084 N 
HETATM    4  C   UNL     1      40.609 -13.033   5.788  1.00  0.00     0.725 A 
HETATM    5  N   UNL     1      40.435 -14.238   6.363  1.00  0.00    -0.192 N 
HETATM    6  N   UNL     1      41.318 -11.685   4.143  1.00  0.00    -0.149 NA
HETATM    7  C   UNL     1      40.884 -11.036   5.229  1.00  0.00     0.275 A 
HETATM    8  N   UNL     1      40.456 -11.825   6.265  1.00  0.00    -0.054 NA
HETATM    9  C   UNL     1      40.728 -15.438   5.728  1.00  0.00     0.037 A 
HETATM   10  C   UNL     1      40.509 -16.684   6.551  1.00  0.00     0.070 C 
HETATM   11  H   UNL     1      40.094 -14.280   7.320  1.00  0.00     0.184 HD
ENDROOT
BRANCH   1  12
HETATM   12  C   UNL     1      41.435 -16.708   3.738  1.00  0.00     0.256 C 
HETATM   13  N   UNL     1      42.693 -17.221   3.966  1.00  0.00    -0.323 N 
HETATM   14  H   UNL     1      43.296 -16.706   4.590  1.00  0.00     0.169 HD
HETATM   15  O   UNL     1      40.535 -17.189   3.062  1.00  0.00    -0.267 OA
BRANCH  13  16
HETATM   16  C   UNL     1      43.232 -18.431   3.459  1.00  0.00     0.041 A 
HETATM   17  C   UNL     1      44.139 -19.163   4.257  1.00  0.00    -0.035 A 
HETATM   18  C   UNL     1      44.656 -20.382   3.778  1.00  0.00     0.015 A 
HETATM   19  C   UNL     1      44.585 -18.689   5.615  1.00  0.00     0.050 C 
HETATM   20  C   UNL     1      44.304 -20.878   2.519  1.00  0.00    -0.061 A 
HETATM   21  C   UNL     1      44.827 -22.197   2.035  1.00  0.00     0.048 C 
HETATM   22  C   UNL     1      43.408 -20.148   1.739  1.00  0.00     0.009 A 
HETATM   23  C   UNL     1      42.884 -18.937   2.201  1.00  0.00     0.030 A 
ENDBRANCH  13  16
ENDBRANCH   1  12
BRANCH   2  24
HETATM   24  C   UNL     1      40.659 -14.063   2.340  1.00  0.00    -0.028 A 
HETATM   25  C   UNL     1      41.336 -14.063   1.111  1.00  0.00     0.012 A 
HETATM   26  C   UNL     1      40.623 -14.001  -0.091  1.00  0.00     0.037 A 
HETATM   27  C   UNL     1      39.227 -13.964  -0.096  1.00  0.00     0.068 A 
HETATM   28  C   UNL     1      38.544 -13.984   1.117  1.00  0.00     0.037 A 
HETATM   29  C   UNL     1      39.254 -14.033   2.323  1.00  0.00     0.012 A 
BRANCH  27  30
HETATM   30  O   UNL     1      38.658 -13.914  -1.339  1.00  0.00    -0.356 OA
HETATM   31  C   UNL     1      39.488 -14.267  -2.439  1.00  0.00     0.210 C 
ENDBRANCH  27  30
ENDBRANCH   2  24
TORSDOF 4
ENDMDL
MODEL 2
REMARK VINA RESULT:      -9.1      1.237      1.803
REMARK  4 active torsions:
REMARK  status: ('A' for Active; 'I' for Inactive)
REMARK    1  A    between atoms: C_6  and  N_7 
REMARK       I    between atoms: N_7  and  C_8 
REMARK    2  A    between atoms: C_8  and  C_9 
REMARK    3  A    between atoms: C_10  and  C_11 
REMARK    4  A    between atoms: C_14  and  O_15 
ROOT
HETATM    1  C   UNL     1      41.583 -14.877   4.758  1.00  0.00     0.062 A 
HETATM    2  C   UNL     1      41.354 -13.607   3.950  1.00  0.00     0.202 A 
HETATM    3  N   UNL     1      40.316 -12.767   4.563  1.00  0.00    -0.084 N 
HETATM    4  C   UNL     1      39.633 -13.098   5.702  1.00  0.00     0.725 A 
HETATM    5  N   UNL     1      39.896 -14.268   6.313  1.00  0.00    -0.192 N 
HETATM    6  N   UNL     1      40.033 -11.502   4.179  1.00  0.00    -0.149 NA
HETATM    7  C   UNL     1      39.083 -11.183   5.066  1.00  0.00     0.275 A 
HETATM    8  N   UNL     1      38.819 -12.126   6.024  1.00  0.00    -0.054 NA
HETATM    9  C   UNL     1      40.865 -15.161   5.872  1.00  0.00     0.037 A 
HETATM   10  C   UNL     1      41.046 -16.399   6.715  1.00  0.00     0.070 C 
HETATM   11  H   UNL     1      39.379 -14.509   7.155  1.00  0.00     0.184 HD
ENDROOT
BRANCH   1  12
HETATM   12  C   UNL     1      42.569 -15.858   4.234  1.00  0.00     0.256 C 
HETATM   13  N   UNL     1      42.025 -17.106   4.021  1.00  0.00    -0.323 N 
HETATM   14  H   UNL     1      41.042 -17.221   4.218  1.00  0.00     0.169 HD
HETATM   15  O   UNL     1      43.716 -15.487   4.020  1.00  0.00    -0.267 OA
BRANCH  13  16
HETATM   16  C   UNL     1      42.682 -18.251   3.505  1.00  0.00     0.041 A 
HETATM   17  C   UNL     1      42.471 -18.610   2.156  1.00  0.00    -0.035 A 
HETATM   18  C   UNL     1      43.142 -19.728   1.622  1.00  0.00     0.015 A 
HETATM   19  C   UNL     1      41.545 -17.841   1.250  1.00  0.00     0.050 C 
HETATM   20  C   UNL     1      44.003 -20.503   2.406  1.00  0.00    -0.061 A 
HETATM   21  C   UNL     1      44.744 -21.666   1.818  1.00  0.00     0.048 C 
HETATM   22  C   UNL     1      44.203 -20.141   3.737  1.00  0.00     0.009 A 
HETATM   23  C   UNL     1      43.546 -19.033   4.280  1.00  0.00     0.030 A 
ENDBRANCH  13  16
ENDBRANCH   1  12
BRANCH   2  24
HETATM   24  C   UNL     1      41.045 -13.825   2.472  1.00  0.00    -0.028 A 
HETATM   25  C   UNL     1      41.951 -13.484   1.457  1.00  0.00     0.012 A 
HETATM   26  C   UNL     1      41.629 -13.709   0.114  1.00  0.00     0.037 A 
HETATM   27  C   UNL     1      40.414 -14.297  -0.243  1.00  0.00     0.068 A 
HETATM   28  C   UNL     1      39.515 -14.658   0.758  1.00  0.00     0.037 A 
HETATM   29  C   UNL     1      39.829 -14.424   2.102  1.00  0.00     0.012 A 
BRANCH  27  30
HETATM   30  O   UNL     1      40.231 -14.466  -1.588  1.00  0.00    -0.356 OA
HETATM   31  C   UNL     1      40.920 -15.551  -2.197  1.00  0.00     0.210 C 
ENDBRANCH  27  30
ENDBRANCH   2  24
TORSDOF 4
ENDMDL
MODEL 3
REMARK VINA RESULT:      -8.5      2.461      4.702
REMARK  4 active torsions:
REMARK  status: ('A' for Active; 'I' for Inactive)
REMARK    1  A    between atoms: C_6  and  N_7 
REMARK       I    between atoms: N_7  and  C_8 
REMARK    2  A    between atoms: C_8  and  C_9 
REMARK    3  A    between atoms: C_10  and  C_11 
REMARK    4  A    between atoms: C_14  and  O_15 
ROOT
HETATM    1  C   UNL     1      41.250 -15.372   1.907  1.00  0.00     0.062 A 
HETATM    2  C   UNL     1      41.080 -14.309   2.984  1.00  0.00     0.202 A 
HETATM    3  N   UNL     1      40.954 -12.969   2.394  1.00  0.00    -0.084 N 
HETATM    4  C   UNL     1      41.006 -12.713   1.050  1.00  0.00     0.725 A 
HETATM    5  N   UNL     1      41.198 -13.732   0.191  1.00  0.00    -0.192 N 
HETATM    6  N   UNL     1      40.605 -11.861   3.085  1.00  0.00    -0.149 NA
HETATM    7  C   UNL     1      40.584 -10.954   2.101  1.00  0.00     0.275 A 
HETATM    8  N   UNL     1      40.809 -11.438   0.838  1.00  0.00    -0.054 NA
HETATM    9  C   UNL     1      41.310 -15.058   0.589  1.00  0.00     0.037 A 
HETATM   10  C   UNL     1      41.477 -16.063  -0.523  1.00  0.00     0.070 C 
HETATM   11  H   UNL     1      41.241 -13.531  -0.804  1.00  0.00     0.184 HD
ENDROOT
BRANCH   1  12
HETATM   12  C   UNL     1      41.445 -16.776   2.351  1.00  0.00     0.256 C 
HETATM   13  N   UNL     1      42.721 -17.242   2.119  1.00  0.00    -0.323 N 
HETATM   14  H   UNL     1      43.379 -16.599   1.703  1.00  0.00     0.169 HD
HETATM   15  O   UNL     1      40.512 -17.364   2.882  1.00  0.00    -0.267 OA
BRANCH  13  16
HETATM   16  C   UNL     1      43.241 -18.520   2.446  1.00  0.00     0.041 A 
HETATM   17  C   UNL     1      43.785 -18.728   3.731  1.00  0.00    -0.035 A 
HETATM   18  C   UNL     1      44.276 -20.002   4.079  1.00  0.00     0.015 A 
HETATM   19  C   UNL     1      43.867 -17.633   4.761  1.00  0.00     0.050 C 
HETATM   20  C   UNL     1      44.251 -21.064   3.170  1.00  0.00    -0.061 A 
HETATM   21  C   UNL     1      44.738 -22.427   3.563  1.00  0.00     0.048 C 
HETATM   22  C   UNL     1      43.713 -20.848   1.903  1.00  0.00     0.009 A 
HETATM   23  C   UNL     1      43.220 -19.590   1.544  1.00  0.00     0.030 A 
ENDBRANCH  13  16
ENDBRANCH   1  12
BRANCH   2  24
HETATM   24  C   UNL     1      42.153 -14.306   4.068  1.00  0.00    -0.028 A 
HETATM   25  C   UNL     1      43.477 -13.915   3.815  1.00  0.00     0.012 A 
HETATM   26  C   UNL     1      44.426 -13.921   4.842  1.00  0.00     0.037 A 
HETATM   27  C   UNL     1      44.074 -14.290   6.141  1.00  0.00     0.068 A 
HETATM   28  C   UNL     1      42.759 -14.661   6.409  1.00  0.00     0.037 A 
HETATM   29  C   UNL     1      41.808 -14.668   5.382  1.00  0.00     0.012 A 
BRANCH  27  30
HETATM   30  O   UNL     1      45.097 -14.243   7.048  1.00  0.00    -0.356 OA
HETATM   31  C   UNL     1      45.062 -13.187   8.001  1.00  0.00     0.210 C 
ENDBRANCH  27  30
ENDBRANCH   2  24
TORSDOF 4
ENDMDL
MODEL 4
REMARK VINA RESULT:      -8.4      2.401      6.534
REMARK  4 active torsions:
REMARK  status: ('A' for Active; 'I' for Inactive)
REMARK    1  A    between atoms: C_6  and  N_7 
REMARK       I    between atoms: N_7  and  C_8 
REMARK    2  A    between atoms: C_8  and  C_9 
REMARK    3  A    between atoms: C_10  and  C_11 
REMARK    4  A    between atoms: C_14  and  O_15 
ROOT
HETATM    1  C   UNL     1      43.293 -18.290   4.755  1.00  0.00     0.062 A 
HETATM    2  C   UNL     1      42.613 -18.834   3.506  1.00  0.00     0.202 A 
HETATM    3  N   UNL     1      43.405 -19.911   2.895  1.00  0.00    -0.084 N 
HETATM    4  C   UNL     1      44.608 -20.349   3.380  1.00  0.00     0.725 A 
HETATM    5  N   UNL     1      45.131 -19.766   4.475  1.00  0.00    -0.192 N 
HETATM    6  N   UNL     1      42.967 -20.706   1.893  1.00  0.00    -0.149 NA
HETATM    7  C   UNL     1      44.017 -21.524   1.753  1.00  0.00     0.275 A 
HETATM    8  N   UNL     1      45.036 -21.349   2.653  1.00  0.00    -0.054 NA
HETATM    9  C   UNL     1      44.494 -18.753   5.180  1.00  0.00     0.037 A 
HETATM   10  C   UNL     1      45.217 -18.256   6.408  1.00  0.00     0.070 C 
HETATM   11  H   UNL     1      46.028 -20.094   4.823  1.00  0.00     0.184 HD
ENDROOT
BRANCH   1  12
HETATM   12  C   UNL     1      42.638 -17.156   5.456  1.00  0.00     0.256 C 
HETATM   13  N   UNL     1      43.005 -15.927   4.953  1.00  0.00    -0.323 N 
HETATM   14  H   UNL     1      43.646 -15.920   4.173  1.00  0.00     0.169 HD
HETATM   15  O   UNL     1      41.846 -17.396   6.359  1.00  0.00    -0.267 OA
BRANCH  13  16
HETATM   16  C   UNL     1      42.545 -14.654   5.375  1.00  0.00     0.041 A 
HETATM   17  C   UNL     1      43.360 -13.884   6.233  1.00  0.00    -0.035 A 
HETATM   18  C   UNL     1      42.929 -12.604   6.635  1.00  0.00     0.015 A 
HETATM   19  C   UNL     1      44.687 -14.377   6.747  1.00  0.00     0.050 C 
HETATM   20  C   UNL     1      41.700 -12.085   6.215  1.00  0.00    -0.061 A 
HETATM   21  C   UNL     1      41.269 -10.705   6.614  1.00  0.00     0.048 C 
HETATM   22  C   UNL     1      40.903 -12.854   5.369  1.00  0.00     0.009 A 
HETATM   23  C   UNL     1      41.318 -14.125   4.960  1.00  0.00     0.030 A 
ENDBRANCH  13  16
ENDBRANCH   1  12
BRANCH   2  24
HETATM   24  C   UNL     1      42.253 -17.788   2.455  1.00  0.00    -0.028 A 
HETATM   25  C   UNL     1      43.196 -17.274   1.552  1.00  0.00     0.012 A 
HETATM   26  C   UNL     1      42.819 -16.320   0.601  1.00  0.00     0.037 A 
HETATM   27  C   UNL     1      41.497 -15.880   0.512  1.00  0.00     0.068 A 
HETATM   28  C   UNL     1      40.549 -16.398   1.390  1.00  0.00     0.037 A 
HETATM   29  C   UNL     1      40.924 -17.343   2.352  1.00  0.00     0.012 A 
BRANCH  27  30
HETATM   30  O   UNL     1      41.266 -14.953  -0.468  1.00  0.00    -0.356 OA
HETATM   31  C   UNL     1      40.933 -15.453  -1.758  1.00  0.00     0.210 C 
ENDBRANCH  27  30
ENDBRANCH   2  24
TORSDOF 4
ENDMDL
MODEL 5
REMARK VINA RESULT:      -8.3      2.769      6.226
REMARK  4 active torsions:
REMARK  status: ('A' for Active; 'I' for Inactive)
REMARK    1  A    between atoms: C_6  and  N_7 
REMARK       I    between atoms: N_7  and  C_8 
REMARK    2  A    between atoms: C_8  and  C_9 
REMARK    3  A    between atoms: C_10  and  C_11 
REMARK    4  A    between atoms: C_14  and  O_15 
ROOT
HETATM    1  C   UNL     1      43.263 -17.389   3.651  1.00  0.00     0.062 A 
HETATM    2  C   UNL     1      43.468 -16.669   4.977  1.00  0.00     0.202 A 
HETATM    3  N   UNL     1      43.646 -17.624   6.079  1.00  0.00    -0.084 N 
HETATM    4  C   UNL     1      43.610 -18.984   5.930  1.00  0.00     0.725 A 
HETATM    5  N   UNL     1      43.385 -19.509   4.711  1.00  0.00    -0.192 N 
HETATM    6  N   UNL     1      44.033 -17.283   7.329  1.00  0.00    -0.149 NA
HETATM    7  C   UNL     1      44.093 -18.490   7.905  1.00  0.00     0.275 A 
HETATM    8  N   UNL     1      43.856 -19.558   7.080  1.00  0.00    -0.054 NA
HETATM    9  C   UNL     1      43.221 -18.741   3.565  1.00  0.00     0.037 A 
HETATM   10  C   UNL     1      43.022 -19.512   2.284  1.00  0.00     0.070 C 
HETATM   11  H   UNL     1      43.353 -20.521   4.612  1.00  0.00     0.184 HD
ENDROOT
BRANCH   1  12
HETATM   12  C   UNL     1      43.014 -16.556   2.447  1.00  0.00     0.256 C 
HETATM   13  N   UNL     1      41.698 -16.579   2.039  1.00  0.00    -0.323 N 
HETATM   14  H   UNL     1      41.053 -17.125   2.591  1.00  0.00     0.169 HD
HETATM   15  O   UNL     1      43.945 -15.929   1.957  1.00  0.00    -0.267 OA
BRANCH  13  16
HETATM   16  C   UNL     1      41.124 -15.876   0.949  1.00  0.00     0.041 A 
HETATM   17  C   UNL     1      40.113 -14.925   1.205  1.00  0.00    -0.035 A 
HETATM   18  C   UNL     1      39.557 -14.198   0.133  1.00  0.00     0.015 A 
HETATM   19  C   UNL     1      39.593 -14.651   2.591  1.00  0.00     0.050 C 
HETATM   20  C   UNL     1      39.975 -14.410  -1.184  1.00  0.00    -0.061 A 
HETATM   21  C   UNL     1      39.407 -13.601  -2.312  1.00  0.00     0.048 C 
HETATM   22  C   UNL     1      40.973 -15.352  -1.426  1.00  0.00     0.009 A 
HETATM   23  C   UNL     1      41.536 -16.079  -0.373  1.00  0.00     0.030 A 
ENDBRANCH  13  16
ENDBRANCH   1  12
BRANCH   2  24
HETATM   24  C   UNL     1      42.390 -15.651   5.335  1.00  0.00    -0.028 A 
HETATM   25  C   UNL     1      42.604 -14.267   5.247  1.00  0.00     0.012 A 
HETATM   26  C   UNL     1      41.584 -13.369   5.579  1.00  0.00     0.037 A 
HETATM   27  C   UNL     1      40.328 -13.828   5.982  1.00  0.00     0.068 A 
HETATM   28  C   UNL     1      40.098 -15.199   6.055  1.00  0.00     0.037 A 
HETATM   29  C   UNL     1      41.120 -16.101   5.734  1.00  0.00     0.012 A 
BRANCH  27  30
HETATM   30  O   UNL     1      39.423 -12.843   6.269  1.00  0.00    -0.356 OA
HETATM   31  C   UNL     1      39.022 -12.006   5.191  1.00  0.00     0.210 C 
ENDBRANCH  27  30
ENDBRANCH   2  24
TORSDOF 4
ENDMDL
MODEL 6
REMARK VINA RESULT:      -8.3      1.810      2.684
REMARK  4 active torsions:
REMARK  status: ('A' for Active; 'I' for Inactive)
REMARK    1  A    between atoms: C_6  and  N_7 
REMARK       I    between atoms: N_7  and  C_8 
REMARK    2  A    between atoms: C_8  and  C_9 
REMARK    3  A    between atoms: C_10  and  C_11 
REMARK    4  A    between atoms: C_14  and  O_15 
ROOT
HETATM    1  C   UNL     1      40.916 -14.002   2.517  1.00  0.00     0.062 A 
HETATM    2  C   UNL     1      41.292 -13.138   1.322  1.00  0.00     0.202 A 
HETATM    3  N   UNL     1      40.964 -11.725   1.562  1.00  0.00    -0.084 N 
HETATM    4  C   UNL     1      40.377 -11.258   2.707  1.00  0.00     0.725 A 
HETATM    5  N   UNL     1      40.055 -12.124   3.685  1.00  0.00    -0.192 N 
HETATM    6  N   UNL     1      41.353 -10.705   0.765  1.00  0.00    -0.149 NA
HETATM    7  C   UNL     1      40.857  -9.663   1.441  1.00  0.00     0.275 A 
HETATM    8  N   UNL     1      40.265  -9.956   2.642  1.00  0.00    -0.054 NA
HETATM    9  C   UNL     1      40.322 -13.486   3.621  1.00  0.00     0.037 A 
HETATM   10  C   UNL     1      39.926 -14.289   4.835  1.00  0.00     0.070 C 
HETATM   11  H   UNL     1      39.613 -11.768   4.529  1.00  0.00     0.184 HD
ENDROOT
BRANCH   1  12
HETATM   12  C   UNL     1      41.137 -15.467   2.404  1.00  0.00     0.256 C 
HETATM   13  N   UNL     1      42.437 -15.837   2.670  1.00  0.00    -0.323 N 
HETATM   14  H   UNL     1      43.083 -15.104   2.926  1.00  0.00     0.169 HD
HETATM   15  O   UNL     1      40.189 -16.189   2.123  1.00  0.00    -0.267 OA
BRANCH  13  16
HETATM   16  C   UNL     1      42.972 -17.150   2.676  1.00  0.00     0.041 A 
HETATM   17  C   UNL     1      43.220 -17.781   3.914  1.00  0.00    -0.035 A 
HETATM   18  C   UNL     1      43.722 -19.098   3.934  1.00  0.00     0.015 A 
HETATM   19  C   UNL     1      42.971 -17.099   5.234  1.00  0.00     0.050 C 
HETATM   20  C   UNL     1      43.996 -19.790   2.750  1.00  0.00    -0.061 A 
HETATM   21  C   UNL     1      44.490 -21.205   2.781  1.00  0.00     0.048 C 
HETATM   22  C   UNL     1      43.749 -19.157   1.533  1.00  0.00     0.009 A 
HETATM   23  C   UNL     1      43.249 -17.852   1.498  1.00  0.00     0.030 A 
ENDBRANCH  13  16
ENDBRANCH   1  12
BRANCH   2  24
HETATM   24  C   UNL     1      40.712 -13.589  -0.014  1.00  0.00    -0.028 A 
HETATM   25  C   UNL     1      39.338 -13.532  -0.296  1.00  0.00     0.012 A 
HETATM   26  C   UNL     1      38.851 -13.951  -1.539  1.00  0.00     0.037 A 
HETATM   27  C   UNL     1      39.719 -14.411  -2.531  1.00  0.00     0.068 A 
HETATM   28  C   UNL     1      41.086 -14.454  -2.270  1.00  0.00     0.037 A 
HETATM   29  C   UNL     1      41.577 -14.047  -1.024  1.00  0.00     0.012 A 
BRANCH  27  30
HETATM   30  O   UNL     1      39.111 -14.780  -3.699  1.00  0.00    -0.356 OA
HETATM   31  C   UNL     1      39.122 -16.167  -4.017  1.00  0.00     0.210 C 
ENDBRANCH  27  30
ENDBRANCH   2  24
TORSDOF 4
ENDMDL
MODEL 7
REMARK VINA RESULT:      -8.2      2.554      4.824
REMARK  4 active torsions:
REMARK  status: ('A' for Active; 'I' for Inactive)
REMARK    1  A    between atoms: C_6  and  N_7 
REMARK       I    between atoms: N_7  and  C_8 
REMARK    2  A    between atoms: C_8  and  C_9 
REMARK    3  A    between atoms: C_10  and  C_11 
REMARK    4  A    between atoms: C_14  and  O_15 
ROOT
HETATM    1  C   UNL     1      40.232 -15.000   0.990  1.00  0.00     0.062 A 
HETATM    2  C   UNL     1      39.500 -13.964   1.832  1.00  0.00     0.202 A 
HETATM    3  N   UNL     1      39.153 -12.778   1.036  1.00  0.00    -0.084 N 
HETATM    4  C   UNL     1      39.469 -12.623  -0.287  1.00  0.00     0.725 A 
HETATM    5  N   UNL     1      40.152 -13.594  -0.921  1.00  0.00    -0.192 N 
HETATM    6  N   UNL     1      38.340 -11.785   1.460  1.00  0.00    -0.149 NA
HETATM    7  C   UNL     1      38.313 -11.008   0.371  1.00  0.00     0.275 A 
HETATM    8  N   UNL     1      38.978 -11.493  -0.725  1.00  0.00    -0.054 NA
HETATM    9  C   UNL     1      40.532 -14.784  -0.315  1.00  0.00     0.037 A 
HETATM   10  C   UNL     1      41.253 -15.770  -1.201  1.00  0.00     0.070 C 
HETATM   11  H   UNL     1      40.388 -13.466  -1.902  1.00  0.00     0.184 HD
ENDROOT
BRANCH   1  12
HETATM   12  C   UNL     1      40.698 -16.235   1.670  1.00  0.00     0.256 C 
HETATM   13  N   UNL     1      42.071 -16.323   1.745  1.00  0.00    -0.323 N 
HETATM   14  H   UNL     1      42.605 -15.557   1.360  1.00  0.00     0.169 HD
HETATM   15  O   UNL     1      39.866 -17.019   2.109  1.00  0.00    -0.267 OA
BRANCH  13  16
HETATM   16  C   UNL     1      42.834 -17.354   2.351  1.00  0.00     0.041 A 
HETATM   17  C   UNL     1      43.297 -17.175   3.672  1.00  0.00    -0.035 A 
HETATM   18  C   UNL     1      44.028 -18.205   4.297  1.00  0.00     0.015 A 
HETATM   19  C   UNL     1      43.041 -15.914   4.454  1.00  0.00     0.050 C 
HETATM   20  C   UNL     1      44.322 -19.397   3.628  1.00  0.00    -0.061 A 
HETATM   21  C   UNL     1      45.065 -20.503   4.315  1.00  0.00     0.048 C 
HETATM   22  C   UNL     1      43.861 -19.563   2.323  1.00  0.00     0.009 A 
HETATM   23  C   UNL     1      43.132 -18.552   1.691  1.00  0.00     0.030 A 
ENDBRANCH  13  16
ENDBRANCH   1  12
BRANCH   2  24
HETATM   24  C   UNL     1      40.217 -13.544   3.111  1.00  0.00    -0.028 A 
HETATM   25  C   UNL     1      39.772 -13.929   4.385  1.00  0.00     0.012 A 
HETATM   26  C   UNL     1      40.465 -13.526   5.531  1.00  0.00     0.037 A 
HETATM   27  C   UNL     1      41.624 -12.754   5.433  1.00  0.00     0.068 A 
HETATM   28  C   UNL     1      42.086 -12.381   4.173  1.00  0.00     0.037 A 
HETATM   29  C   UNL     1      41.389 -12.773   3.024  1.00  0.00     0.012 A 
BRANCH  27  30
HETATM   30  O   UNL     1      42.206 -12.438   6.629  1.00  0.00    -0.356 OA
HETATM   31  C   UNL     1      41.797 -11.219   7.239  1.00  0.00     0.210 C 
ENDBRANCH  27  30
ENDBRANCH   2  24
TORSDOF 4
ENDMDL
MODEL 8
REMARK VINA RESULT:      -8.0      2.632      5.173
REMARK  4 active torsions:
REMARK  status: ('A' for Active; 'I' for Inactive)
REMARK    1  A    between atoms: C_6  and  N_7 
REMARK       I    between atoms: N_7  and  C_8 
REMARK    2  A    between atoms: C_8  and  C_9 
REMARK    3  A    between atoms: C_10  and  C_11 
REMARK    4  A    between atoms: C_14  and  O_15 
ROOT
HETATM    1  C   UNL     1      41.582 -16.285   2.204  1.00  0.00     0.062 A 
HETATM    2  C   UNL     1      40.586 -15.134   2.236  1.00  0.00     0.202 A 
HETATM    3  N   UNL     1      40.592 -14.390   0.969  1.00  0.00    -0.084 N 
HETATM    4  C   UNL     1      41.406 -14.685  -0.092  1.00  0.00     0.725 A 
HETATM    5  N   UNL     1      42.276 -15.707   0.009  1.00  0.00    -0.192 N 
HETATM    6  N   UNL     1      39.686 -13.443   0.636  1.00  0.00    -0.149 NA
HETATM    7  C   UNL     1      40.097 -13.134  -0.600  1.00  0.00     0.275 A 
HETATM    8  N   UNL     1      41.137 -13.881  -1.088  1.00  0.00    -0.054 NA
HETATM    9  C   UNL     1      42.375 -16.521   1.130  1.00  0.00     0.037 A 
HETATM   10  C   UNL     1      43.379 -17.643   1.038  1.00  0.00     0.070 C 
HETATM   11  H   UNL     1      42.881 -15.914  -0.781  1.00  0.00     0.184 HD
ENDROOT
BRANCH   1  12
HETATM   12  C   UNL     1      41.731 -17.100   3.437  1.00  0.00     0.256 C 
HETATM   13  N   UNL     1      42.815 -16.727   4.202  1.00  0.00    -0.323 N 
HETATM   14  H   UNL     1      43.370 -15.952   3.869  1.00  0.00     0.169 HD
HETATM   15  O   UNL     1      40.906 -17.973   3.673  1.00  0.00    -0.267 OA
BRANCH  13  16
HETATM   16  C   UNL     1      43.221 -17.279   5.443  1.00  0.00     0.041 A 
HETATM   17  C   UNL     1      44.007 -18.452   5.444  1.00  0.00    -0.035 A 
HETATM   18  C   UNL     1      44.443 -18.994   6.670  1.00  0.00     0.015 A 
HETATM   19  C   UNL     1      44.403 -19.161   4.176  1.00  0.00     0.050 C 
HETATM   20  C   UNL     1      44.100 -18.402   7.890  1.00  0.00    -0.061 A 
HETATM   21  C   UNL     1      44.604 -18.962   9.186  1.00  0.00     0.048 C 
HETATM   22  C   UNL     1      43.323 -17.245   7.877  1.00  0.00     0.009 A 
HETATM   23  C   UNL     1      42.884 -16.695   6.669  1.00  0.00     0.030 A 
ENDBRANCH  13  16
ENDBRANCH   1  12
BRANCH   2  24
HETATM   24  C   UNL     1      40.742 -14.172   3.409  1.00  0.00    -0.028 A 
HETATM   25  C   UNL     1      39.862 -14.168   4.502  1.00  0.00     0.012 A 
HETATM   26  C   UNL     1      40.049 -13.272   5.559  1.00  0.00     0.037 A 
HETATM   27  C   UNL     1      41.124 -12.382   5.563  1.00  0.00     0.068 A 
HETATM   28  C   UNL     1      42.015 -12.389   4.493  1.00  0.00     0.037 A 
HETATM   29  C   UNL     1      41.825 -13.276   3.427  1.00  0.00     0.012 A 
BRANCH  27  30
HETATM   30  O   UNL     1      41.191 -11.568   6.661  1.00  0.00    -0.356 OA
HETATM   31  C   UNL     1      39.972 -10.983   7.102  1.00  0.00     0.210 C 
ENDBRANCH  27  30
ENDBRANCH   2  24
TORSDOF 4
ENDMDL
MODEL 9
REMARK VINA RESULT:      -7.8      2.410      6.684
REMARK  4 active torsions:
REMARK  status: ('A' for Active; 'I' for Inactive)
REMARK    1  A    between atoms: C_6  and  N_7 
REMARK       I    between atoms: N_7  and  C_8 
REMARK    2  A    between atoms: C_8  and  C_9 
REMARK    3  A    between atoms: C_10  and  C_11 
REMARK    4  A    between atoms: C_14  and  O_15 
ROOT
HETATM    1  C   UNL     1      42.651 -15.401   5.684  1.00  0.00     0.062 A 
HETATM    2  C   UNL     1      42.341 -16.726   5.001  1.00  0.00     0.202 A 
HETATM    3  N   UNL     1      43.380 -17.727   5.285  1.00  0.00    -0.084 N 
HETATM    4  C   UNL     1      44.489 -17.486   6.049  1.00  0.00     0.725 A 
HETATM    5  N   UNL     1      44.676 -16.261   6.574  1.00  0.00    -0.192 N 
HETATM    6  N   UNL     1      43.281 -19.039   4.973  1.00  0.00    -0.149 NA
HETATM    7  C   UNL     1      44.430 -19.499   5.482  1.00  0.00     0.275 A 
HETATM    8  N   UNL     1      45.191 -18.584   6.161  1.00  0.00    -0.054 NA
HETATM    9  C   UNL     1      43.775 -15.215   6.418  1.00  0.00     0.037 A 
HETATM   10  C   UNL     1      44.137 -13.929   7.118  1.00  0.00     0.070 C 
HETATM   11  H   UNL     1      45.507 -16.090   7.134  1.00  0.00     0.184 HD
ENDROOT
BRANCH   1  12
HETATM   12  C   UNL     1      41.717 -14.270   5.446  1.00  0.00     0.256 C 
HETATM   13  N   UNL     1      42.280 -13.256   4.702  1.00  0.00    -0.323 N 
HETATM   14  H   UNL     1      43.230 -13.385   4.388  1.00  0.00     0.169 HD
HETATM   15  O   UNL     1      40.576 -14.341   5.885  1.00  0.00    -0.267 OA
BRANCH  13  16
HETATM   16  C   UNL     1      41.656 -12.055   4.279  1.00  0.00     0.041 A 
HETATM   17  C   UNL     1      41.353 -11.888   2.910  1.00  0.00    -0.035 A 
HETATM   18  C   UNL     1      40.705 -10.713   2.481  1.00  0.00     0.015 A 
HETATM   19  C   UNL     1      41.699 -12.924   1.874  1.00  0.00     0.050 C 
HETATM   20  C   UNL     1      40.369  -9.697   3.381  1.00  0.00    -0.061 A 
HETATM   21  C   UNL     1      39.642  -8.469   2.921  1.00  0.00     0.048 C 
HETATM   22  C   UNL     1      40.673  -9.871   4.730  1.00  0.00     0.009 A 
HETATM   23  C   UNL     1      41.314 -11.032   5.171  1.00  0.00     0.030 A 
ENDBRANCH  13  16
ENDBRANCH   1  12
BRANCH   2  24
HETATM   24  C   UNL     1      42.096 -16.639   3.498  1.00  0.00    -0.028 A 
HETATM   25  C   UNL     1      43.137 -16.463   2.574  1.00  0.00     0.012 A 
HETATM   26  C   UNL     1      42.865 -16.396   1.203  1.00  0.00     0.037 A 
HETATM   27  C   UNL     1      41.561 -16.527   0.724  1.00  0.00     0.068 A 
HETATM   28  C   UNL     1      40.521 -16.721   1.630  1.00  0.00     0.037 A 
HETATM   29  C   UNL     1      40.787 -16.777   3.003  1.00  0.00     0.012 A 
BRANCH  27  30
HETATM   30  O   UNL     1      41.439 -16.450  -0.636  1.00  0.00    -0.356 OA
HETATM   31  C   UNL     1      40.996 -15.209  -1.172  1.00  0.00     0.210 C 
ENDBRANCH  27  30
ENDBRANCH   2  24
TORSDOF 4
ENDMDL
MODEL 10
REMARK VINA RESULT:      -7.6      2.515      6.702
REMARK  4 active torsions:
REMARK  status: ('A' for Active; 'I' for Inactive)
REMARK    1  A    between atoms: C_6  and  N_7 
REMARK       I    between atoms: N_7  and  C_8 
REMARK    2  A    between atoms: C_8  and  C_9 
REMARK    3  A    between atoms: C_10  and  C_11 
REMARK    4  A    between atoms: C_14  and  O_15 
ROOT
HETATM    1  C   UNL     1      42.966 -15.795   4.070  1.00  0.00     0.062 A 
HETATM    2  C   UNL     1      42.642 -17.113   4.760  1.00  0.00     0.202 A 
HETATM    3  N   UNL     1      42.997 -17.069   6.185  1.00  0.00    -0.084 N 
HETATM    4  C   UNL     1      43.566 -15.988   6.802  1.00  0.00     0.725 A 
HETATM    5  N   UNL     1      43.842 -14.885   6.080  1.00  0.00    -0.192 N 
HETATM    6  N   UNL     1      42.654 -18.016   7.087  1.00  0.00    -0.149 NA
HETATM    7  C   UNL     1      43.158 -17.484   8.206  1.00  0.00     0.275 A 
HETATM    8  N   UNL     1      43.711 -16.236   8.078  1.00  0.00    -0.054 NA
HETATM    9  C   UNL     1      43.544 -14.761   4.729  1.00  0.00     0.037 A 
HETATM   10  C   UNL     1      43.888 -13.432   4.103  1.00  0.00     0.070 C 
HETATM   11  H   UNL     1      44.270 -14.090   6.546  1.00  0.00     0.184 HD
ENDROOT
BRANCH   1  12
HETATM   12  C   UNL     1      42.712 -15.702   2.609  1.00  0.00     0.256 C 
HETATM   13  N   UNL     1      41.441 -15.261   2.311  1.00  0.00    -0.323 N 
HETATM   14  H   UNL     1      40.837 -15.034   3.087  1.00  0.00     0.169 HD
HETATM   15  O   UNL     1      43.615 -15.985   1.832  1.00  0.00    -0.267 OA
BRANCH  13  16
HETATM   16  C   UNL     1      40.891 -15.037   1.023  1.00  0.00     0.041 A 
HETATM   17  C   UNL     1      39.792 -14.160   0.893  1.00  0.00    -0.035 A 
HETATM   18  C   UNL     1      39.256 -13.904  -0.385  1.00  0.00     0.015 A 
HETATM   19  C   UNL     1      39.159 -13.476   2.076  1.00  0.00     0.050 C 
HETATM   20  C   UNL     1      39.778 -14.517  -1.528  1.00  0.00    -0.061 A 
HETATM   21  C   UNL     1      39.227 -14.207  -2.888  1.00  0.00     0.048 C 
HETATM   22  C   UNL     1      40.862 -15.382  -1.389  1.00  0.00     0.009 A 
HETATM   23  C   UNL     1      41.406 -15.643  -0.128  1.00  0.00     0.030 A 
ENDBRANCH  13  16
ENDBRANCH   1  12
BRANCH   2  24
HETATM   24  C   UNL     1      43.245 -18.352   4.107  1.00  0.00    -0.028 A 
HETATM   25  C   UNL     1      42.738 -18.899   2.919  1.00  0.00     0.012 A 
HETATM   26  C   UNL     1      43.328 -20.034   2.352  1.00  0.00     0.037 A 
HETATM   27  C   UNL     1      44.445 -20.631   2.940  1.00  0.00     0.068 A 
HETATM   28  C   UNL     1      44.968 -20.086   4.109  1.00  0.00     0.037 A 
HETATM   29  C   UNL     1      44.374 -18.958   4.687  1.00  0.00     0.012 A 
BRANCH  27  30
HETATM   30  O   UNL     1      44.925 -21.727   2.278  1.00  0.00    -0.356 OA
HETATM   31  C   UNL     1      44.152 -22.205   1.184  1.00  0.00     0.210 C 
ENDBRANCH  27  30
ENDBRANCH   2  24
TORSDOF 4
ENDMDL
