MODEL 1
REMARK VINA RESULT:      -8.1      0.000      0.000
REMARK  8 active torsions:
REMARK  status: ('A' for Active; 'I' for Inactive)
REMARK    1  A    between atoms: C_7  and  C_8 
REMARK    2  A    between atoms: C_11  and  N_12 
REMARK       I    between atoms: N_12  and  C_13 
REMARK    3  A    between atoms: C_13  and  C_14 
REMARK    4  A    between atoms: C_14  and  N_15 
REMARK    5  A    between atoms: N_15  and  C_18 
REMARK    6  A    between atoms: C_18  and  C_19 
REMARK    7  A    between atoms: C_19  and  C_20 
REMARK    8  A    between atoms: C_20  and  O_21 
ROOT
HETATM    1  C   UNL     1      43.610 -15.750   5.720  1.00  0.00    -0.000 A 
HETATM    2  C   UNL     1      42.847 -14.646   5.318  1.00  0.00     0.016 A 
HETATM    3  C   UNL     1      42.861 -13.448   6.048  1.00  0.00     0.030 A 
HETATM    4  C   UNL     1      43.639 -13.324   7.198  1.00  0.00     0.034 A 
HETATM    5  C   UNL     1      44.385 -14.428   7.623  1.00  0.00     0.030 A 
HETATM    6  C   UNL     1      44.375 -15.622   6.889  1.00  0.00     0.016 A 
ENDROOT
BRANCH   4   7
HETATM    7  N   UNL     1      43.751 -12.134   7.956  1.00  0.00    -0.326 N 
HETATM    8  C   UNL     1      44.351 -12.002   9.189  1.00  0.00     0.247 C 
HETATM    9  O   UNL     1      44.946 -12.866   9.833  1.00  0.00    -0.271 OA
HETATM   10  H   UNL     1      43.297 -11.328   7.541  1.00  0.00     0.169 HD
BRANCH   8  11
HETATM   11  C   UNL     1      44.212 -10.618   9.827  1.00  0.00     0.334 C 
BRANCH  11  12
HETATM   12  N   UNL     1      42.752 -10.355  10.116  1.00  0.00    -0.067 N 
HETATM   13  H   UNL     1      42.559  -9.366   9.895  1.00  0.00     0.277 HD
HETATM   14  H   UNL     1      42.214 -10.864   9.395  1.00  0.00     0.277 HD
BRANCH  12  15
HETATM   15  C   UNL     1      42.282 -10.712  11.481  1.00  0.00     0.235 C 
BRANCH  15  16
HETATM   16  C   UNL     1      40.864 -11.262  11.382  1.00  0.00     0.053 C 
BRANCH  16  17
HETATM   17  C   UNL     1      40.248 -11.457  12.760  1.00  0.00     0.165 C 
BRANCH  17  18
HETATM   18  O   UNL     1      39.854 -12.812  12.887  1.00  0.00    -0.401 OA
HETATM   19  H   UNL     1      40.296 -13.312  12.173  1.00  0.00     0.209 HD
ENDBRANCH  17  18
ENDBRANCH  16  17
ENDBRANCH  15  16
ENDBRANCH  12  15
ENDBRANCH  11  12
ENDBRANCH   8  11
ENDBRANCH   4   7
BRANCH   1  20
HETATM   20  C   UNL     1      43.684 -17.003   4.945  1.00  0.00     0.109 A 
HETATM   21  N   UNL     1      44.305 -18.085   5.371  1.00  0.00    -0.240 NA
HETATM   22  C   UNL     1      44.260 -19.079   4.407  1.00  0.00     0.075 A 
HETATM   23  C   UNL     1      43.559 -18.754   3.247  1.00  0.00     0.036 A 
HETATM   24  C   UNL     1      44.858 -20.351   4.502  1.00  0.00     0.033 A 
HETATM   25  C   UNL     1      43.432 -19.654   2.175  1.00  0.00     0.028 A 
HETATM   26  S   UNL     1      42.945 -17.156   3.398  1.00  0.00    -0.067 SA
HETATM   27  C   UNL     1      44.040 -20.915   2.280  1.00  0.00    -0.061 A 
HETATM   28  C   UNL     1      43.950 -21.900   1.150  1.00  0.00     0.048 C 
HETATM   29  C   UNL     1      44.747 -21.253   3.437  1.00  0.00     0.009 A 
ENDBRANCH   1  20
TORSDOF 8
ENDMDL
MODEL 2
REMARK VINA RESULT:      -7.9      2.277      2.719
REMARK  8 active torsions:
REMARK  status: ('A' for Active; 'I' for Inactive)
REMARK    1  A    between atoms: C_7  and  C_8 
REMARK    2  A    between atoms: C_11  and  N_12 
REMARK       I    between atoms: N_12  and  C_13 
REMARK    3  A    between atoms: C_13  and  C_14 
REMARK    4  A    between atoms: C_14  and  N_15 
REMARK    5  A    between atoms: N_15  and  C_18 
REMARK    6  A    between atoms: C_18  and  C_19 
REMARK    7  A    between atoms: C_19  and  C_20 
REMARK    8  A    between atoms: C_20  and  O_21 
ROOT
HETATM    1  C   UNL     1      41.923 -15.469   4.929  1.00  0.00    -0.000 A 
HETATM    2  C   UNL     1      40.564 -15.138   5.005  1.00  0.00     0.016 A 
HETATM    3  C   UNL     1      40.147 -13.881   5.465  1.00  0.00     0.030 A 
HETATM    4  C   UNL     1      41.078 -12.921   5.859  1.00  0.00     0.034 A 
HETATM    5  C   UNL     1      42.437 -13.249   5.810  1.00  0.00     0.030 A 
HETATM    6  C   UNL     1      42.852 -14.504   5.345  1.00  0.00     0.016 A 
ENDROOT
BRANCH   4   7
HETATM    7  N   UNL     1      40.740 -11.613   6.279  1.00  0.00    -0.326 N 
HETATM    8  C   UNL     1      39.784 -11.274   7.210  1.00  0.00     0.247 C 
HETATM    9  O   UNL     1      39.090 -12.032   7.888  1.00  0.00    -0.271 OA
HETATM   10  H   UNL     1      41.240 -10.874   5.796  1.00  0.00     0.169 HD
BRANCH   8  11
HETATM   11  C   UNL     1      39.549  -9.770   7.373  1.00  0.00     0.334 C 
BRANCH  11  12
HETATM   12  N   UNL     1      39.748  -9.395   8.823  1.00  0.00    -0.067 N 
HETATM   13  H   UNL     1      39.138  -8.589   9.028  1.00  0.00     0.277 HD
HETATM   14  H   UNL     1      39.325 -10.155   9.383  1.00  0.00     0.277 HD
BRANCH  12  15
HETATM   15  C   UNL     1      41.150  -9.141   9.246  1.00  0.00     0.235 C 
BRANCH  15  16
HETATM   16  C   UNL     1      41.473 -10.037  10.435  1.00  0.00     0.053 C 
BRANCH  16  17
HETATM   17  C   UNL     1      40.206 -10.521  11.124  1.00  0.00     0.165 C 
BRANCH  17  18
HETATM   18  O   UNL     1      39.930 -11.839  10.681  1.00  0.00    -0.401 OA
HETATM   19  H   UNL     1      40.789 -12.283  10.536  1.00  0.00     0.209 HD
ENDBRANCH  17  18
ENDBRANCH  16  17
ENDBRANCH  15  16
ENDBRANCH  12  15
ENDBRANCH  11  12
ENDBRANCH   8  11
ENDBRANCH   4   7
BRANCH   1  20
HETATM   20  C   UNL     1      42.411 -16.750   4.384  1.00  0.00     0.109 A 
HETATM   21  N   UNL     1      43.299 -17.509   4.995  1.00  0.00    -0.240 NA
HETATM   22  C   UNL     1      43.609 -18.613   4.219  1.00  0.00     0.075 A 
HETATM   23  C   UNL     1      42.912 -18.710   3.015  1.00  0.00     0.036 A 
HETATM   24  C   UNL     1      44.550 -19.611   4.537  1.00  0.00     0.033 A 
HETATM   25  C   UNL     1      43.121 -19.769   2.115  1.00  0.00     0.028 A 
HETATM   26  S   UNL     1      41.843 -17.370   2.882  1.00  0.00    -0.067 SA
HETATM   27  C   UNL     1      44.069 -20.751   2.442  1.00  0.00    -0.061 A 
HETATM   28  C   UNL     1      44.342 -21.889   1.499  1.00  0.00     0.048 C 
HETATM   29  C   UNL     1      44.774 -20.666   3.644  1.00  0.00     0.009 A 
ENDBRANCH   1  20
TORSDOF 8
ENDMDL
MODEL 3
REMARK VINA RESULT:      -7.4      7.000      8.960
REMARK  8 active torsions:
REMARK  status: ('A' for Active; 'I' for Inactive)
REMARK    1  A    between atoms: C_7  and  C_8 
REMARK    2  A    between atoms: C_11  and  N_12 
REMARK       I    between atoms: N_12  and  C_13 
REMARK    3  A    between atoms: C_13  and  C_14 
REMARK    4  A    between atoms: C_14  and  N_15 
REMARK    5  A    between atoms: N_15  and  C_18 
REMARK    6  A    between atoms: C_18  and  C_19 
REMARK    7  A    between atoms: C_19  and  C_20 
REMARK    8  A    between atoms: C_20  and  O_21 
ROOT
HETATM    1  C   UNL     1      41.612 -16.730   1.584  1.00  0.00    -0.000 A 
HETATM    2  C   UNL     1      40.518 -16.151   2.242  1.00  0.00     0.016 A 
HETATM    3  C   UNL     1      39.761 -15.137   1.639  1.00  0.00     0.030 A 
HETATM    4  C   UNL     1      40.076 -14.676   0.361  1.00  0.00     0.034 A 
HETATM    5  C   UNL     1      41.181 -15.229  -0.295  1.00  0.00     0.030 A 
HETATM    6  C   UNL     1      41.932 -16.247   0.306  1.00  0.00     0.016 A 
ENDROOT
BRANCH   4   7
HETATM    7  N   UNL     1      39.329 -13.698  -0.336  1.00  0.00    -0.326 N 
HETATM    8  C   UNL     1      39.367 -12.337  -0.130  1.00  0.00     0.247 C 
HETATM    9  O   UNL     1      40.089 -11.713   0.649  1.00  0.00    -0.271 OA
HETATM   10  H   UNL     1      38.679 -14.073  -1.019  1.00  0.00     0.169 HD
BRANCH   8  11
HETATM   11  C   UNL     1      38.354 -11.533  -0.949  1.00  0.00     0.334 C 
BRANCH  11  12
HETATM   12  N   UNL     1      37.510 -12.487  -1.760  1.00  0.00    -0.067 N 
HETATM   13  H   UNL     1      37.610 -13.427  -1.349  1.00  0.00     0.277 HD
HETATM   14  H   UNL     1      36.524 -12.249  -1.560  1.00  0.00     0.277 HD
BRANCH  12  15
HETATM   15  C   UNL     1      37.765 -12.501  -3.225  1.00  0.00     0.235 C 
BRANCH  15  16
HETATM   16  C   UNL     1      36.846 -13.529  -3.873  1.00  0.00     0.053 C 
BRANCH  16  17
HETATM   17  C   UNL     1      37.492 -14.906  -3.908  1.00  0.00     0.165 C 
BRANCH  17  18
HETATM   18  O   UNL     1      38.129 -15.135  -2.662  1.00  0.00    -0.401 OA
HETATM   19  H   UNL     1      37.633 -14.633  -1.986  1.00  0.00     0.209 HD
ENDBRANCH  17  18
ENDBRANCH  16  17
ENDBRANCH  15  16
ENDBRANCH  12  15
ENDBRANCH  11  12
ENDBRANCH   8  11
ENDBRANCH   4   7
BRANCH   1  20
HETATM   20  C   UNL     1      42.391 -17.849   2.147  1.00  0.00     0.109 A 
HETATM   21  N   UNL     1      42.659 -18.956   1.482  1.00  0.00    -0.240 NA
HETATM   22  C   UNL     1      43.351 -19.846   2.285  1.00  0.00     0.075 A 
HETATM   23  C   UNL     1      43.647 -19.388   3.568  1.00  0.00     0.036 A 
HETATM   24  C   UNL     1      43.761 -21.144   1.919  1.00  0.00     0.033 A 
HETATM   25  C   UNL     1      44.337 -20.180   4.502  1.00  0.00     0.028 A 
HETATM   26  S   UNL     1      43.032 -17.793   3.743  1.00  0.00    -0.067 SA
HETATM   27  C   UNL     1      44.731 -21.473   4.127  1.00  0.00    -0.061 A 
HETATM   28  C   UNL     1      45.451 -22.362   5.100  1.00  0.00     0.048 C 
HETATM   29  C   UNL     1      44.441 -21.945   2.844  1.00  0.00     0.009 A 
ENDBRANCH   1  20
TORSDOF 8
ENDMDL
MODEL 4
REMARK VINA RESULT:      -7.3      3.203      4.042
REMARK  8 active torsions:
REMARK  status: ('A' for Active; 'I' for Inactive)
REMARK    1  A    between atoms: C_7  and  C_8 
REMARK    2  A    between atoms: C_11  and  N_12 
REMARK       I    between atoms: N_12  and  C_13 
REMARK    3  A    between atoms: C_13  and  C_14 
REMARK    4  A    between atoms: C_14  and  N_15 
REMARK    5  A    between atoms: N_15  and  C_18 
REMARK    6  A    between atoms: C_18  and  C_19 
REMARK    7  A    between atoms: C_19  and  C_20 
REMARK    8  A    between atoms: C_20  and  O_21 
ROOT
HETATM    1  C   UNL     1      41.965 -15.430   4.894  1.00  0.00    -0.000 A 
HETATM    2  C   UNL     1      40.612 -15.066   4.934  1.00  0.00     0.016 A 
HETATM    3  C   UNL     1      40.213 -13.801   5.388  1.00  0.00     0.030 A 
HETATM    4  C   UNL     1      41.156 -12.865   5.812  1.00  0.00     0.034 A 
HETATM    5  C   UNL     1      42.507 -13.226   5.800  1.00  0.00     0.030 A 
HETATM    6  C   UNL     1      42.905 -14.489   5.340  1.00  0.00     0.016 A 
ENDROOT
BRANCH   4   7
HETATM    7  N   UNL     1      40.838 -11.551   6.228  1.00  0.00    -0.326 N 
HETATM    8  C   UNL     1      39.862 -11.192   7.132  1.00  0.00     0.247 C 
HETATM    9  O   UNL     1      39.128 -11.936   7.783  1.00  0.00    -0.271 OA
HETATM   10  H   UNL     1      41.371 -10.823   5.765  1.00  0.00     0.169 HD
BRANCH   8  11
HETATM   11  C   UNL     1      39.660  -9.684   7.295  1.00  0.00     0.334 C 
BRANCH  11  12
HETATM   12  N   UNL     1      40.992  -9.039   7.600  1.00  0.00    -0.067 N 
HETATM   13  H   UNL     1      40.989  -8.761   8.592  1.00  0.00     0.277 HD
HETATM   14  H   UNL     1      41.696  -9.795   7.572  1.00  0.00     0.277 HD
BRANCH  12  15
HETATM   15  C   UNL     1      41.388  -7.911   6.716  1.00  0.00     0.235 C 
BRANCH  15  16
HETATM   16  C   UNL     1      40.451  -7.876   5.515  1.00  0.00     0.053 C 
BRANCH  16  17
HETATM   17  C   UNL     1      41.175  -8.269   4.235  1.00  0.00     0.165 C 
BRANCH  17  18
HETATM   18  O   UNL     1      41.851  -9.494   4.460  1.00  0.00    -0.401 OA
HETATM   19  H   UNL     1      41.569 -10.114   3.758  1.00  0.00     0.209 HD
ENDBRANCH  17  18
ENDBRANCH  16  17
ENDBRANCH  15  16
ENDBRANCH  12  15
ENDBRANCH  11  12
ENDBRANCH   8  11
ENDBRANCH   4   7
BRANCH   1  20
HETATM   20  C   UNL     1      42.437 -16.720   4.357  1.00  0.00     0.109 A 
HETATM   21  N   UNL     1      43.312 -17.488   4.976  1.00  0.00    -0.240 NA
HETATM   22  C   UNL     1      43.609 -18.600   4.206  1.00  0.00     0.075 A 
HETATM   23  C   UNL     1      42.915 -18.693   3.000  1.00  0.00     0.036 A 
HETATM   24  C   UNL     1      44.535 -19.610   4.532  1.00  0.00     0.033 A 
HETATM   25  C   UNL     1      43.113 -19.759   2.105  1.00  0.00     0.028 A 
HETATM   26  S   UNL     1      41.866 -17.339   2.856  1.00  0.00    -0.067 SA
HETATM   27  C   UNL     1      44.045 -20.753   2.440  1.00  0.00    -0.061 A 
HETATM   28  C   UNL     1      44.306 -21.899   1.504  1.00  0.00     0.048 C 
HETATM   29  C   UNL     1      44.748 -20.673   3.646  1.00  0.00     0.009 A 
ENDBRANCH   1  20
TORSDOF 8
ENDMDL
MODEL 5
REMARK VINA RESULT:      -7.3      6.592      8.488
REMARK  8 active torsions:
REMARK  status: ('A' for Active; 'I' for Inactive)
REMARK    1  A    between atoms: C_7  and  C_8 
REMARK    2  A    between atoms: C_11  and  N_12 
REMARK       I    between atoms: N_12  and  C_13 
REMARK    3  A    between atoms: C_13  and  C_14 
REMARK    4  A    between atoms: C_14  and  N_15 
REMARK    5  A    between atoms: N_15  and  C_18 
REMARK    6  A    between atoms: C_18  and  C_19 
REMARK    7  A    between atoms: C_19  and  C_20 
REMARK    8  A    between atoms: C_20  and  O_21 
ROOT
HETATM    1  C   UNL     1      42.450 -16.125   1.562  1.00  0.00    -0.000 A 
HETATM    2  C   UNL     1      41.862 -16.068   0.291  1.00  0.00     0.016 A 
HETATM    3  C   UNL     1      41.400 -14.856  -0.242  1.00  0.00     0.030 A 
HETATM    4  C   UNL     1      41.515 -13.669   0.482  1.00  0.00     0.034 A 
HETATM    5  C   UNL     1      42.078 -13.719   1.762  1.00  0.00     0.030 A 
HETATM    6  C   UNL     1      42.545 -14.930   2.289  1.00  0.00     0.016 A 
ENDROOT
BRANCH   4   7
HETATM    7  N   UNL     1      41.126 -12.401  -0.008  1.00  0.00    -0.326 N 
HETATM    8  C   UNL     1      41.958 -11.335  -0.274  1.00  0.00     0.247 C 
HETATM    9  O   UNL     1      43.186 -11.300  -0.192  1.00  0.00    -0.271 OA
HETATM   10  H   UNL     1      40.125 -12.284  -0.123  1.00  0.00     0.169 HD
BRANCH   8  11
HETATM   11  C   UNL     1      41.241 -10.045  -0.677  1.00  0.00     0.334 C 
BRANCH  11  12
HETATM   12  N   UNL     1      40.834 -10.140  -2.128  1.00  0.00    -0.067 N 
HETATM   13  H   UNL     1      40.252 -10.984  -2.239  1.00  0.00     0.277 HD
HETATM   14  H   UNL     1      40.163  -9.372  -2.296  1.00  0.00     0.277 HD
BRANCH  12  15
HETATM   15  C   UNL     1      41.940 -10.104  -3.121  1.00  0.00     0.235 C 
BRANCH  15  16
HETATM   16  C   UNL     1      41.686 -11.172  -4.178  1.00  0.00     0.053 C 
BRANCH  16  17
HETATM   17  C   UNL     1      41.790 -12.571  -3.588  1.00  0.00     0.165 C 
BRANCH  17  18
HETATM   18  O   UNL     1      40.526 -12.931  -3.058  1.00  0.00    -0.401 OA
HETATM   19  H   UNL     1      40.679 -13.626  -2.388  1.00  0.00     0.209 HD
ENDBRANCH  17  18
ENDBRANCH  16  17
ENDBRANCH  15  16
ENDBRANCH  12  15
ENDBRANCH  11  12
ENDBRANCH   8  11
ENDBRANCH   4   7
BRANCH   1  20
HETATM   20  C   UNL     1      43.017 -17.362   2.132  1.00  0.00     0.109 A 
HETATM   21  N   UNL     1      43.158 -18.481   1.448  1.00  0.00    -0.240 NA
HETATM   22  C   UNL     1      43.657 -19.485   2.259  1.00  0.00     0.075 A 
HETATM   23  C   UNL     1      43.936 -19.108   3.572  1.00  0.00     0.036 A 
HETATM   24  C   UNL     1      43.891 -20.820   1.876  1.00  0.00     0.033 A 
HETATM   25  C   UNL     1      44.440 -20.017   4.519  1.00  0.00     0.028 A 
HETATM   26  S   UNL     1      43.556 -17.442   3.764  1.00  0.00    -0.067 SA
HETATM   27  C   UNL     1      44.659 -21.345   4.124  1.00  0.00    -0.061 A 
HETATM   28  C   UNL     1      45.175 -22.356   5.108  1.00  0.00     0.048 C 
HETATM   29  C   UNL     1      44.384 -21.737   2.811  1.00  0.00     0.009 A 
ENDBRANCH   1  20
TORSDOF 8
ENDMDL
MODEL 6
REMARK VINA RESULT:      -7.1      3.051      3.599
REMARK  8 active torsions:
REMARK  status: ('A' for Active; 'I' for Inactive)
REMARK    1  A    between atoms: C_7  and  C_8 
REMARK    2  A    between atoms: C_11  and  N_12 
REMARK       I    between atoms: N_12  and  C_13 
REMARK    3  A    between atoms: C_13  and  C_14 
REMARK    4  A    between atoms: C_14  and  N_15 
REMARK    5  A    between atoms: N_15  and  C_18 
REMARK    6  A    between atoms: C_18  and  C_19 
REMARK    7  A    between atoms: C_19  and  C_20 
REMARK    8  A    between atoms: C_20  and  O_21 
ROOT
HETATM    1  C   UNL     1      42.039 -15.241   4.947  1.00  0.00    -0.000 A 
HETATM    2  C   UNL     1      40.765 -15.118   5.517  1.00  0.00     0.016 A 
HETATM    3  C   UNL     1      40.274 -13.873   5.937  1.00  0.00     0.030 A 
HETATM    4  C   UNL     1      41.044 -12.719   5.798  1.00  0.00     0.034 A 
HETATM    5  C   UNL     1      42.327 -12.835   5.254  1.00  0.00     0.030 A 
HETATM    6  C   UNL     1      42.814 -14.077   4.828  1.00  0.00     0.016 A 
ENDROOT
BRANCH   4   7
HETATM    7  N   UNL     1      40.599 -11.422   6.145  1.00  0.00    -0.326 N 
HETATM    8  C   UNL     1      39.429 -10.821   5.735  1.00  0.00     0.247 C 
HETATM    9  O   UNL     1      38.533 -11.309   5.046  1.00  0.00    -0.271 OA
HETATM   10  H   UNL     1      41.248 -10.894   6.717  1.00  0.00     0.169 HD
BRANCH   8  11
HETATM   11  C   UNL     1      39.269  -9.362   6.167  1.00  0.00     0.334 C 
BRANCH  11  12
HETATM   12  N   UNL     1      39.119  -9.308   7.670  1.00  0.00    -0.067 N 
HETATM   13  H   UNL     1      38.144  -9.044   7.881  1.00  0.00     0.277 HD
HETATM   14  H   UNL     1      39.174 -10.284   8.005  1.00  0.00     0.277 HD
BRANCH  12  15
HETATM   15  C   UNL     1      40.088  -8.443   8.392  1.00  0.00     0.235 C 
BRANCH  15  16
HETATM   16  C   UNL     1      40.587  -9.189   9.624  1.00  0.00     0.053 C 
BRANCH  16  17
HETATM   17  C   UNL     1      39.790 -10.463   9.860  1.00  0.00     0.165 C 
BRANCH  17  18
HETATM   18  O   UNL     1      40.382 -11.509   9.109  1.00  0.00    -0.401 OA
HETATM   19  H   UNL     1      41.333 -11.301   9.021  1.00  0.00     0.209 HD
ENDBRANCH  17  18
ENDBRANCH  16  17
ENDBRANCH  15  16
ENDBRANCH  12  15
ENDBRANCH  11  12
ENDBRANCH   8  11
ENDBRANCH   4   7
BRANCH   1  20
HETATM   20  C   UNL     1      42.568 -16.515   4.423  1.00  0.00     0.109 A 
HETATM   21  N   UNL     1      42.296 -16.974   3.218  1.00  0.00    -0.240 NA
HETATM   22  C   UNL     1      42.880 -18.215   3.030  1.00  0.00     0.075 A 
HETATM   23  C   UNL     1      43.640 -18.685   4.100  1.00  0.00     0.036 A 
HETATM   24  C   UNL     1      42.762 -19.020   1.880  1.00  0.00     0.033 A 
HETATM   25  C   UNL     1      44.288 -19.932   4.064  1.00  0.00     0.028 A 
HETATM   26  S   UNL     1      43.608 -17.516   5.360  1.00  0.00    -0.067 SA
HETATM   27  C   UNL     1      44.155 -20.726   2.915  1.00  0.00    -0.061 A 
HETATM   28  C   UNL     1      44.811 -22.075   2.841  1.00  0.00     0.048 C 
HETATM   29  C   UNL     1      43.396 -20.268   1.835  1.00  0.00     0.009 A 
ENDBRANCH   1  20
TORSDOF 8
ENDMDL
MODEL 7
REMARK VINA RESULT:      -7.1      7.266      9.000
REMARK  8 active torsions:
REMARK  status: ('A' for Active; 'I' for Inactive)
REMARK    1  A    between atoms: C_7  and  C_8 
REMARK    2  A    between atoms: C_11  and  N_12 
REMARK       I    between atoms: N_12  and  C_13 
REMARK    3  A    between atoms: C_13  and  C_14 
REMARK    4  A    between atoms: C_14  and  N_15 
REMARK    5  A    between atoms: N_15  and  C_18 
REMARK    6  A    between atoms: C_18  and  C_19 
REMARK    7  A    between atoms: C_19  and  C_20 
REMARK    8  A    between atoms: C_20  and  O_21 
ROOT
HETATM    1  C   UNL     1      41.497 -16.729   1.448  1.00  0.00    -0.000 A 
HETATM    2  C   UNL     1      41.712 -16.240   0.153  1.00  0.00     0.016 A 
HETATM    3  C   UNL     1      40.983 -15.149  -0.343  1.00  0.00     0.030 A 
HETATM    4  C   UNL     1      40.022 -14.517   0.445  1.00  0.00     0.034 A 
HETATM    5  C   UNL     1      39.781 -15.013   1.731  1.00  0.00     0.030 A 
HETATM    6  C   UNL     1      40.515 -16.099   2.227  1.00  0.00     0.016 A 
ENDROOT
BRANCH   4   7
HETATM    7  N   UNL     1      39.287 -13.379   0.040  1.00  0.00    -0.326 N 
HETATM    8  C   UNL     1      38.377 -13.317  -0.992  1.00  0.00     0.247 C 
HETATM    9  O   UNL     1      37.991 -14.238  -1.712  1.00  0.00    -0.271 OA
HETATM   10  H   UNL     1      39.508 -12.532   0.552  1.00  0.00     0.169 HD
BRANCH   8  11
HETATM   11  C   UNL     1      37.827 -11.918  -1.282  1.00  0.00     0.334 C 
BRANCH  11  12
HETATM   12  N   UNL     1      38.288 -11.482  -2.653  1.00  0.00    -0.067 N 
HETATM   13  H   UNL     1      37.977 -12.193  -3.332  1.00  0.00     0.277 HD
HETATM   14  H   UNL     1      37.719 -10.656  -2.905  1.00  0.00     0.277 HD
BRANCH  12  15
HETATM   15  C   UNL     1      39.739 -11.190  -2.793  1.00  0.00     0.235 C 
BRANCH  15  16
HETATM   16  C   UNL     1      40.324 -12.106  -3.860  1.00  0.00     0.053 C 
BRANCH  16  17
HETATM   17  C   UNL     1      41.523 -12.879  -3.331  1.00  0.00     0.165 C 
BRANCH  17  18
HETATM   18  O   UNL     1      41.963 -12.261  -2.134  1.00  0.00    -0.401 OA
HETATM   19  H   UNL     1      42.294 -12.968  -1.546  1.00  0.00     0.209 HD
ENDBRANCH  17  18
ENDBRANCH  16  17
ENDBRANCH  15  16
ENDBRANCH  12  15
ENDBRANCH  11  12
ENDBRANCH   8  11
ENDBRANCH   4   7
BRANCH   1  20
HETATM   20  C   UNL     1      42.289 -17.825   2.038  1.00  0.00     0.109 A 
HETATM   21  N   UNL     1      42.594 -18.932   1.389  1.00  0.00    -0.240 NA
HETATM   22  C   UNL     1      43.289 -19.800   2.214  1.00  0.00     0.075 A 
HETATM   23  C   UNL     1      43.549 -19.323   3.499  1.00  0.00     0.036 A 
HETATM   24  C   UNL     1      43.734 -21.091   1.870  1.00  0.00     0.033 A 
HETATM   25  C   UNL     1      44.237 -20.091   4.454  1.00  0.00     0.028 A 
HETATM   26  S   UNL     1      42.897 -17.740   3.646  1.00  0.00    -0.067 SA
HETATM   27  C   UNL     1      44.667 -21.379   4.099  1.00  0.00    -0.061 A 
HETATM   28  C   UNL     1      45.386 -22.243   5.096  1.00  0.00     0.048 C 
HETATM   29  C   UNL     1      44.413 -21.869   2.816  1.00  0.00     0.009 A 
ENDBRANCH   1  20
TORSDOF 8
ENDMDL
MODEL 8
REMARK VINA RESULT:      -7.0      3.018      3.683
REMARK  8 active torsions:
REMARK  status: ('A' for Active; 'I' for Inactive)
REMARK    1  A    between atoms: C_7  and  C_8 
REMARK    2  A    between atoms: C_11  and  N_12 
REMARK       I    between atoms: N_12  and  C_13 
REMARK    3  A    between atoms: C_13  and  C_14 
REMARK    4  A    between atoms: C_14  and  N_15 
REMARK    5  A    between atoms: N_15  and  C_18 
REMARK    6  A    between atoms: C_18  and  C_19 
REMARK    7  A    between atoms: C_19  and  C_20 
REMARK    8  A    between atoms: C_20  and  O_21 
ROOT
HETATM    1  C   UNL     1      41.716 -14.429   5.154  1.00  0.00    -0.000 A 
HETATM    2  C   UNL     1      42.484 -13.309   5.504  1.00  0.00     0.016 A 
HETATM    3  C   UNL     1      41.914 -12.220   6.179  1.00  0.00     0.030 A 
HETATM    4  C   UNL     1      40.562 -12.222   6.522  1.00  0.00     0.034 A 
HETATM    5  C   UNL     1      39.782 -13.323   6.155  1.00  0.00     0.030 A 
HETATM    6  C   UNL     1      40.354 -14.414   5.487  1.00  0.00     0.016 A 
ENDROOT
BRANCH   4   7
HETATM    7  N   UNL     1      39.928 -11.189   7.251  1.00  0.00    -0.326 N 
HETATM    8  C   UNL     1      39.522  -9.969   6.757  1.00  0.00     0.247 C 
HETATM    9  O   UNL     1      39.581  -9.570   5.594  1.00  0.00    -0.271 OA
HETATM   10  H   UNL     1      39.814 -11.381   8.240  1.00  0.00     0.169 HD
BRANCH   8  11
HETATM   11  C   UNL     1      38.975  -8.999   7.808  1.00  0.00     0.334 C 
BRANCH  11  12
HETATM   12  N   UNL     1      38.573  -9.781   9.037  1.00  0.00    -0.067 N 
HETATM   13  H   UNL     1      37.550  -9.702   9.141  1.00  0.00     0.277 HD
HETATM   14  H   UNL     1      38.708 -10.779   8.806  1.00  0.00     0.277 HD
BRANCH  12  15
HETATM   15  C   UNL     1      39.280  -9.427  10.296  1.00  0.00     0.235 C 
BRANCH  15  16
HETATM   16  C   UNL     1      40.643  -8.843   9.945  1.00  0.00     0.053 C 
BRANCH  16  17
HETATM   17  C   UNL     1      41.755  -9.858  10.169  1.00  0.00     0.165 C 
BRANCH  17  18
HETATM   18  O   UNL     1      41.244 -11.152   9.896  1.00  0.00    -0.401 OA
HETATM   19  H   UNL     1      40.269 -11.078   9.866  1.00  0.00     0.209 HD
ENDBRANCH  17  18
ENDBRANCH  16  17
ENDBRANCH  15  16
ENDBRANCH  12  15
ENDBRANCH  11  12
ENDBRANCH   8  11
ENDBRANCH   4   7
BRANCH   1  20
HETATM   20  C   UNL     1      42.287 -15.627   4.511  1.00  0.00     0.109 A 
HETATM   21  N   UNL     1      42.595 -15.688   3.230  1.00  0.00    -0.240 NA
HETATM   22  C   UNL     1      43.051 -16.954   2.902  1.00  0.00     0.075 A 
HETATM   23  C   UNL     1      43.125 -17.855   3.963  1.00  0.00     0.036 A 
HETATM   24  C   UNL     1      43.427 -17.390   1.617  1.00  0.00     0.033 A 
HETATM   25  C   UNL     1      43.561 -19.180   3.788  1.00  0.00     0.028 A 
HETATM   26  S   UNL     1      42.608 -17.065   5.400  1.00  0.00    -0.067 SA
HETATM   27  C   UNL     1      43.923 -19.603   2.500  1.00  0.00    -0.061 A 
HETATM   28  C   UNL     1      44.373 -21.016   2.261  1.00  0.00     0.048 C 
HETATM   29  C   UNL     1      43.853 -18.710   1.427  1.00  0.00     0.009 A 
ENDBRANCH   1  20
TORSDOF 8
ENDMDL
MODEL 9
REMARK VINA RESULT:      -7.0      8.804     11.084
REMARK  8 active torsions:
REMARK  status: ('A' for Active; 'I' for Inactive)
REMARK    1  A    between atoms: C_7  and  C_8 
REMARK    2  A    between atoms: C_11  and  N_12 
REMARK       I    between atoms: N_12  and  C_13 
REMARK    3  A    between atoms: C_13  and  C_14 
REMARK    4  A    between atoms: C_14  and  N_15 
REMARK    5  A    between atoms: N_15  and  C_18 
REMARK    6  A    between atoms: C_18  and  C_19 
REMARK    7  A    between atoms: C_19  and  C_20 
REMARK    8  A    between atoms: C_20  and  O_21 
ROOT
HETATM    1  C   UNL     1      40.766 -15.594   0.956  1.00  0.00    -0.000 A 
HETATM    2  C   UNL     1      39.584 -14.995   1.412  1.00  0.00     0.016 A 
HETATM    3  C   UNL     1      38.819 -14.170   0.575  1.00  0.00     0.030 A 
HETATM    4  C   UNL     1      39.215 -13.923  -0.739  1.00  0.00     0.034 A 
HETATM    5  C   UNL     1      40.406 -14.496  -1.196  1.00  0.00     0.030 A 
HETATM    6  C   UNL     1      41.166 -15.326  -0.361  1.00  0.00     0.016 A 
ENDROOT
BRANCH   4   7
HETATM    7  N   UNL     1      38.470 -13.151  -1.660  1.00  0.00    -0.326 N 
HETATM    8  C   UNL     1      37.739 -13.628  -2.726  1.00  0.00     0.247 C 
HETATM    9  O   UNL     1      37.548 -14.802  -3.044  1.00  0.00    -0.271 OA
HETATM   10  H   UNL     1      38.537 -12.148  -1.519  1.00  0.00     0.169 HD
BRANCH   8  11
HETATM   11  C   UNL     1      37.136 -12.547  -3.628  1.00  0.00     0.334 C 
BRANCH  11  12
HETATM   12  N   UNL     1      36.423 -13.211  -4.782  1.00  0.00    -0.067 N 
HETATM   13  H   UNL     1      37.050 -13.935  -5.167  1.00  0.00     0.277 HD
HETATM   14  H   UNL     1      35.653 -13.765  -4.371  1.00  0.00     0.277 HD
BRANCH  12  15
HETATM   15  C   UNL     1      35.917 -12.304  -5.845  1.00  0.00     0.235 C 
BRANCH  15  16
HETATM   16  C   UNL     1      34.854 -13.040  -6.653  1.00  0.00     0.053 C 
BRANCH  16  17
HETATM   17  C   UNL     1      35.445 -13.662  -7.909  1.00  0.00     0.165 C 
BRANCH  17  18
HETATM   18  O   UNL     1      36.431 -14.604  -7.523  1.00  0.00    -0.401 OA
HETATM   19  H   UNL     1      37.299 -14.243  -7.792  1.00  0.00     0.209 HD
ENDBRANCH  17  18
ENDBRANCH  16  17
ENDBRANCH  15  16
ENDBRANCH  12  15
ENDBRANCH  11  12
ENDBRANCH   8  11
ENDBRANCH   4   7
BRANCH   1  20
HETATM   20  C   UNL     1      41.564 -16.527   1.775  1.00  0.00     0.109 A 
HETATM   21  N   UNL     1      42.342 -17.461   1.263  1.00  0.00    -0.240 NA
HETATM   22  C   UNL     1      42.914 -18.219   2.270  1.00  0.00     0.075 A 
HETATM   23  C   UNL     1      42.592 -17.827   3.569  1.00  0.00     0.036 A 
HETATM   24  C   UNL     1      43.763 -19.328   2.090  1.00  0.00     0.033 A 
HETATM   25  C   UNL     1      43.088 -18.503   4.697  1.00  0.00     0.028 A 
HETATM   26  S   UNL     1      41.547 -16.465   3.494  1.00  0.00    -0.067 SA
HETATM   27  C   UNL     1      43.926 -19.612   4.502  1.00  0.00    -0.061 A 
HETATM   28  C   UNL     1      44.460 -20.379   5.678  1.00  0.00     0.048 C 
HETATM   29  C   UNL     1      44.256 -20.016   3.206  1.00  0.00     0.009 A 
ENDBRANCH   1  20
TORSDOF 8
ENDMDL
MODEL 10
REMARK VINA RESULT:      -6.9      5.401     10.783
REMARK  8 active torsions:
REMARK  status: ('A' for Active; 'I' for Inactive)
REMARK    1  A    between atoms: C_7  and  C_8 
REMARK    2  A    between atoms: C_11  and  N_12 
REMARK       I    between atoms: N_12  and  C_13 
REMARK    3  A    between atoms: C_13  and  C_14 
REMARK    4  A    between atoms: C_14  and  N_15 
REMARK    5  A    between atoms: N_15  and  C_18 
REMARK    6  A    between atoms: C_18  and  C_19 
REMARK    7  A    between atoms: C_19  and  C_20 
REMARK    8  A    between atoms: C_20  and  O_21 
ROOT
HETATM    1  C   UNL     1      41.105 -11.364   6.591  1.00  0.00    -0.000 A 
HETATM    2  C   UNL     1      39.754 -11.280   6.226  1.00  0.00     0.016 A 
HETATM    3  C   UNL     1      39.310 -11.734   4.976  1.00  0.00     0.030 A 
HETATM    4  C   UNL     1      40.204 -12.284   4.058  1.00  0.00     0.034 A 
HETATM    5  C   UNL     1      41.558 -12.350   4.402  1.00  0.00     0.030 A 
HETATM    6  C   UNL     1      42.000 -11.903   5.654  1.00  0.00     0.016 A 
ENDROOT
BRANCH   4   7
HETATM    7  N   UNL     1      39.825 -12.814   2.802  1.00  0.00    -0.326 N 
HETATM    8  C   UNL     1      39.800 -14.146   2.450  1.00  0.00     0.247 C 
HETATM    9  O   UNL     1      40.042 -15.119   3.165  1.00  0.00    -0.271 OA
HETATM   10  H   UNL     1      39.598 -12.116   2.103  1.00  0.00     0.169 HD
BRANCH   8  11
HETATM   11  C   UNL     1      39.468 -14.416   0.981  1.00  0.00     0.334 C 
BRANCH  11  12
HETATM   12  N   UNL     1      40.086 -15.732   0.570  1.00  0.00    -0.067 N 
HETATM   13  H   UNL     1      40.313 -16.256   1.429  1.00  0.00     0.277 HD
HETATM   14  H   UNL     1      39.327 -16.294   0.149  1.00  0.00     0.277 HD
BRANCH  12  15
HETATM   15  C   UNL     1      41.255 -15.647  -0.344  1.00  0.00     0.235 C 
BRANCH  15  16
HETATM   16  C   UNL     1      40.868 -14.811  -1.558  1.00  0.00     0.053 C 
BRANCH  16  17
HETATM   17  C   UNL     1      41.009 -15.608  -2.847  1.00  0.00     0.165 C 
BRANCH  17  18
HETATM   18  O   UNL     1      42.075 -15.058  -3.601  1.00  0.00    -0.401 OA
HETATM   19  H   UNL     1      42.269 -15.683  -4.328  1.00  0.00     0.209 HD
ENDBRANCH  17  18
ENDBRANCH  16  17
ENDBRANCH  15  16
ENDBRANCH  12  15
ENDBRANCH  11  12
ENDBRANCH   8  11
ENDBRANCH   4   7
BRANCH   1  20
HETATM   20  C   UNL     1      41.606 -10.969   7.921  1.00  0.00     0.109 A 
HETATM   21  N   UNL     1      42.876 -11.041   8.270  1.00  0.00    -0.240 NA
HETATM   22  C   UNL     1      43.036 -10.663   9.592  1.00  0.00     0.075 A 
HETATM   23  C   UNL     1      41.871 -10.261  10.243  1.00  0.00     0.036 A 
HETATM   24  C   UNL     1      44.247 -10.661  10.311  1.00  0.00     0.033 A 
HETATM   25  C   UNL     1      41.870  -9.857  11.590  1.00  0.00     0.028 A 
HETATM   26  S   UNL     1      40.555 -10.365   9.142  1.00  0.00    -0.067 SA
HETATM   27  C   UNL     1      43.082  -9.868  12.295  1.00  0.00    -0.061 A 
HETATM   28  C   UNL     1      43.125  -9.466  13.742  1.00  0.00     0.048 C 
HETATM   29  C   UNL     1      44.258 -10.269  11.656  1.00  0.00     0.009 A 
ENDBRANCH   1  20
TORSDOF 8
ENDMDL
