MODEL 1
REMARK VINA RESULT:      -8.4      0.000      0.000
REMARK  3 active torsions:
REMARK  status: ('A' for Active; 'I' for Inactive)
REMARK    1  A    between atoms: C_2  and  N_3 
REMARK       I    between atoms: N_3  and  C_4 
REMARK    2  A    between atoms: C_4  and  C_5 
REMARK    3  A    between atoms: C_5  and  C_6 
ROOT
HETATM    1  C   UNL     1      42.433 -16.602   6.066  1.00  0.00     0.286 C 
HETATM    2  N   UNL     1      43.070 -15.572   5.136  1.00  0.00    -0.056 N 
HETATM    3  H   UNL     1      43.162 -14.702   5.677  1.00  0.00     0.278 HD
HETATM    4  H   UNL     1      44.058 -15.860   4.969  1.00  0.00     0.278 HD
HETATM    5  C   UNL     1      42.365 -15.251   3.852  1.00  0.00     0.209 C 
HETATM    6  C   UNL     1      40.871 -14.982   4.142  1.00  0.00     0.115 C 
HETATM    7  N   UNL     1      40.266 -16.015   4.978  1.00  0.00    -0.353 N 
HETATM    8  C   UNL     1      40.897 -16.573   6.061  1.00  0.00     0.249 C 
HETATM    9  O   UNL     1      40.237 -17.118   6.940  1.00  0.00    -0.271 OA
HETATM   10  C   UNL     1      42.602 -16.345   2.811  1.00  0.00     0.035 C 
HETATM   11  C   UNL     1      41.818 -16.066   1.532  1.00  0.00     0.002 C 
HETATM   12  C   UNL     1      40.330 -15.902   1.826  1.00  0.00     0.002 C 
HETATM   13  C   UNL     1      40.077 -14.790   2.843  1.00  0.00     0.027 C 
HETATM   14  H   UNL     1      39.252 -16.006   5.087  1.00  0.00     0.163 HD
ENDROOT
BRANCH   1  15
HETATM   15  C   UNL     1      42.880 -18.051   5.800  1.00  0.00     0.146 C 
BRANCH  15  16
HETATM   16  C   UNL     1      44.355 -18.268   5.988  1.00  0.00     0.224 C 
HETATM   17  N   UNL     1      45.055 -19.189   5.280  1.00  0.00    -0.327 N 
HETATM   18  H   UNL     1      46.031 -19.206   5.569  1.00  0.00     0.169 HD
HETATM   19  O   UNL     1      44.966 -17.547   6.789  1.00  0.00    -0.273 OA
BRANCH  17  20
HETATM   20  C   UNL     1      44.739 -20.090   4.242  1.00  0.00     0.034 A 
HETATM   21  C   UNL     1      44.848 -21.482   4.297  1.00  0.00     0.032 A 
HETATM   22  C   UNL     1      44.480 -22.269   3.197  1.00  0.00     0.044 A 
HETATM   23  C   UNL     1      44.004 -21.669   2.040  1.00  0.00     0.116 A 
HETATM   24  C   UNL     1      43.888 -20.292   1.960  1.00  0.00     0.044 A 
HETATM   25  F   UNL     1      43.653 -22.429   0.997  1.00  0.00    -0.206 F 
HETATM   26  C   UNL     1      44.253 -19.507   3.057  1.00  0.00     0.032 A 
ENDBRANCH  17  20
ENDBRANCH  15  16
ENDBRANCH   1  15
TORSDOF 3
ENDMDL
MODEL 2
REMARK VINA RESULT:      -8.0      2.001      2.585
REMARK  3 active torsions:
REMARK  status: ('A' for Active; 'I' for Inactive)
REMARK    1  A    between atoms: C_2  and  N_3 
REMARK       I    between atoms: N_3  and  C_4 
REMARK    2  A    between atoms: C_4  and  C_5 
REMARK    3  A    between atoms: C_5  and  C_6 
ROOT
HETATM    1  C   UNL     1      42.229 -14.984   5.187  1.00  0.00     0.286 C 
HETATM    2  N   UNL     1      43.192 -14.864   4.008  1.00  0.00    -0.056 N 
HETATM    3  H   UNL     1      43.246 -13.865   3.771  1.00  0.00     0.278 HD
HETATM    4  H   UNL     1      44.151 -15.083   4.355  1.00  0.00     0.278 HD
HETATM    5  C   UNL     1      42.872 -15.625   2.756  1.00  0.00     0.209 C 
HETATM    6  C   UNL     1      41.394 -15.382   2.373  1.00  0.00     0.115 C 
HETATM    7  N   UNL     1      40.485 -15.567   3.500  1.00  0.00    -0.353 N 
HETATM    8  C   UNL     1      40.756 -15.122   4.769  1.00  0.00     0.249 C 
HETATM    9  O   UNL     1      39.840 -14.943   5.565  1.00  0.00    -0.271 OA
HETATM   10  C   UNL     1      43.233 -17.102   2.908  1.00  0.00     0.035 C 
HETATM   11  C   UNL     1      42.831 -17.896   1.669  1.00  0.00     0.002 C 
HETATM   12  C   UNL     1      41.345 -17.723   1.364  1.00  0.00     0.002 C 
HETATM   13  C   UNL     1      40.977 -16.251   1.181  1.00  0.00     0.027 C 
HETATM   14  H   UNL     1      39.484 -15.586   3.306  1.00  0.00     0.163 HD
ENDROOT
BRANCH   1  15
HETATM   15  C   UNL     1      42.558 -16.136   6.153  1.00  0.00     0.146 C 
BRANCH  15  16
HETATM   16  C   UNL     1      43.962 -16.093   6.682  1.00  0.00     0.224 C 
HETATM   17  N   UNL     1      44.727 -17.206   6.823  1.00  0.00    -0.327 N 
HETATM   18  H   UNL     1      45.634 -16.975   7.222  1.00  0.00     0.169 HD
HETATM   19  O   UNL     1      44.461 -14.993   6.960  1.00  0.00    -0.273 OA
BRANCH  17  20
HETATM   20  C   UNL     1      44.550 -18.572   6.524  1.00  0.00     0.034 A 
HETATM   21  C   UNL     1      43.881 -19.509   7.314  1.00  0.00     0.032 A 
HETATM   22  C   UNL     1      43.758 -20.840   6.892  1.00  0.00     0.044 A 
HETATM   23  C   UNL     1      44.303 -21.238   5.680  1.00  0.00     0.116 A 
HETATM   24  C   UNL     1      44.972 -20.329   4.878  1.00  0.00     0.044 A 
HETATM   25  F   UNL     1      44.177 -22.509   5.284  1.00  0.00    -0.206 F 
HETATM   26  C   UNL     1      45.094 -19.002   5.299  1.00  0.00     0.032 A 
ENDBRANCH  17  20
ENDBRANCH  15  16
ENDBRANCH   1  15
TORSDOF 3
ENDMDL
MODEL 3
REMARK VINA RESULT:      -7.9      2.507      4.120
REMARK  3 active torsions:
REMARK  status: ('A' for Active; 'I' for Inactive)
REMARK    1  A    between atoms: C_2  and  N_3 
REMARK       I    between atoms: N_3  and  C_4 
REMARK    2  A    between atoms: C_4  and  C_5 
REMARK    3  A    between atoms: C_5  and  C_6 
ROOT
HETATM    1  C   UNL     1      41.061 -15.737   3.410  1.00  0.00     0.286 C 
HETATM    2  N   UNL     1      40.495 -15.483   4.805  1.00  0.00    -0.056 N 
HETATM    3  H   UNL     1      40.147 -14.515   4.811  1.00  0.00     0.278 HD
HETATM    4  H   UNL     1      39.627 -16.052   4.907  1.00  0.00     0.278 HD
HETATM    5  C   UNL     1      41.410 -15.659   5.980  1.00  0.00     0.209 C 
HETATM    6  C   UNL     1      42.740 -14.918   5.708  1.00  0.00     0.115 C 
HETATM    7  N   UNL     1      43.296 -15.228   4.395  1.00  0.00    -0.353 N 
HETATM    8  C   UNL     1      42.535 -15.330   3.258  1.00  0.00     0.249 C 
HETATM    9  O   UNL     1      43.058 -15.197   2.156  1.00  0.00    -0.271 OA
HETATM   10  C   UNL     1      41.588 -17.139   6.316  1.00  0.00     0.035 C 
HETATM   11  C   UNL     1      42.585 -17.327   7.456  1.00  0.00     0.002 C 
HETATM   12  C   UNL     1      43.924 -16.675   7.127  1.00  0.00     0.002 C 
HETATM   13  C   UNL     1      43.764 -15.187   6.817  1.00  0.00     0.027 C 
HETATM   14  H   UNL     1      44.246 -14.915   4.194  1.00  0.00     0.163 HD
ENDROOT
BRANCH   1  15
HETATM   15  C   UNL     1      40.919 -17.193   2.930  1.00  0.00     0.146 C 
BRANCH  15  16
HETATM   16  C   UNL     1      41.609 -17.463   1.623  1.00  0.00     0.224 C 
HETATM   17  N   UNL     1      42.694 -18.272   1.522  1.00  0.00    -0.327 N 
HETATM   18  H   UNL     1      43.033 -18.306   0.563  1.00  0.00     0.169 HD
HETATM   19  O   UNL     1      41.144 -16.964   0.588  1.00  0.00    -0.273 OA
BRANCH  17  20
HETATM   20  C   UNL     1      43.420 -19.072   2.428  1.00  0.00     0.034 A 
HETATM   21  C   UNL     1      43.865 -18.687   3.694  1.00  0.00     0.032 A 
HETATM   22  C   UNL     1      44.564 -19.588   4.508  1.00  0.00     0.044 A 
HETATM   23  C   UNL     1      44.822 -20.875   4.060  1.00  0.00     0.116 A 
HETATM   24  C   UNL     1      44.392 -21.282   2.808  1.00  0.00     0.044 A 
HETATM   25  F   UNL     1      45.487 -21.729   4.846  1.00  0.00    -0.206 F 
HETATM   26  C   UNL     1      43.694 -20.384   1.996  1.00  0.00     0.032 A 
ENDBRANCH  17  20
ENDBRANCH  15  16
ENDBRANCH   1  15
TORSDOF 3
ENDMDL
MODEL 4
REMARK VINA RESULT:      -7.9      1.394      1.819
REMARK  3 active torsions:
REMARK  status: ('A' for Active; 'I' for Inactive)
REMARK    1  A    between atoms: C_2  and  N_3 
REMARK       I    between atoms: N_3  and  C_4 
REMARK    2  A    between atoms: C_4  and  C_5 
REMARK    3  A    between atoms: C_5  and  C_6 
ROOT
HETATM    1  C   UNL     1      42.526 -16.656   6.011  1.00  0.00     0.286 C 
HETATM    2  N   UNL     1      42.557 -15.194   6.454  1.00  0.00    -0.056 N 
HETATM    3  H   UNL     1      42.064 -15.148   7.355  1.00  0.00     0.278 HD
HETATM    4  H   UNL     1      43.541 -14.956   6.703  1.00  0.00     0.278 HD
HETATM    5  C   UNL     1      41.956 -14.169   5.539  1.00  0.00     0.209 C 
HETATM    6  C   UNL     1      40.559 -14.647   5.081  1.00  0.00     0.115 C 
HETATM    7  N   UNL     1      40.567 -16.025   4.600  1.00  0.00    -0.353 N 
HETATM    8  C   UNL     1      41.269 -17.033   5.212  1.00  0.00     0.249 C 
HETATM    9  O   UNL     1      40.947 -18.203   5.029  1.00  0.00    -0.271 OA
HETATM   10  C   UNL     1      42.904 -13.845   4.385  1.00  0.00     0.035 C 
HETATM   11  C   UNL     1      42.263 -12.866   3.406  1.00  0.00     0.002 C 
HETATM   12  C   UNL     1      40.931 -13.401   2.888  1.00  0.00     0.002 C 
HETATM   13  C   UNL     1      39.963 -13.701   4.032  1.00  0.00     0.027 C 
HETATM   14  H   UNL     1      39.731 -16.371   4.130  1.00  0.00     0.163 HD
ENDROOT
BRANCH   1  15
HETATM   15  C   UNL     1      43.756 -17.091   5.194  1.00  0.00     0.146 C 
BRANCH  15  16
HETATM   16  C   UNL     1      44.626 -18.088   5.906  1.00  0.00     0.224 C 
HETATM   17  N   UNL     1      44.872 -19.328   5.412  1.00  0.00    -0.327 N 
HETATM   18  H   UNL     1      45.459 -19.863   6.050  1.00  0.00     0.169 HD
HETATM   19  O   UNL     1      45.179 -17.750   6.962  1.00  0.00    -0.273 OA
BRANCH  17  20
HETATM   20  C   UNL     1      44.520 -20.011   4.231  1.00  0.00     0.034 A 
HETATM   21  C   UNL     1      43.917 -19.451   3.102  1.00  0.00     0.032 A 
HETATM   22  C   UNL     1      43.635 -20.240   1.979  1.00  0.00     0.044 A 
HETATM   23  C   UNL     1      43.953 -21.590   1.979  1.00  0.00     0.116 A 
HETATM   24  C   UNL     1      44.550 -22.170   3.085  1.00  0.00     0.044 A 
HETATM   25  F   UNL     1      43.683 -22.334   0.901  1.00  0.00    -0.206 F 
HETATM   26  C   UNL     1      44.833 -21.384   4.205  1.00  0.00     0.032 A 
ENDBRANCH  17  20
ENDBRANCH  15  16
ENDBRANCH   1  15
TORSDOF 3
ENDMDL
MODEL 5
REMARK VINA RESULT:      -7.7      2.170      3.106
REMARK  3 active torsions:
REMARK  status: ('A' for Active; 'I' for Inactive)
REMARK    1  A    between atoms: C_2  and  N_3 
REMARK       I    between atoms: N_3  and  C_4 
REMARK    2  A    between atoms: C_4  and  C_5 
REMARK    3  A    between atoms: C_5  and  C_6 
ROOT
HETATM    1  C   UNL     1      41.064 -16.617   3.206  1.00  0.00     0.286 C 
HETATM    2  N   UNL     1      40.259 -15.590   4.000  1.00  0.00    -0.056 N 
HETATM    3  H   UNL     1      39.477 -16.098   4.433  1.00  0.00     0.278 HD
HETATM    4  H   UNL     1      40.836 -15.293   4.815  1.00  0.00     0.278 HD
HETATM    5  C   UNL     1      39.700 -14.410   3.262  1.00  0.00     0.209 C 
HETATM    6  C   UNL     1      38.985 -14.899   1.982  1.00  0.00     0.115 C 
HETATM    7  N   UNL     1      39.799 -15.829   1.205  1.00  0.00    -0.353 N 
HETATM    8  C   UNL     1      40.555 -16.824   1.771  1.00  0.00     0.249 C 
HETATM    9  O   UNL     1      40.891 -17.795   1.100  1.00  0.00    -0.271 OA
HETATM   10  C   UNL     1      40.784 -13.366   3.000  1.00  0.00     0.035 C 
HETATM   11  C   UNL     1      40.240 -12.203   2.176  1.00  0.00     0.002 C 
HETATM   12  C   UNL     1      39.626 -12.697   0.869  1.00  0.00     0.002 C 
HETATM   13  C   UNL     1      38.519 -13.720   1.119  1.00  0.00     0.027 C 
HETATM   14  H   UNL     1      39.477 -16.076   0.269  1.00  0.00     0.163 HD
ENDROOT
BRANCH   1  15
HETATM   15  C   UNL     1      42.572 -16.317   3.136  1.00  0.00     0.146 C 
BRANCH  15  16
HETATM   16  C   UNL     1      43.287 -16.531   4.439  1.00  0.00     0.224 C 
HETATM   17  N   UNL     1      43.868 -17.712   4.769  1.00  0.00    -0.327 N 
HETATM   18  H   UNL     1      44.276 -17.669   5.701  1.00  0.00     0.169 HD
HETATM   19  O   UNL     1      43.391 -15.580   5.226  1.00  0.00    -0.273 OA
BRANCH  17  20
HETATM   20  C   UNL     1      44.044 -18.947   4.112  1.00  0.00     0.034 A 
HETATM   21  C   UNL     1      43.704 -19.232   2.787  1.00  0.00     0.032 A 
HETATM   22  C   UNL     1      43.951 -20.501   2.246  1.00  0.00     0.044 A 
HETATM   23  C   UNL     1      44.536 -21.488   3.024  1.00  0.00     0.116 A 
HETATM   24  C   UNL     1      44.882 -21.232   4.340  1.00  0.00     0.044 A 
HETATM   25  F   UNL     1      44.771 -22.695   2.497  1.00  0.00    -0.206 F 
HETATM   26  C   UNL     1      44.638 -19.966   4.881  1.00  0.00     0.032 A 
ENDBRANCH  17  20
ENDBRANCH  15  16
ENDBRANCH   1  15
TORSDOF 3
ENDMDL
MODEL 6
REMARK VINA RESULT:      -7.5      1.492      1.989
REMARK  3 active torsions:
REMARK  status: ('A' for Active; 'I' for Inactive)
REMARK    1  A    between atoms: C_2  and  N_3 
REMARK       I    between atoms: N_3  and  C_4 
REMARK    2  A    between atoms: C_4  and  C_5 
REMARK    3  A    between atoms: C_5  and  C_6 
ROOT
HETATM    1  C   UNL     1      43.529 -15.691   4.352  1.00  0.00     0.286 C 
HETATM    2  N   UNL     1      43.422 -15.738   2.829  1.00  0.00    -0.056 N 
HETATM    3  H   UNL     1      44.172 -15.137   2.462  1.00  0.00     0.278 HD
HETATM    4  H   UNL     1      43.702 -16.692   2.518  1.00  0.00     0.278 HD
HETATM    5  C   UNL     1      42.130 -15.310   2.200  1.00  0.00     0.209 C 
HETATM    6  C   UNL     1      41.686 -13.961   2.809  1.00  0.00     0.115 C 
HETATM    7  N   UNL     1      41.732 -13.961   4.268  1.00  0.00    -0.353 N 
HETATM    8  C   UNL     1      42.752 -14.529   4.990  1.00  0.00     0.249 C 
HETATM    9  O   UNL     1      42.955 -14.174   6.147  1.00  0.00    -0.271 OA
HETATM   10  C   UNL     1      41.077 -16.412   2.312  1.00  0.00     0.035 C 
HETATM   11  C   UNL     1      39.736 -15.950   1.750  1.00  0.00     0.002 C 
HETATM   12  C   UNL     1      39.265 -14.670   2.434  1.00  0.00     0.002 C 
HETATM   13  C   UNL     1      40.298 -13.551   2.303  1.00  0.00     0.027 C 
HETATM   14  H   UNL     1      41.307 -13.175   4.759  1.00  0.00     0.163 HD
ENDROOT
BRANCH   1  15
HETATM   15  C   UNL     1      43.096 -16.991   5.052  1.00  0.00     0.146 C 
BRANCH  15  16
HETATM   16  C   UNL     1      44.230 -17.723   5.713  1.00  0.00     0.224 C 
HETATM   17  N   UNL     1      44.713 -18.901   5.243  1.00  0.00    -0.327 N 
HETATM   18  H   UNL     1      45.459 -19.252   5.840  1.00  0.00     0.169 HD
HETATM   19  O   UNL     1      44.776 -17.210   6.700  1.00  0.00    -0.273 OA
BRANCH  17  20
HETATM   20  C   UNL     1      44.430 -19.712   4.125  1.00  0.00     0.034 A 
HETATM   21  C   UNL     1      43.842 -19.292   2.929  1.00  0.00     0.032 A 
HETATM   22  C   UNL     1      43.632 -20.199   1.882  1.00  0.00     0.044 A 
HETATM   23  C   UNL     1      44.006 -21.527   2.025  1.00  0.00     0.116 A 
HETATM   24  C   UNL     1      44.590 -21.968   3.200  1.00  0.00     0.044 A 
HETATM   25  F   UNL     1      43.804 -22.384   1.019  1.00  0.00    -0.206 F 
HETATM   26  C   UNL     1      44.802 -21.064   4.245  1.00  0.00     0.032 A 
ENDBRANCH  17  20
ENDBRANCH  15  16
ENDBRANCH   1  15
TORSDOF 3
ENDMDL
MODEL 7
REMARK VINA RESULT:      -7.4      2.664      4.724
REMARK  3 active torsions:
REMARK  status: ('A' for Active; 'I' for Inactive)
REMARK    1  A    between atoms: C_2  and  N_3 
REMARK       I    between atoms: N_3  and  C_4 
REMARK    2  A    between atoms: C_4  and  C_5 
REMARK    3  A    between atoms: C_5  and  C_6 
ROOT
HETATM    1  C   UNL     1      43.139 -14.091   5.951  1.00  0.00     0.286 C 
HETATM    2  N   UNL     1      41.950 -15.014   6.210  1.00  0.00    -0.056 N 
HETATM    3  H   UNL     1      41.412 -14.593   6.979  1.00  0.00     0.278 HD
HETATM    4  H   UNL     1      41.305 -14.940   5.394  1.00  0.00     0.278 HD
HETATM    5  C   UNL     1      42.231 -16.444   6.562  1.00  0.00     0.209 C 
HETATM    6  C   UNL     1      43.306 -16.496   7.672  1.00  0.00     0.115 C 
HETATM    7  N   UNL     1      44.463 -15.658   7.372  1.00  0.00    -0.353 N 
HETATM    8  C   UNL     1      44.364 -14.404   6.825  1.00  0.00     0.249 C 
HETATM    9  O   UNL     1      45.286 -13.604   6.955  1.00  0.00    -0.271 OA
HETATM   10  C   UNL     1      42.593 -17.251   5.316  1.00  0.00     0.035 C 
HETATM   11  C   UNL     1      42.963 -18.686   5.680  1.00  0.00     0.002 C 
HETATM   12  C   UNL     1      44.095 -18.719   6.703  1.00  0.00     0.002 C 
HETATM   13  C   UNL     1      43.732 -17.939   7.966  1.00  0.00     0.027 C 
HETATM   14  H   UNL     1      45.287 -15.754   7.965  1.00  0.00     0.163 HD
ENDROOT
BRANCH   1  15
HETATM   15  C   UNL     1      43.600 -14.056   4.483  1.00  0.00     0.146 C 
BRANCH  15  16
HETATM   16  C   UNL     1      42.482 -13.820   3.509  1.00  0.00     0.224 C 
HETATM   17  N   UNL     1      42.145 -14.719   2.550  1.00  0.00    -0.327 N 
HETATM   18  H   UNL     1      41.384 -14.366   1.973  1.00  0.00     0.169 HD
HETATM   19  O   UNL     1      41.810 -12.783   3.612  1.00  0.00    -0.273 OA
BRANCH  17  20
HETATM   20  C   UNL     1      42.592 -16.009   2.201  1.00  0.00     0.034 A 
HETATM   21  C   UNL     1      43.917 -16.389   1.973  1.00  0.00     0.032 A 
HETATM   22  C   UNL     1      44.232 -17.716   1.651  1.00  0.00     0.044 A 
HETATM   23  C   UNL     1      43.227 -18.667   1.554  1.00  0.00     0.116 A 
HETATM   24  C   UNL     1      41.906 -18.316   1.774  1.00  0.00     0.044 A 
HETATM   25  F   UNL     1      43.538 -19.931   1.249  1.00  0.00    -0.206 F 
HETATM   26  C   UNL     1      41.591 -16.993   2.097  1.00  0.00     0.032 A 
ENDBRANCH  17  20
ENDBRANCH  15  16
ENDBRANCH   1  15
TORSDOF 3
ENDMDL
MODEL 8
REMARK VINA RESULT:      -7.3      4.069      5.457
REMARK  3 active torsions:
REMARK  status: ('A' for Active; 'I' for Inactive)
REMARK    1  A    between atoms: C_2  and  N_3 
REMARK       I    between atoms: N_3  and  C_4 
REMARK    2  A    between atoms: C_4  and  C_5 
REMARK    3  A    between atoms: C_5  and  C_6 
ROOT
HETATM    1  C   UNL     1      40.153 -13.515   0.732  1.00  0.00     0.286 C 
HETATM    2  N   UNL     1      40.774 -12.805  -0.470  1.00  0.00    -0.056 N 
HETATM    3  H   UNL     1      40.460 -11.826  -0.429  1.00  0.00     0.278 HD
HETATM    4  H   UNL     1      41.801 -12.738  -0.306  1.00  0.00     0.278 HD
HETATM    5  C   UNL     1      40.467 -13.338  -1.838  1.00  0.00     0.209 C 
HETATM    6  C   UNL     1      38.944 -13.561  -1.971  1.00  0.00     0.115 C 
HETATM    7  N   UNL     1      38.384 -14.300  -0.843  1.00  0.00    -0.353 N 
HETATM    8  C   UNL     1      38.748 -14.075   0.461  1.00  0.00     0.249 C 
HETATM    9  O   UNL     1      38.000 -14.414   1.373  1.00  0.00    -0.271 OA
HETATM   10  C   UNL     1      41.300 -14.583  -2.137  1.00  0.00     0.035 C 
HETATM   11  C   UNL     1      40.931 -15.178  -3.493  1.00  0.00     0.002 C 
HETATM   12  C   UNL     1      39.438 -15.485  -3.570  1.00  0.00     0.002 C 
HETATM   13  C   UNL     1      38.594 -14.240  -3.301  1.00  0.00     0.027 C 
HETATM   14  H   UNL     1      37.423 -14.632  -0.921  1.00  0.00     0.163 HD
ENDROOT
BRANCH   1  15
HETATM   15  C   UNL     1      41.016 -14.655   1.303  1.00  0.00     0.146 C 
BRANCH  15  16
HETATM   16  C   UNL     1      42.279 -14.179   1.961  1.00  0.00     0.224 C 
HETATM   17  N   UNL     1      43.170 -15.027   2.534  1.00  0.00    -0.327 N 
HETATM   18  H   UNL     1      43.945 -14.514   2.950  1.00  0.00     0.169 HD
HETATM   19  O   UNL     1      42.543 -12.968   1.941  1.00  0.00    -0.273 OA
BRANCH  17  20
HETATM   20  C   UNL     1      43.266 -16.428   2.657  1.00  0.00     0.034 A 
HETATM   21  C   UNL     1      42.897 -17.186   3.771  1.00  0.00     0.032 A 
HETATM   22  C   UNL     1      43.024 -18.581   3.757  1.00  0.00     0.044 A 
HETATM   23  C   UNL     1      43.521 -19.224   2.633  1.00  0.00     0.116 A 
HETATM   24  C   UNL     1      43.894 -18.497   1.516  1.00  0.00     0.044 A 
HETATM   25  F   UNL     1      43.635 -20.557   2.629  1.00  0.00    -0.206 F 
HETATM   26  C   UNL     1      43.766 -17.105   1.528  1.00  0.00     0.032 A 
ENDBRANCH  17  20
ENDBRANCH  15  16
ENDBRANCH   1  15
TORSDOF 3
ENDMDL
MODEL 9
REMARK VINA RESULT:      -7.3      2.297      3.154
REMARK  3 active torsions:
REMARK  status: ('A' for Active; 'I' for Inactive)
REMARK    1  A    between atoms: C_2  and  N_3 
REMARK       I    between atoms: N_3  and  C_4 
REMARK    2  A    between atoms: C_4  and  C_5 
REMARK    3  A    between atoms: C_5  and  C_6 
ROOT
HETATM    1  C   UNL     1      43.102 -16.020   4.097  1.00  0.00     0.286 C 
HETATM    2  N   UNL     1      43.106 -14.625   3.476  1.00  0.00    -0.056 N 
HETATM    3  H   UNL     1      44.039 -14.227   3.649  1.00  0.00     0.278 HD
HETATM    4  H   UNL     1      43.078 -14.735   2.440  1.00  0.00     0.278 HD
HETATM    5  C   UNL     1      42.082 -13.638   3.953  1.00  0.00     0.209 C 
HETATM    6  C   UNL     1      42.062 -13.627   5.498  1.00  0.00     0.115 C 
HETATM    7  N   UNL     1      41.991 -14.969   6.069  1.00  0.00    -0.353 N 
HETATM    8  C   UNL     1      42.706 -16.034   5.581  1.00  0.00     0.249 C 
HETATM    9  O   UNL     1      42.923 -17.006   6.299  1.00  0.00    -0.271 OA
HETATM   10  C   UNL     1      40.719 -13.920   3.323  1.00  0.00     0.035 C 
HETATM   11  C   UNL     1      39.654 -12.973   3.869  1.00  0.00     0.002 C 
HETATM   12  C   UNL     1      39.581 -13.050   5.392  1.00  0.00     0.002 C 
HETATM   13  C   UNL     1      40.932 -12.740   6.035  1.00  0.00     0.027 C 
HETATM   14  H   UNL     1      41.812 -15.053   7.069  1.00  0.00     0.163 HD
ENDROOT
BRANCH   1  15
HETATM   15  C   UNL     1      42.210 -17.034   3.358  1.00  0.00     0.146 C 
BRANCH  15  16
HETATM   16  C   UNL     1      42.683 -17.346   1.967  1.00  0.00     0.224 C 
HETATM   17  N   UNL     1      43.410 -18.454   1.673  1.00  0.00    -0.327 N 
HETATM   18  H   UNL     1      43.658 -18.474   0.686  1.00  0.00     0.169 HD
HETATM   19  O   UNL     1      42.358 -16.588   1.042  1.00  0.00    -0.273 OA
BRANCH  17  20
HETATM   20  C   UNL     1      43.866 -19.564   2.412  1.00  0.00     0.034 A 
HETATM   21  C   UNL     1      44.440 -19.528   3.686  1.00  0.00     0.032 A 
HETATM   22  C   UNL     1      44.836 -20.711   4.322  1.00  0.00     0.044 A 
HETATM   23  C   UNL     1      44.661 -21.934   3.691  1.00  0.00     0.116 A 
HETATM   24  C   UNL     1      44.096 -21.997   2.429  1.00  0.00     0.044 A 
HETATM   25  F   UNL     1      45.039 -23.058   4.309  1.00  0.00    -0.206 F 
HETATM   26  C   UNL     1      43.699 -20.817   1.793  1.00  0.00     0.032 A 
ENDBRANCH  17  20
ENDBRANCH  15  16
ENDBRANCH   1  15
TORSDOF 3
ENDMDL
MODEL 10
REMARK VINA RESULT:      -7.2      2.602      3.828
REMARK  3 active torsions:
REMARK  status: ('A' for Active; 'I' for Inactive)
REMARK    1  A    between atoms: C_2  and  N_3 
REMARK       I    between atoms: N_3  and  C_4 
REMARK    2  A    between atoms: C_4  and  C_5 
REMARK    3  A    between atoms: C_5  and  C_6 
ROOT
HETATM    1  C   UNL     1      42.789 -15.093   2.350  1.00  0.00     0.286 C 
HETATM    2  N   UNL     1      41.306 -15.436   2.467  1.00  0.00    -0.056 N 
HETATM    3  H   UNL     1      40.785 -14.615   2.131  1.00  0.00     0.278 HD
HETATM    4  H   UNL     1      41.089 -16.167   1.757  1.00  0.00     0.278 HD
HETATM    5  C   UNL     1      40.773 -15.806   3.819  1.00  0.00     0.209 C 
HETATM    6  C   UNL     1      41.252 -14.767   4.859  1.00  0.00     0.115 C 
HETATM    7  N   UNL     1      42.685 -14.505   4.772  1.00  0.00    -0.353 N 
HETATM    8  C   UNL     1      43.356 -14.373   3.583  1.00  0.00     0.249 C 
HETATM    9  O   UNL     1      44.430 -13.779   3.548  1.00  0.00    -0.271 OA
HETATM   10  C   UNL     1      41.139 -17.246   4.174  1.00  0.00     0.035 C 
HETATM   11  C   UNL     1      40.674 -17.600   5.584  1.00  0.00     0.002 C 
HETATM   12  C   UNL     1      41.237 -16.621   6.610  1.00  0.00     0.002 C 
HETATM   13  C   UNL     1      40.853 -15.179   6.282  1.00  0.00     0.027 C 
HETATM   14  H   UNL     1      43.116 -13.959   5.519  1.00  0.00     0.163 HD
ENDROOT
BRANCH   1  15
HETATM   15  C   UNL     1      43.692 -16.303   2.050  1.00  0.00     0.146 C 
BRANCH  15  16
HETATM   16  C   UNL     1      43.099 -17.264   1.060  1.00  0.00     0.224 C 
HETATM   17  N   UNL     1      43.189 -18.611   1.204  1.00  0.00    -0.327 N 
HETATM   18  H   UNL     1      42.751 -19.090   0.419  1.00  0.00     0.169 HD
HETATM   19  O   UNL     1      42.462 -16.812   0.098  1.00  0.00    -0.273 OA
BRANCH  17  20
HETATM   20  C   UNL     1      43.723 -19.468   2.187  1.00  0.00     0.034 A 
HETATM   21  C   UNL     1      43.987 -20.832   2.036  1.00  0.00     0.032 A 
HETATM   22  C   UNL     1      44.540 -21.570   3.091  1.00  0.00     0.044 A 
HETATM   23  C   UNL     1      44.830 -20.952   4.298  1.00  0.00     0.116 A 
HETATM   24  C   UNL     1      44.576 -19.602   4.473  1.00  0.00     0.044 A 
HETATM   25  F   UNL     1      45.360 -21.665   5.297  1.00  0.00    -0.206 F 
HETATM   26  C   UNL     1      44.026 -18.864   3.421  1.00  0.00     0.032 A 
ENDBRANCH  17  20
ENDBRANCH  15  16
ENDBRANCH   1  15
TORSDOF 3
ENDMDL
