MODEL 1
REMARK VINA RESULT:      -9.4      0.000      0.000
REMARK  6 active torsions:
REMARK  status: ('A' for Active; 'I' for Inactive)
REMARK    1  A    between atoms: O_2  and  C_3 
REMARK    2  A    between atoms: C_6  and  C_7 
REMARK    3  A    between atoms: C_11  and  C_12 
REMARK       I    between atoms: C_12  and  N_13 
REMARK    4  A    between atoms: N_13  and  N_14 
REMARK       I    between atoms: N_14  and  C_15 
REMARK    5  A    between atoms: C_15  and  C_16 
REMARK    6  A    between atoms: C_17  and  C_18 
ROOT
HETATM    1  C   UNL     1      44.939 -13.304   7.688  1.00  0.00     0.288 C 
HETATM    2  N   UNL     1      43.958 -14.231   7.406  1.00  0.00    -0.262 N 
HETATM    3  O   UNL     1      45.903 -13.132   6.944  1.00  0.00    -0.264 OA
HETATM    4  H   UNL     1      43.145 -14.400   7.992  1.00  0.00     0.190 HD
ENDROOT
BRANCH   1   5
HETATM    5  C   UNL     1      44.762 -12.565   8.906  1.00  0.00     0.121 A 
HETATM    6  N   UNL     1      45.827 -12.068   9.603  1.00  0.00    -0.272 N 
HETATM    7  N   UNL     1      45.495 -11.429  10.733  1.00  0.00    -0.174 NA
HETATM    8  H   UNL     1      46.808 -12.149   9.355  1.00  0.00     0.189 HD
HETATM    9  C   UNL     1      44.155 -11.490  10.780  1.00  0.00     0.089 A 
HETATM   10  C   UNL     1      43.656 -12.192   9.645  1.00  0.00     0.071 A 
BRANCH   9  11
HETATM   11  C   UNL     1      43.395 -10.912  11.894  1.00  0.00    -0.005 A 
HETATM   12  C   UNL     1      42.164 -11.448  12.291  1.00  0.00     0.016 A 
HETATM   13  C   UNL     1      41.466 -10.898  13.373  1.00  0.00     0.037 A 
HETATM   14  C   UNL     1      41.982  -9.811  14.079  1.00  0.00     0.068 A 
HETATM   15  C   UNL     1      43.199  -9.261  13.682  1.00  0.00     0.037 A 
HETATM   16  C   UNL     1      43.897  -9.808  12.597  1.00  0.00     0.016 A 
BRANCH  14  17
HETATM   17  O   UNL     1      41.207  -9.383  15.121  1.00  0.00    -0.356 OA
HETATM   18  C   UNL     1      41.871  -9.140  16.354  1.00  0.00     0.210 C 
ENDBRANCH  14  17
ENDBRANCH   9  11
ENDBRANCH   1   5
BRANCH   2  19
HETATM   19  N   UNL     1      44.071 -15.008   6.251  1.00  0.00    -0.267 N 
HETATM   20  C   UNL     1      42.987 -15.092   5.409  1.00  0.00     0.240 C 
HETATM   21  O   UNL     1      41.935 -14.488   5.592  1.00  0.00    -0.271 OA
HETATM   22  H   UNL     1      44.916 -15.564   6.146  1.00  0.00     0.190 HD
BRANCH  20  23
HETATM   23  C   UNL     1      43.179 -16.004   4.250  1.00  0.00     0.089 A 
HETATM   24  C   UNL     1      42.507 -17.368   4.273  1.00  0.00     0.034 A 
HETATM   25  C   UNL     1      42.052 -16.304   3.302  1.00  0.00     0.025 A 
BRANCH  24  26
HETATM   26  C   UNL     1      43.291 -18.582   3.811  1.00  0.00    -0.031 A 
HETATM   27  C   UNL     1      44.255 -19.218   4.622  1.00  0.00     0.040 A 
HETATM   28 CL   UNL     1      44.610 -18.627   6.210  1.00  0.00    -0.084 Cl
HETATM   29  C   UNL     1      44.957 -20.345   4.181  1.00  0.00     0.024 A 
HETATM   30  C   UNL     1      44.706 -20.873   2.916  1.00  0.00     0.002 A 
HETATM   31  C   UNL     1      43.752 -20.277   2.100  1.00  0.00     0.001 A 
HETATM   32  C   UNL     1      43.051 -19.151   2.546  1.00  0.00     0.009 A 
ENDBRANCH  24  26
ENDBRANCH  20  23
ENDBRANCH   2  19
TORSDOF 6
ENDMDL
MODEL 2
REMARK VINA RESULT:      -9.3      2.720     11.240
REMARK  6 active torsions:
REMARK  status: ('A' for Active; 'I' for Inactive)
REMARK    1  A    between atoms: O_2  and  C_3 
REMARK    2  A    between atoms: C_6  and  C_7 
REMARK    3  A    between atoms: C_11  and  C_12 
REMARK       I    between atoms: C_12  and  N_13 
REMARK    4  A    between atoms: N_13  and  N_14 
REMARK       I    between atoms: N_14  and  C_15 
REMARK    5  A    between atoms: C_15  and  C_16 
REMARK    6  A    between atoms: C_17  and  C_18 
ROOT
HETATM    1  C   UNL     1      42.596 -13.289   6.092  1.00  0.00     0.288 C 
HETATM    2  N   UNL     1      43.451 -13.306   7.174  1.00  0.00    -0.262 N 
HETATM    3  O   UNL     1      41.870 -12.325   5.853  1.00  0.00    -0.264 OA
HETATM    4  H   UNL     1      44.069 -14.080   7.401  1.00  0.00     0.190 HD
ENDROOT
BRANCH   1   5
HETATM    5  C   UNL     1      42.606 -14.469   5.275  1.00  0.00     0.121 A 
HETATM    6  N   UNL     1      41.670 -14.674   4.301  1.00  0.00    -0.272 N 
HETATM    7  N   UNL     1      41.800 -15.837   3.648  1.00  0.00    -0.174 NA
HETATM    8  H   UNL     1      40.908 -14.052   4.048  1.00  0.00     0.189 HD
HETATM    9  C   UNL     1      42.875 -16.421   4.200  1.00  0.00     0.089 A 
HETATM   10  C   UNL     1      43.414 -15.588   5.223  1.00  0.00     0.071 A 
BRANCH   9  11
HETATM   11  C   UNL     1      43.343 -17.742   3.767  1.00  0.00    -0.005 A 
HETATM   12  C   UNL     1      43.124 -18.200   2.462  1.00  0.00     0.016 A 
HETATM   13  C   UNL     1      43.602 -19.453   2.059  1.00  0.00     0.037 A 
HETATM   14  C   UNL     1      44.306 -20.268   2.945  1.00  0.00     0.068 A 
HETATM   15  C   UNL     1      44.516 -19.828   4.251  1.00  0.00     0.037 A 
HETATM   16  C   UNL     1      44.036 -18.576   4.656  1.00  0.00     0.016 A 
BRANCH  14  17
HETATM   17  O   UNL     1      44.727 -21.458   2.419  1.00  0.00    -0.356 OA
HETATM   18  C   UNL     1      43.947 -22.000   1.361  1.00  0.00     0.210 C 
ENDBRANCH  14  17
ENDBRANCH   9  11
ENDBRANCH   1   5
BRANCH   2  19
HETATM   19  N   UNL     1      43.482 -12.204   8.031  1.00  0.00    -0.267 N 
HETATM   20  C   UNL     1      44.507 -12.111   8.943  1.00  0.00     0.240 C 
HETATM   21  O   UNL     1      45.425 -12.922   9.019  1.00  0.00    -0.271 OA
HETATM   22  H   UNL     1      42.680 -11.579   8.013  1.00  0.00     0.190 HD
BRANCH  20  23
HETATM   23  C   UNL     1      44.408 -10.946   9.861  1.00  0.00     0.089 A 
HETATM   24  C   UNL     1      44.128 -11.198  11.335  1.00  0.00     0.034 A 
HETATM   25  C   UNL     1      45.472 -10.672  10.887  1.00  0.00     0.025 A 
BRANCH  24  26
HETATM   26  C   UNL     1      43.130 -10.312  12.056  1.00  0.00    -0.031 A 
HETATM   27  C   UNL     1      41.770 -10.240  11.684  1.00  0.00     0.040 A 
HETATM   28 CL   UNL     1      41.164 -11.166  10.353  1.00  0.00    -0.084 Cl
HETATM   29  C   UNL     1      40.863  -9.427  12.372  1.00  0.00     0.024 A 
HETATM   30  C   UNL     1      41.291  -8.668  13.458  1.00  0.00     0.002 A 
HETATM   31  C   UNL     1      42.621  -8.728  13.858  1.00  0.00     0.001 A 
HETATM   32  C   UNL     1      43.524  -9.544  13.168  1.00  0.00     0.009 A 
ENDBRANCH  24  26
ENDBRANCH  20  23
ENDBRANCH   2  19
TORSDOF 6
ENDMDL
MODEL 3
REMARK VINA RESULT:      -8.8      9.025     12.513
REMARK  6 active torsions:
REMARK  status: ('A' for Active; 'I' for Inactive)
REMARK    1  A    between atoms: O_2  and  C_3 
REMARK    2  A    between atoms: C_6  and  C_7 
REMARK    3  A    between atoms: C_11  and  C_12 
REMARK       I    between atoms: C_12  and  N_13 
REMARK    4  A    between atoms: N_13  and  N_14 
REMARK       I    between atoms: N_14  and  C_15 
REMARK    5  A    between atoms: C_15  and  C_16 
REMARK    6  A    between atoms: C_17  and  C_18 
ROOT
HETATM    1  C   UNL     1      41.230 -14.681  -0.611  1.00  0.00     0.288 C 
HETATM    2  N   UNL     1      41.585 -16.012  -0.655  1.00  0.00    -0.262 N 
HETATM    3  O   UNL     1      41.646 -13.926   0.268  1.00  0.00    -0.264 OA
HETATM    4  H   UNL     1      41.267 -16.666  -1.366  1.00  0.00     0.190 HD
ENDROOT
BRANCH   1   5
HETATM    5  C   UNL     1      40.341 -14.241  -1.649  1.00  0.00     0.121 A 
HETATM    6  N   UNL     1      40.799 -13.571  -2.747  1.00  0.00    -0.272 N 
HETATM    7  N   UNL     1      39.840 -13.203  -3.608  1.00  0.00    -0.174 NA
HETATM    8  H   UNL     1      41.763 -13.326  -2.953  1.00  0.00     0.189 HD
HETATM    9  C   UNL     1      38.701 -13.661  -3.067  1.00  0.00     0.089 A 
HETATM   10  C   UNL     1      38.975 -14.325  -1.836  1.00  0.00     0.071 A 
BRANCH   9  11
HETATM   11  C   UNL     1      37.400 -13.441  -3.707  1.00  0.00    -0.005 A 
HETATM   12  C   UNL     1      36.840 -12.161  -3.798  1.00  0.00     0.016 A 
HETATM   13  C   UNL     1      35.610 -11.967  -4.437  1.00  0.00     0.037 A 
HETATM   14  C   UNL     1      34.918 -13.041  -4.998  1.00  0.00     0.068 A 
HETATM   15  C   UNL     1      35.459 -14.322  -4.899  1.00  0.00     0.037 A 
HETATM   16  C   UNL     1      36.689 -14.517  -4.258  1.00  0.00     0.016 A 
BRANCH  14  17
HETATM   17  O   UNL     1      33.737 -12.711  -5.603  1.00  0.00    -0.356 OA
HETATM   18  C   UNL     1      33.028 -11.605  -5.058  1.00  0.00     0.210 C 
ENDBRANCH  14  17
ENDBRANCH   9  11
ENDBRANCH   1   5
BRANCH   2  19
HETATM   19  N   UNL     1      42.428 -16.523   0.334  1.00  0.00    -0.267 N 
HETATM   20  C   UNL     1      41.933 -17.477   1.191  1.00  0.00     0.240 C 
HETATM   21  O   UNL     1      40.799 -17.940   1.110  1.00  0.00    -0.271 OA
HETATM   22  H   UNL     1      43.338 -16.080   0.443  1.00  0.00     0.190 HD
BRANCH  20  23
HETATM   23  C   UNL     1      42.880 -17.898   2.256  1.00  0.00     0.089 A 
HETATM   24  C   UNL     1      43.915 -18.966   1.934  1.00  0.00     0.034 A 
HETATM   25  C   UNL     1      44.338 -17.537   2.186  1.00  0.00     0.025 A 
BRANCH  24  26
HETATM   26  C   UNL     1      44.179 -20.063   2.948  1.00  0.00    -0.031 A 
HETATM   27  C   UNL     1      44.226 -21.429   2.595  1.00  0.00     0.040 A 
HETATM   28 CL   UNL     1      43.968 -21.933   0.959  1.00  0.00    -0.084 Cl
HETATM   29  C   UNL     1      44.486 -22.423   3.544  1.00  0.00     0.024 A 
HETATM   30  C   UNL     1      44.713 -22.077   4.874  1.00  0.00     0.002 A 
HETATM   31  C   UNL     1      44.686 -20.739   5.250  1.00  0.00     0.001 A 
HETATM   32  C   UNL     1      44.429 -19.748   4.297  1.00  0.00     0.009 A 
ENDBRANCH  24  26
ENDBRANCH  20  23
ENDBRANCH   2  19
TORSDOF 6
ENDMDL
MODEL 4
REMARK VINA RESULT:      -8.3      3.380     11.236
REMARK  6 active torsions:
REMARK  status: ('A' for Active; 'I' for Inactive)
REMARK    1  A    between atoms: O_2  and  C_3 
REMARK    2  A    between atoms: C_6  and  C_7 
REMARK    3  A    between atoms: C_11  and  C_12 
REMARK       I    between atoms: C_12  and  N_13 
REMARK    4  A    between atoms: N_13  and  N_14 
REMARK       I    between atoms: N_14  and  C_15 
REMARK    5  A    between atoms: C_15  and  C_16 
REMARK    6  A    between atoms: C_17  and  C_18 
ROOT
HETATM    1  C   UNL     1      42.000 -12.241   5.796  1.00  0.00     0.288 C 
HETATM    2  N   UNL     1      42.505 -12.330   7.076  1.00  0.00    -0.262 N 
HETATM    3  O   UNL     1      41.213 -11.354   5.468  1.00  0.00    -0.264 OA
HETATM    4  H   UNL     1      43.160 -13.043   7.384  1.00  0.00     0.190 HD
ENDROOT
BRANCH   1   5
HETATM    5  C   UNL     1      42.447 -13.253   4.881  1.00  0.00     0.121 A 
HETATM    6  N   UNL     1      42.953 -12.935   3.653  1.00  0.00    -0.272 N 
HETATM    7  N   UNL     1      43.297 -13.995   2.908  1.00  0.00    -0.174 NA
HETATM    8  H   UNL     1      43.074 -12.004   3.267  1.00  0.00     0.189 HD
HETATM    9  C   UNL     1      43.022 -15.059   3.678  1.00  0.00     0.089 A 
HETATM   10  C   UNL     1      42.491 -14.633   4.931  1.00  0.00     0.071 A 
BRANCH   9  11
HETATM   11  C   UNL     1      43.244 -16.430   3.207  1.00  0.00    -0.005 A 
HETATM   12  C   UNL     1      43.575 -16.697   1.873  1.00  0.00     0.016 A 
HETATM   13  C   UNL     1      43.809 -18.010   1.449  1.00  0.00     0.037 A 
HETATM   14  C   UNL     1      43.722 -19.077   2.343  1.00  0.00     0.068 A 
HETATM   15  C   UNL     1      43.378 -18.824   3.670  1.00  0.00     0.037 A 
HETATM   16  C   UNL     1      43.141 -17.510   4.095  1.00  0.00     0.016 A 
BRANCH  14  17
HETATM   17  O   UNL     1      43.988 -20.304   1.801  1.00  0.00    -0.356 OA
HETATM   18  C   UNL     1      44.440 -21.314   2.695  1.00  0.00     0.210 C 
ENDBRANCH  14  17
ENDBRANCH   9  11
ENDBRANCH   1   5
BRANCH   2  19
HETATM   19  N   UNL     1      42.099 -11.395   8.031  1.00  0.00    -0.267 N 
HETATM   20  C   UNL     1      43.032 -10.921   8.923  1.00  0.00     0.240 C 
HETATM   21  O   UNL     1      44.217 -11.241   8.902  1.00  0.00    -0.271 OA
HETATM   22  H   UNL     1      41.104 -11.194   8.091  1.00  0.00     0.190 HD
BRANCH  20  23
HETATM   23  C   UNL     1      42.486  -9.993   9.947  1.00  0.00     0.089 A 
HETATM   24  C   UNL     1      41.590 -10.555  11.041  1.00  0.00     0.034 A 
HETATM   25  C   UNL     1      42.970 -10.034  11.370  1.00  0.00     0.025 A 
BRANCH  24  26
HETATM   26  C   UNL     1      40.339  -9.792  11.432  1.00  0.00    -0.031 A 
HETATM   27  C   UNL     1      39.151  -9.840  10.672  1.00  0.00     0.040 A 
HETATM   28 CL   UNL     1      39.062 -10.781   9.221  1.00  0.00    -0.084 Cl
HETATM   29  C   UNL     1      38.004  -9.139  11.058  1.00  0.00     0.024 A 
HETATM   30  C   UNL     1      38.012  -8.374  12.223  1.00  0.00     0.002 A 
HETATM   31  C   UNL     1      39.163  -8.317  12.999  1.00  0.00     0.001 A 
HETATM   32  C   UNL     1      40.307  -9.022  12.610  1.00  0.00     0.009 A 
ENDBRANCH  24  26
ENDBRANCH  20  23
ENDBRANCH   2  19
TORSDOF 6
ENDMDL
MODEL 5
REMARK VINA RESULT:      -8.3      2.313      2.576
REMARK  6 active torsions:
REMARK  status: ('A' for Active; 'I' for Inactive)
REMARK    1  A    between atoms: O_2  and  C_3 
REMARK    2  A    between atoms: C_6  and  C_7 
REMARK    3  A    between atoms: C_11  and  C_12 
REMARK       I    between atoms: C_12  and  N_13 
REMARK    4  A    between atoms: N_13  and  N_14 
REMARK       I    between atoms: N_14  and  C_15 
REMARK    5  A    between atoms: C_15  and  C_16 
REMARK    6  A    between atoms: C_17  and  C_18 
ROOT
HETATM    1  C   UNL     1      41.803 -12.008   5.876  1.00  0.00     0.288 C 
HETATM    2  N   UNL     1      41.971 -13.327   6.239  1.00  0.00    -0.262 N 
HETATM    3  O   UNL     1      41.666 -11.669   4.701  1.00  0.00    -0.264 OA
HETATM    4  H   UNL     1      42.081 -13.647   7.197  1.00  0.00     0.190 HD
ENDROOT
BRANCH   1   5
HETATM    5  C   UNL     1      41.805 -11.062   6.956  1.00  0.00     0.121 A 
HETATM    6  N   UNL     1      41.613  -9.727   6.740  1.00  0.00    -0.272 N 
HETATM    7  N   UNL     1      41.674  -8.975   7.847  1.00  0.00    -0.174 NA
HETATM    8  H   UNL     1      41.446  -9.273   5.847  1.00  0.00     0.189 HD
HETATM    9  C   UNL     1      41.902  -9.848   8.841  1.00  0.00     0.089 A 
HETATM   10  C   UNL     1      41.984 -11.172   8.321  1.00  0.00     0.071 A 
BRANCH   9  11
HETATM   11  C   UNL     1      42.055  -9.409  10.232  1.00  0.00    -0.005 A 
HETATM   12  C   UNL     1      41.264  -8.383  10.764  1.00  0.00     0.016 A 
HETATM   13  C   UNL     1      41.407  -7.997  12.102  1.00  0.00     0.037 A 
HETATM   14  C   UNL     1      42.335  -8.625  12.932  1.00  0.00     0.068 A 
HETATM   15  C   UNL     1      43.139  -9.636  12.409  1.00  0.00     0.037 A 
HETATM   16  C   UNL     1      42.998 -10.022  11.070  1.00  0.00     0.016 A 
BRANCH  14  17
HETATM   17  O   UNL     1      42.362  -8.160  14.218  1.00  0.00    -0.356 OA
HETATM   18  C   UNL     1      42.432  -9.137  15.250  1.00  0.00     0.210 C 
ENDBRANCH  14  17
ENDBRANCH   9  11
ENDBRANCH   1   5
BRANCH   2  19
HETATM   19  N   UNL     1      42.003 -14.305   5.243  1.00  0.00    -0.267 N 
HETATM   20  C   UNL     1      43.082 -15.156   5.194  1.00  0.00     0.240 C 
HETATM   21  O   UNL     1      44.003 -15.134   6.005  1.00  0.00    -0.271 OA
HETATM   22  H   UNL     1      41.277 -14.269   4.532  1.00  0.00     0.190 HD
BRANCH  20  23
HETATM   23  C   UNL     1      43.061 -16.109   4.053  1.00  0.00     0.089 A 
HETATM   24  C   UNL     1      42.506 -17.508   4.278  1.00  0.00     0.034 A 
HETATM   25  C   UNL     1      41.767 -16.519   3.406  1.00  0.00     0.025 A 
BRANCH  24  26
HETATM   26  C   UNL     1      43.242 -18.695   3.684  1.00  0.00    -0.031 A 
HETATM   27  C   UNL     1      44.257 -19.384   4.380  1.00  0.00     0.040 A 
HETATM   28 CL   UNL     1      44.734 -18.895   5.971  1.00  0.00    -0.084 Cl
HETATM   29  C   UNL     1      44.913 -20.486   3.819  1.00  0.00     0.024 A 
HETATM   30  C   UNL     1      44.564 -20.933   2.547  1.00  0.00     0.002 A 
HETATM   31  C   UNL     1      43.558 -20.282   1.842  1.00  0.00     0.001 A 
HETATM   32  C   UNL     1      42.904 -19.183   2.408  1.00  0.00     0.009 A 
ENDBRANCH  24  26
ENDBRANCH  20  23
ENDBRANCH   2  19
TORSDOF 6
ENDMDL
MODEL 6
REMARK VINA RESULT:      -8.2      7.138      9.150
REMARK  6 active torsions:
REMARK  status: ('A' for Active; 'I' for Inactive)
REMARK    1  A    between atoms: O_2  and  C_3 
REMARK    2  A    between atoms: C_6  and  C_7 
REMARK    3  A    between atoms: C_11  and  C_12 
REMARK       I    between atoms: C_12  and  N_13 
REMARK    4  A    between atoms: N_13  and  N_14 
REMARK       I    between atoms: N_14  and  C_15 
REMARK    5  A    between atoms: C_15  and  C_16 
REMARK    6  A    between atoms: C_17  and  C_18 
ROOT
HETATM    1  C   UNL     1      40.247 -15.985   1.904  1.00  0.00     0.288 C 
HETATM    2  N   UNL     1      40.225 -16.206   3.264  1.00  0.00    -0.262 N 
HETATM    3  O   UNL     1      40.915 -16.683   1.142  1.00  0.00    -0.264 OA
HETATM    4  H   UNL     1      39.683 -15.656   3.925  1.00  0.00     0.190 HD
ENDROOT
BRANCH   1   5
HETATM    5  C   UNL     1      39.446 -14.886   1.441  1.00  0.00     0.121 A 
HETATM    6  N   UNL     1      39.309 -14.610   0.111  1.00  0.00    -0.272 N 
HETATM    7  N   UNL     1      38.555 -13.535  -0.154  1.00  0.00    -0.174 NA
HETATM    8  H   UNL     1      39.724 -15.121  -0.663  1.00  0.00     0.189 HD
HETATM    9  C   UNL     1      38.162 -13.088   1.050  1.00  0.00     0.089 A 
HETATM   10  C   UNL     1      38.697 -13.916   2.078  1.00  0.00     0.071 A 
BRANCH   9  11
HETATM   11  C   UNL     1      37.322 -11.894   1.192  1.00  0.00    -0.005 A 
HETATM   12  C   UNL     1      37.676 -10.854   2.060  1.00  0.00     0.016 A 
HETATM   13  C   UNL     1      36.874  -9.711   2.163  1.00  0.00     0.037 A 
HETATM   14  C   UNL     1      35.712  -9.581   1.402  1.00  0.00     0.068 A 
HETATM   15  C   UNL     1      35.342 -10.618   0.547  1.00  0.00     0.037 A 
HETATM   16  C   UNL     1      36.142 -11.764   0.446  1.00  0.00     0.016 A 
BRANCH  14  17
HETATM   17  O   UNL     1      35.031  -8.411   1.589  1.00  0.00    -0.356 OA
HETATM   18  C   UNL     1      34.821  -8.000   2.935  1.00  0.00     0.210 C 
ENDBRANCH  14  17
ENDBRANCH   9  11
ENDBRANCH   1   5
BRANCH   2  19
HETATM   19  N   UNL     1      40.997 -17.242   3.795  1.00  0.00    -0.267 N 
HETATM   20  C   UNL     1      41.851 -16.959   4.834  1.00  0.00     0.240 C 
HETATM   21  O   UNL     1      41.944 -15.851   5.355  1.00  0.00    -0.271 OA
HETATM   22  H   UNL     1      40.970 -18.137   3.310  1.00  0.00     0.190 HD
BRANCH  20  23
HETATM   23  C   UNL     1      42.684 -18.107   5.276  1.00  0.00     0.089 A 
HETATM   24  C   UNL     1      43.921 -18.469   4.466  1.00  0.00     0.034 A 
HETATM   25  C   UNL     1      44.054 -17.896   5.858  1.00  0.00     0.025 A 
BRANCH  24  26
HETATM   26  C   UNL     1      44.210 -19.929   4.177  1.00  0.00    -0.031 A 
HETATM   27  C   UNL     1      44.058 -20.495   2.893  1.00  0.00     0.040 A 
HETATM   28 CL   UNL     1      43.512 -19.536   1.559  1.00  0.00    -0.084 Cl
HETATM   29  C   UNL     1      44.344 -21.842   2.646  1.00  0.00     0.024 A 
HETATM   30  C   UNL     1      44.798 -22.660   3.678  1.00  0.00     0.002 A 
HETATM   31  C   UNL     1      44.970 -22.129   4.951  1.00  0.00     0.001 A 
HETATM   32  C   UNL     1      44.685 -20.781   5.192  1.00  0.00     0.009 A 
ENDBRANCH  24  26
ENDBRANCH  20  23
ENDBRANCH   2  19
TORSDOF 6
ENDMDL
MODEL 7
REMARK VINA RESULT:      -8.2      6.927     10.239
REMARK  6 active torsions:
REMARK  status: ('A' for Active; 'I' for Inactive)
REMARK    1  A    between atoms: O_2  and  C_3 
REMARK    2  A    between atoms: C_6  and  C_7 
REMARK    3  A    between atoms: C_11  and  C_12 
REMARK       I    between atoms: C_12  and  N_13 
REMARK    4  A    between atoms: N_13  and  N_14 
REMARK       I    between atoms: N_14  and  C_15 
REMARK    5  A    between atoms: C_15  and  C_16 
REMARK    6  A    between atoms: C_17  and  C_18 
ROOT
HETATM    1  C   UNL     1      39.957 -15.572   2.336  1.00  0.00     0.288 C 
HETATM    2  N   UNL     1      40.080 -15.732   3.700  1.00  0.00    -0.262 N 
HETATM    3  O   UNL     1      40.462 -16.363   1.540  1.00  0.00    -0.264 OA
HETATM    4  H   UNL     1      39.674 -15.104   4.388  1.00  0.00     0.190 HD
ENDROOT
BRANCH   1   5
HETATM    5  C   UNL     1      39.211 -14.421   1.911  1.00  0.00     0.121 A 
HETATM    6  N   UNL     1      39.134 -13.294   2.679  1.00  0.00    -0.272 N 
HETATM    7  N   UNL     1      38.374 -12.322   2.156  1.00  0.00    -0.174 NA
HETATM    8  H   UNL     1      39.574 -13.141   3.581  1.00  0.00     0.189 HD
HETATM    9  C   UNL     1      37.942 -12.818   0.986  1.00  0.00     0.089 A 
HETATM   10  C   UNL     1      38.452 -14.134   0.793  1.00  0.00     0.071 A 
BRANCH   9  11
HETATM   11  C   UNL     1      37.052 -12.053   0.106  1.00  0.00    -0.005 A 
HETATM   12  C   UNL     1      37.290 -11.964  -1.271  1.00  0.00     0.016 A 
HETATM   13  C   UNL     1      36.415 -11.251  -2.099  1.00  0.00     0.037 A 
HETATM   14  C   UNL     1      35.289 -10.618  -1.572  1.00  0.00     0.068 A 
HETATM   15  C   UNL     1      35.052 -10.687  -0.201  1.00  0.00     0.037 A 
HETATM   16  C   UNL     1      35.928 -11.398   0.629  1.00  0.00     0.016 A 
BRANCH  14  17
HETATM   17  O   UNL     1      34.513  -9.969  -2.491  1.00  0.00    -0.356 OA
HETATM   18  C   UNL     1      34.214 -10.676  -3.689  1.00  0.00     0.210 C 
ENDBRANCH  14  17
ENDBRANCH   9  11
ENDBRANCH   1   5
BRANCH   2  19
HETATM   19  N   UNL     1      40.811 -16.815   4.192  1.00  0.00    -0.267 N 
HETATM   20  C   UNL     1      41.957 -16.562   4.909  1.00  0.00     0.240 C 
HETATM   21  O   UNL     1      42.354 -15.432   5.179  1.00  0.00    -0.271 OA
HETATM   22  H   UNL     1      40.519 -17.745   3.900  1.00  0.00     0.190 HD
BRANCH  20  23
HETATM   23  C   UNL     1      42.705 -17.778   5.321  1.00  0.00     0.089 A 
HETATM   24  C   UNL     1      43.972 -18.150   4.563  1.00  0.00     0.034 A 
HETATM   25  C   UNL     1      44.045 -17.675   5.996  1.00  0.00     0.025 A 
BRANCH  24  26
HETATM   26  C   UNL     1      44.208 -19.602   4.195  1.00  0.00    -0.031 A 
HETATM   27  C   UNL     1      44.035 -20.092   2.883  1.00  0.00     0.040 A 
HETATM   28 CL   UNL     1      43.522 -19.043   1.604  1.00  0.00    -0.084 Cl
HETATM   29  C   UNL     1      44.273 -21.432   2.563  1.00  0.00     0.024 A 
HETATM   30  C   UNL     1      44.699 -22.321   3.547  1.00  0.00     0.002 A 
HETATM   31  C   UNL     1      44.891 -21.866   4.846  1.00  0.00     0.001 A 
HETATM   32  C   UNL     1      44.655 -20.523   5.161  1.00  0.00     0.009 A 
ENDBRANCH  24  26
ENDBRANCH  20  23
ENDBRANCH   2  19
TORSDOF 6
ENDMDL
MODEL 8
REMARK VINA RESULT:      -8.0      8.282     12.851
REMARK  6 active torsions:
REMARK  status: ('A' for Active; 'I' for Inactive)
REMARK    1  A    between atoms: O_2  and  C_3 
REMARK    2  A    between atoms: C_6  and  C_7 
REMARK    3  A    between atoms: C_11  and  C_12 
REMARK       I    between atoms: C_12  and  N_13 
REMARK    4  A    between atoms: N_13  and  N_14 
REMARK       I    between atoms: N_14  and  C_15 
REMARK    5  A    between atoms: C_15  and  C_16 
REMARK    6  A    between atoms: C_17  and  C_18 
ROOT
HETATM    1  C   UNL     1      40.872 -14.267  -1.305  1.00  0.00     0.288 C 
HETATM    2  N   UNL     1      40.670 -15.557  -0.861  1.00  0.00    -0.262 N 
HETATM    3  O   UNL     1      41.951 -13.693  -1.165  1.00  0.00    -0.264 OA
HETATM    4  H   UNL     1      39.797 -16.066  -0.962  1.00  0.00     0.190 HD
ENDROOT
BRANCH   1   5
HETATM    5  C   UNL     1      39.742 -13.643  -1.933  1.00  0.00     0.121 A 
HETATM    6  N   UNL     1      39.308 -12.403  -1.558  1.00  0.00    -0.272 N 
HETATM    7  N   UNL     1      38.224 -11.976  -2.219  1.00  0.00    -0.174 NA
HETATM    8  H   UNL     1      39.713 -11.808  -0.842  1.00  0.00     0.189 HD
HETATM    9  C   UNL     1      37.934 -12.966  -3.079  1.00  0.00     0.089 A 
HETATM   10  C   UNL     1      38.871 -14.030  -2.933  1.00  0.00     0.071 A 
BRANCH   9  11
HETATM   11  C   UNL     1      36.784 -12.889  -3.985  1.00  0.00    -0.005 A 
HETATM   12  C   UNL     1      36.123 -11.677  -4.221  1.00  0.00     0.016 A 
HETATM   13  C   UNL     1      35.043 -11.619  -5.110  1.00  0.00     0.037 A 
HETATM   14  C   UNL     1      34.606 -12.762  -5.780  1.00  0.00     0.068 A 
HETATM   15  C   UNL     1      35.246 -13.975  -5.540  1.00  0.00     0.037 A 
HETATM   16  C   UNL     1      36.325 -14.036  -4.649  1.00  0.00     0.016 A 
BRANCH  14  17
HETATM   17  O   UNL     1      33.552 -12.562  -6.628  1.00  0.00    -0.356 OA
HETATM   18  C   UNL     1      32.725 -11.434  -6.366  1.00  0.00     0.210 C 
ENDBRANCH  14  17
ENDBRANCH   9  11
ENDBRANCH   1   5
BRANCH   2  19
HETATM   19  N   UNL     1      41.715 -16.223  -0.218  1.00  0.00    -0.267 N 
HETATM   20  C   UNL     1      41.699 -16.301   1.155  1.00  0.00     0.240 C 
HETATM   21  O   UNL     1      40.792 -15.852   1.850  1.00  0.00    -0.271 OA
HETATM   22  H   UNL     1      42.499 -16.524  -0.794  1.00  0.00     0.190 HD
BRANCH  20  23
HETATM   23  C   UNL     1      42.892 -16.960   1.747  1.00  0.00     0.089 A 
HETATM   24  C   UNL     1      42.829 -18.449   2.054  1.00  0.00     0.034 A 
HETATM   25  C   UNL     1      43.721 -17.929   0.951  1.00  0.00     0.025 A 
BRANCH  24  26
HETATM   26  C   UNL     1      43.400 -18.955   3.365  1.00  0.00    -0.031 A 
HETATM   27  C   UNL     1      42.810 -18.664   4.614  1.00  0.00     0.040 A 
HETATM   28 CL   UNL     1      41.385 -17.686   4.717  1.00  0.00    -0.084 Cl
HETATM   29  C   UNL     1      43.346 -19.153   5.810  1.00  0.00     0.024 A 
HETATM   30  C   UNL     1      44.486 -19.954   5.789  1.00  0.00     0.002 A 
HETATM   31  C   UNL     1      45.081 -20.269   4.574  1.00  0.00     0.001 A 
HETATM   32  C   UNL     1      44.540 -19.780   3.380  1.00  0.00     0.009 A 
ENDBRANCH  24  26
ENDBRANCH  20  23
ENDBRANCH   2  19
TORSDOF 6
ENDMDL
MODEL 9
REMARK VINA RESULT:      -7.8      4.903     11.775
REMARK  6 active torsions:
REMARK  status: ('A' for Active; 'I' for Inactive)
REMARK    1  A    between atoms: O_2  and  C_3 
REMARK    2  A    between atoms: C_6  and  C_7 
REMARK    3  A    between atoms: C_11  and  C_12 
REMARK       I    between atoms: C_12  and  N_13 
REMARK    4  A    between atoms: N_13  and  N_14 
REMARK       I    between atoms: N_14  and  C_15 
REMARK    5  A    between atoms: C_15  and  C_16 
REMARK    6  A    between atoms: C_17  and  C_18 
ROOT
HETATM    1  C   UNL     1      40.401 -13.379   5.701  1.00  0.00     0.288 C 
HETATM    2  N   UNL     1      39.297 -13.188   6.504  1.00  0.00    -0.262 N 
HETATM    3  O   UNL     1      41.540 -13.122   6.090  1.00  0.00    -0.264 OA
HETATM    4  H   UNL     1      38.342 -13.393   6.221  1.00  0.00     0.190 HD
ENDROOT
BRANCH   1   5
HETATM    5  C   UNL     1      40.132 -13.889   4.386  1.00  0.00     0.121 A 
HETATM    6  N   UNL     1      40.183 -15.227   4.112  1.00  0.00    -0.272 N 
HETATM    7  N   UNL     1      39.936 -15.537   2.832  1.00  0.00    -0.174 NA
HETATM    8  H   UNL     1      40.395 -15.974   4.766  1.00  0.00     0.189 HD
HETATM    9  C   UNL     1      39.697 -14.359   2.235  1.00  0.00     0.089 A 
HETATM   10  C   UNL     1      39.804 -13.299   3.181  1.00  0.00     0.071 A 
BRANCH   9  11
HETATM   11  C   UNL     1      39.400 -14.267   0.801  1.00  0.00    -0.005 A 
HETATM   12  C   UNL     1      38.133 -13.886   0.343  1.00  0.00     0.016 A 
HETATM   13  C   UNL     1      37.876 -13.779  -1.029  1.00  0.00     0.037 A 
HETATM   14  C   UNL     1      38.875 -14.045  -1.966  1.00  0.00     0.068 A 
HETATM   15  C   UNL     1      40.134 -14.440  -1.521  1.00  0.00     0.037 A 
HETATM   16  C   UNL     1      40.392 -14.550  -0.148  1.00  0.00     0.016 A 
BRANCH  14  17
HETATM   17  O   UNL     1      38.494 -13.889  -3.270  1.00  0.00    -0.356 OA
HETATM   18  C   UNL     1      37.654 -14.898  -3.816  1.00  0.00     0.210 C 
ENDBRANCH  14  17
ENDBRANCH   9  11
ENDBRANCH   1   5
BRANCH   2  19
HETATM   19  N   UNL     1      39.474 -12.672   7.789  1.00  0.00    -0.267 N 
HETATM   20  C   UNL     1      39.355 -11.315   7.974  1.00  0.00     0.240 C 
HETATM   21  O   UNL     1      39.059 -10.530   7.078  1.00  0.00    -0.271 OA
HETATM   22  H   UNL     1      39.793 -13.317   8.509  1.00  0.00     0.190 HD
BRANCH  20  23
HETATM   23  C   UNL     1      39.639 -10.857   9.359  1.00  0.00     0.089 A 
HETATM   24  C   UNL     1      40.609  -9.703   9.564  1.00  0.00     0.034 A 
HETATM   25  C   UNL     1      39.137  -9.530   9.857  1.00  0.00     0.025 A 
BRANCH  24  26
HETATM   26  C   UNL     1      41.635  -9.793  10.677  1.00  0.00    -0.031 A 
HETATM   27  C   UNL     1      42.888 -10.421  10.508  1.00  0.00     0.040 A 
HETATM   28 CL   UNL     1      43.321 -11.144   8.996  1.00  0.00    -0.084 Cl
HETATM   29  C   UNL     1      43.825 -10.480  11.545  1.00  0.00     0.024 A 
HETATM   30  C   UNL     1      43.537  -9.906  12.781  1.00  0.00     0.002 A 
HETATM   31  C   UNL     1      42.317  -9.269  12.974  1.00  0.00     0.001 A 
HETATM   32  C   UNL     1      41.384  -9.209  11.933  1.00  0.00     0.009 A 
ENDBRANCH  24  26
ENDBRANCH  20  23
ENDBRANCH   2  19
TORSDOF 6
ENDMDL
MODEL 10
REMARK VINA RESULT:      -7.7      4.155     11.100
REMARK  6 active torsions:
REMARK  status: ('A' for Active; 'I' for Inactive)
REMARK    1  A    between atoms: O_2  and  C_3 
REMARK    2  A    between atoms: C_6  and  C_7 
REMARK    3  A    between atoms: C_11  and  C_12 
REMARK       I    between atoms: C_12  and  N_13 
REMARK    4  A    between atoms: N_13  and  N_14 
REMARK       I    between atoms: N_14  and  C_15 
REMARK    5  A    between atoms: C_15  and  C_16 
REMARK    6  A    between atoms: C_17  and  C_18 
ROOT
HETATM    1  C   UNL     1      42.184 -13.010   4.809  1.00  0.00     0.288 C 
HETATM    2  N   UNL     1      41.888 -13.045   6.156  1.00  0.00    -0.262 N 
HETATM    3  O   UNL     1      42.052 -11.985   4.142  1.00  0.00    -0.264 OA
HETATM    4  H   UNL     1      41.989 -13.869   6.742  1.00  0.00     0.190 HD
ENDROOT
BRANCH   1   5
HETATM    5  C   UNL     1      42.646 -14.245   4.243  1.00  0.00     0.121 A 
HETATM    6  N   UNL     1      42.846 -14.387   2.899  1.00  0.00    -0.272 N 
HETATM    7  N   UNL     1      43.249 -15.610   2.528  1.00  0.00    -0.174 NA
HETATM    8  H   UNL     1      42.709 -13.678   2.185  1.00  0.00     0.189 HD
HETATM    9  C   UNL     1      43.334 -16.305   3.674  1.00  0.00     0.089 A 
HETATM   10  C   UNL     1      42.969 -15.478   4.776  1.00  0.00     0.071 A 
BRANCH   9  11
HETATM   11  C   UNL     1      43.731 -17.716   3.692  1.00  0.00    -0.005 A 
HETATM   12  C   UNL     1      43.997 -18.383   4.894  1.00  0.00     0.016 A 
HETATM   13  C   UNL     1      44.350 -19.737   4.892  1.00  0.00     0.037 A 
HETATM   14  C   UNL     1      44.439 -20.452   3.697  1.00  0.00     0.068 A 
HETATM   15  C   UNL     1      44.191 -19.794   2.494  1.00  0.00     0.037 A 
HETATM   16  C   UNL     1      43.841 -18.438   2.494  1.00  0.00     0.016 A 
BRANCH  14  17
HETATM   17  O   UNL     1      44.778 -21.769   3.840  1.00  0.00    -0.356 OA
HETATM   18  C   UNL     1      45.051 -22.219   5.161  1.00  0.00     0.210 C 
ENDBRANCH  14  17
ENDBRANCH   9  11
ENDBRANCH   1   5
BRANCH   2  19
HETATM   19  N   UNL     1      41.411 -11.889   6.775  1.00  0.00    -0.267 N 
HETATM   20  C   UNL     1      40.060 -11.779   7.007  1.00  0.00     0.240 C 
HETATM   21  O   UNL     1      39.250 -12.661   6.738  1.00  0.00    -0.271 OA
HETATM   22  H   UNL     1      42.075 -11.133   6.925  1.00  0.00     0.190 HD
BRANCH  20  23
HETATM   23  C   UNL     1      39.642 -10.480   7.598  1.00  0.00     0.089 A 
HETATM   24  C   UNL     1      40.331  -9.997   8.866  1.00  0.00     0.034 A 
HETATM   25  C   UNL     1      40.545  -9.279   7.554  1.00  0.00     0.025 A 
BRANCH  24  26
HETATM   26  C   UNL     1      39.492  -9.392   9.975  1.00  0.00    -0.031 A 
HETATM   27  C   UNL     1      39.424  -9.951  11.268  1.00  0.00     0.040 A 
HETATM   28 CL   UNL     1      40.302 -11.391  11.661  1.00  0.00    -0.084 Cl
HETATM   29  C   UNL     1      38.654  -9.368  12.281  1.00  0.00     0.024 A 
HETATM   30  C   UNL     1      37.935  -8.203  12.027  1.00  0.00     0.002 A 
HETATM   31  C   UNL     1      37.992  -7.621  10.767  1.00  0.00     0.001 A 
HETATM   32  C   UNL     1      38.765  -8.206   9.758  1.00  0.00     0.009 A 
ENDBRANCH  24  26
ENDBRANCH  20  23
ENDBRANCH   2  19
TORSDOF 6
ENDMDL
