MODEL 1
REMARK VINA RESULT:      -7.9      0.000      0.000
REMARK  5 active torsions:
REMARK  status: ('A' for Active; 'I' for Inactive)
REMARK    1  A    between atoms: C_3  and  N_4 
REMARK       I    between atoms: N_4  and  C_5 
REMARK       I    between atoms: C_5  and  N_6 
REMARK    2  A    between atoms: N_6  and  C_7 
REMARK    3  A    between atoms: C_7  and  C_8 
REMARK    4  A    between atoms: C_20  and  C_21 
REMARK       I    between atoms: C_21  and  N_22 
REMARK    5  A    between atoms: N_22  and  C_23 
ROOT
HETATM    1  C   UNL     1      43.591 -13.799   4.645  1.00  0.00     0.052 C 
HETATM    2  C   UNL     1      43.347 -14.986   5.547  1.00  0.00    -0.020 A 
HETATM    3  C   UNL     1      44.007 -15.099   6.798  1.00  0.00     0.043 A 
HETATM    4  C   UNL     1      43.680 -16.163   7.649  1.00  0.00     0.030 A 
HETATM    5  C   UNL     1      42.709 -17.102   7.289  1.00  0.00     0.003 A 
HETATM    6  C   UNL     1      42.097 -17.029   6.045  1.00  0.00     0.018 A 
HETATM    7  C   UNL     1      42.439 -16.001   5.161  1.00  0.00     0.040 A 
ENDROOT
BRANCH   3   8
HETATM    8  N   UNL     1      45.032 -14.174   7.093  1.00  0.00    -0.309 N 
HETATM    9  C   UNL     1      45.154 -13.123   7.942  1.00  0.00     0.321 C 
HETATM   10  N   UNL     1      44.033 -12.581   8.481  1.00  0.00    -0.338 N 
HETATM   11  O   UNL     1      46.279 -12.680   8.166  1.00  0.00    -0.247 OA
HETATM   12  H   UNL     1      43.233 -12.575   7.865  1.00  0.00     0.164 HD
HETATM   13  H   UNL     1      45.935 -14.358   6.676  1.00  0.00     0.170 HD
BRANCH  10  14
HETATM   14  C   UNL     1      44.173 -11.430   9.345  1.00  0.00     0.167 C 
BRANCH  14  15
HETATM   15  C   UNL     1      42.841 -11.037   9.874  1.00  0.00     0.009 A 
HETATM   16  C   UNL     1      41.757 -10.469   9.146  1.00  0.00     0.060 A 
HETATM   17  C   UNL     1      41.694 -10.147   7.698  1.00  0.00     0.073 C 
HETATM   18  N   UNL     1      40.708 -10.210   9.934  1.00  0.00    -0.179 NA
HETATM   19  N   UNL     1      41.116 -10.578  11.155  1.00  0.00    -0.282 N 
HETATM   20  H   UNL     1      40.476 -10.449  11.932  1.00  0.00     0.189 HD
HETATM   21  C   UNL     1      42.388 -11.076  11.183  1.00  0.00     0.034 A 
HETATM   22  C   UNL     1      43.029 -11.517  12.443  1.00  0.00     0.070 C 
ENDBRANCH  14  15
ENDBRANCH  10  14
ENDBRANCH   3   8
BRANCH   7  23
HETATM   23  C   UNL     1      41.833 -16.076   3.801  1.00  0.00     0.252 C 
HETATM   24  N   UNL     1      42.653 -16.632   2.841  1.00  0.00    -0.349 N 
HETATM   25  H   UNL     1      43.493 -17.089   3.176  1.00  0.00     0.163 HD
HETATM   26  O   UNL     1      40.679 -15.715   3.627  1.00  0.00    -0.268 OA
BRANCH  24  27
HETATM   27  C   UNL     1      42.268 -16.905   1.448  1.00  0.00     0.022 C 
HETATM   28  C   UNL     1      41.981 -15.607   0.675  1.00  0.00     0.037 C 
HETATM   29  C   UNL     1      43.453 -17.613   0.765  1.00  0.00     0.037 C 
HETATM   30  C   UNL     1      41.045 -17.829   1.403  1.00  0.00     0.037 C 
ENDBRANCH  24  27
ENDBRANCH   7  23
TORSDOF 5
ENDMDL
MODEL 2
REMARK VINA RESULT:      -7.8      5.450      8.108
REMARK  5 active torsions:
REMARK  status: ('A' for Active; 'I' for Inactive)
REMARK    1  A    between atoms: C_3  and  N_4 
REMARK       I    between atoms: N_4  and  C_5 
REMARK       I    between atoms: C_5  and  N_6 
REMARK    2  A    between atoms: N_6  and  C_7 
REMARK    3  A    between atoms: C_7  and  C_8 
REMARK    4  A    between atoms: C_20  and  C_21 
REMARK       I    between atoms: C_21  and  N_22 
REMARK    5  A    between atoms: N_22  and  C_23 
ROOT
HETATM    1  C   UNL     1      41.033 -16.717   0.821  1.00  0.00     0.052 C 
HETATM    2  C   UNL     1      40.519 -15.417   1.396  1.00  0.00    -0.020 A 
HETATM    3  C   UNL     1      40.257 -15.287   2.784  1.00  0.00     0.043 A 
HETATM    4  C   UNL     1      39.877 -14.038   3.292  1.00  0.00     0.030 A 
HETATM    5  C   UNL     1      39.764 -12.923   2.458  1.00  0.00     0.003 A 
HETATM    6  C   UNL     1      39.967 -13.053   1.090  1.00  0.00     0.018 A 
HETATM    7  C   UNL     1      40.304 -14.300   0.553  1.00  0.00     0.040 A 
ENDROOT
BRANCH   3   8
HETATM    8  N   UNL     1      40.311 -16.451   3.581  1.00  0.00    -0.309 N 
HETATM    9  C   UNL     1      41.276 -17.065   4.310  1.00  0.00     0.321 C 
HETATM   10  N   UNL     1      42.574 -16.735   4.091  1.00  0.00    -0.338 N 
HETATM   11  O   UNL     1      40.937 -17.923   5.123  1.00  0.00    -0.247 OA
HETATM   12  H   UNL     1      42.796 -16.529   3.128  1.00  0.00     0.164 HD
HETATM   13  H   UNL     1      39.428 -16.910   3.764  1.00  0.00     0.170 HD
BRANCH  10  14
HETATM   14  C   UNL     1      43.596 -17.433   4.838  1.00  0.00     0.167 C 
BRANCH  14  15
HETATM   15  C   UNL     1      43.999 -18.663   4.108  1.00  0.00     0.009 A 
HETATM   16  C   UNL     1      44.274 -19.945   4.663  1.00  0.00     0.060 A 
HETATM   17  C   UNL     1      44.213 -20.359   6.087  1.00  0.00     0.073 C 
HETATM   18  N   UNL     1      44.636 -20.827   3.725  1.00  0.00    -0.179 NA
HETATM   19  N   UNL     1      44.624 -20.121   2.588  1.00  0.00    -0.282 N 
HETATM   20  H   UNL     1      44.892 -20.592   1.730  1.00  0.00     0.189 HD
HETATM   21  C   UNL     1      44.256 -18.816   2.754  1.00  0.00     0.034 A 
HETATM   22  C   UNL     1      44.201 -17.866   1.619  1.00  0.00     0.070 C 
ENDBRANCH  14  15
ENDBRANCH  10  14
ENDBRANCH   3   8
BRANCH   7  23
HETATM   23  C   UNL     1      40.372 -14.378  -0.934  1.00  0.00     0.252 C 
HETATM   24  N   UNL     1      39.165 -14.644  -1.547  1.00  0.00    -0.349 N 
HETATM   25  H   UNL     1      38.340 -14.583  -0.963  1.00  0.00     0.163 HD
HETATM   26  O   UNL     1      41.426 -14.154  -1.509  1.00  0.00    -0.268 OA
BRANCH  24  27
HETATM   27  C   UNL     1      38.940 -14.682  -2.999  1.00  0.00     0.022 C 
HETATM   28  C   UNL     1      39.711 -15.834  -3.663  1.00  0.00     0.037 C 
HETATM   29  C   UNL     1      37.436 -14.919  -3.234  1.00  0.00     0.037 C 
HETATM   30  C   UNL     1      39.335 -13.344  -3.637  1.00  0.00     0.037 C 
ENDBRANCH  24  27
ENDBRANCH   7  23
TORSDOF 5
ENDMDL
MODEL 3
REMARK VINA RESULT:      -7.7      4.848      9.060
REMARK  5 active torsions:
REMARK  status: ('A' for Active; 'I' for Inactive)
REMARK    1  A    between atoms: C_3  and  N_4 
REMARK       I    between atoms: N_4  and  C_5 
REMARK       I    between atoms: C_5  and  N_6 
REMARK    2  A    between atoms: N_6  and  C_7 
REMARK    3  A    between atoms: C_7  and  C_8 
REMARK    4  A    between atoms: C_20  and  C_21 
REMARK       I    between atoms: C_21  and  N_22 
REMARK    5  A    between atoms: N_22  and  C_23 
ROOT
HETATM    1  C   UNL     1      40.787 -15.031   4.332  1.00  0.00     0.052 C 
HETATM    2  C   UNL     1      41.170 -16.170   3.415  1.00  0.00    -0.020 A 
HETATM    3  C   UNL     1      40.424 -16.441   2.239  1.00  0.00     0.043 A 
HETATM    4  C   UNL     1      40.869 -17.442   1.365  1.00  0.00     0.030 A 
HETATM    5  C   UNL     1      42.036 -18.164   1.628  1.00  0.00     0.003 A 
HETATM    6  C   UNL     1      42.742 -17.941   2.803  1.00  0.00     0.018 A 
HETATM    7  C   UNL     1      42.294 -16.978   3.712  1.00  0.00     0.040 A 
ENDROOT
BRANCH   3   8
HETATM    8  N   UNL     1      39.213 -15.742   2.046  1.00  0.00    -0.309 N 
HETATM    9  C   UNL     1      38.801 -14.760   1.205  1.00  0.00     0.321 C 
HETATM   10  N   UNL     1      39.733 -14.026   0.547  1.00  0.00    -0.338 N 
HETATM   11  O   UNL     1      37.594 -14.551   1.097  1.00  0.00    -0.247 OA
HETATM   12  H   UNL     1      40.575 -13.847   1.075  1.00  0.00     0.164 HD
HETATM   13  H   UNL     1      38.410 -16.086   2.556  1.00  0.00     0.170 HD
BRANCH  10  14
HETATM   14  C   UNL     1      39.284 -12.949  -0.307  1.00  0.00     0.167 C 
BRANCH  14  15
HETATM   15  C   UNL     1      39.748 -13.186  -1.699  1.00  0.00     0.009 A 
HETATM   16  C   UNL     1      40.979 -12.767  -2.280  1.00  0.00     0.060 A 
HETATM   17  C   UNL     1      42.084 -12.011  -1.640  1.00  0.00     0.073 C 
HETATM   18  N   UNL     1      41.070 -13.125  -3.566  1.00  0.00    -0.179 NA
HETATM   19  N   UNL     1      39.908 -13.740  -3.819  1.00  0.00    -0.282 N 
HETATM   20  H   UNL     1      39.744 -14.084  -4.760  1.00  0.00     0.189 HD
HETATM   21  C   UNL     1      39.072 -13.802  -2.740  1.00  0.00     0.034 A 
HETATM   22  C   UNL     1      37.731 -14.424  -2.823  1.00  0.00     0.070 C 
ENDBRANCH  14  15
ENDBRANCH  10  14
ENDBRANCH   3   8
BRANCH   7  23
HETATM   23  C   UNL     1      43.034 -16.899   5.003  1.00  0.00     0.252 C 
HETATM   24  N   UNL     1      43.097 -18.089   5.699  1.00  0.00    -0.349 N 
HETATM   25  H   UNL     1      42.803 -18.918   5.199  1.00  0.00     0.163 HD
HETATM   26  O   UNL     1      43.571 -15.853   5.335  1.00  0.00    -0.268 OA
BRANCH  24  27
HETATM   27  C   UNL     1      43.841 -18.304   6.948  1.00  0.00     0.022 C 
HETATM   28  C   UNL     1      43.296 -17.432   8.091  1.00  0.00     0.037 C 
HETATM   29  C   UNL     1      43.663 -19.781   7.350  1.00  0.00     0.037 C 
HETATM   30  C   UNL     1      45.335 -18.025   6.736  1.00  0.00     0.037 C 
ENDBRANCH  24  27
ENDBRANCH   7  23
TORSDOF 5
ENDMDL
MODEL 4
REMARK VINA RESULT:      -7.2      4.967      7.455
REMARK  5 active torsions:
REMARK  status: ('A' for Active; 'I' for Inactive)
REMARK    1  A    between atoms: C_3  and  N_4 
REMARK       I    between atoms: N_4  and  C_5 
REMARK       I    between atoms: C_5  and  N_6 
REMARK    2  A    between atoms: N_6  and  C_7 
REMARK    3  A    between atoms: C_7  and  C_8 
REMARK    4  A    between atoms: C_20  and  C_21 
REMARK       I    between atoms: C_21  and  N_22 
REMARK    5  A    between atoms: N_22  and  C_23 
ROOT
HETATM    1  C   UNL     1      40.541 -16.199   1.438  1.00  0.00     0.052 C 
HETATM    2  C   UNL     1      40.166 -14.871   2.053  1.00  0.00    -0.020 A 
HETATM    3  C   UNL     1      40.126 -14.704   3.461  1.00  0.00     0.043 A 
HETATM    4  C   UNL     1      39.870 -13.432   3.991  1.00  0.00     0.030 A 
HETATM    5  C   UNL     1      39.666 -12.330   3.156  1.00  0.00     0.003 A 
HETATM    6  C   UNL     1      39.650 -12.495   1.778  1.00  0.00     0.018 A 
HETATM    7  C   UNL     1      39.859 -13.763   1.226  1.00  0.00     0.040 A 
ENDROOT
BRANCH   3   8
HETATM    8  N   UNL     1      40.265 -15.854   4.269  1.00  0.00    -0.309 N 
HETATM    9  C   UNL     1      41.310 -16.485   4.860  1.00  0.00     0.321 C 
HETATM   10  N   UNL     1      42.569 -16.203   4.440  1.00  0.00    -0.338 N 
HETATM   11  O   UNL     1      41.073 -17.315   5.735  1.00  0.00    -0.247 OA
HETATM   12  H   UNL     1      42.649 -16.023   3.450  1.00  0.00     0.164 HD
HETATM   13  H   UNL     1      39.407 -16.279   4.594  1.00  0.00     0.170 HD
BRANCH  10  14
HETATM   14  C   UNL     1      43.671 -16.920   5.042  1.00  0.00     0.167 C 
BRANCH  14  15
HETATM   15  C   UNL     1      43.952 -18.153   4.262  1.00  0.00     0.009 A 
HETATM   16  C   UNL     1      44.107 -18.265   2.851  1.00  0.00     0.060 A 
HETATM   17  C   UNL     1      44.037 -17.187   1.833  1.00  0.00     0.073 C 
HETATM   18  N   UNL     1      44.327 -19.528   2.472  1.00  0.00    -0.179 NA
HETATM   19  N   UNL     1      44.287 -20.225   3.614  1.00  0.00    -0.282 N 
HETATM   20  H   UNL     1      44.411 -21.232   3.565  1.00  0.00     0.189 HD
HETATM   21  C   UNL     1      44.060 -19.457   4.720  1.00  0.00     0.034 A 
HETATM   22  C   UNL     1      43.960 -20.044   6.076  1.00  0.00     0.070 C 
ENDBRANCH  14  15
ENDBRANCH  10  14
ENDBRANCH   3   8
BRANCH   7  23
HETATM   23  C   UNL     1      39.693 -13.872  -0.251  1.00  0.00     0.252 C 
HETATM   24  N   UNL     1      40.854 -13.684  -0.972  1.00  0.00    -0.349 N 
HETATM   25  H   UNL     1      41.716 -13.670  -0.441  1.00  0.00     0.163 HD
HETATM   26  O   UNL     1      38.605 -14.167  -0.722  1.00  0.00    -0.268 OA
BRANCH  24  27
HETATM   27  C   UNL     1      40.982 -13.828  -2.430  1.00  0.00     0.022 C 
HETATM   28  C   UNL     1      39.890 -13.043  -3.175  1.00  0.00     0.037 C 
HETATM   29  C   UNL     1      42.349 -13.246  -2.839  1.00  0.00     0.037 C 
HETATM   30  C   UNL     1      40.935 -15.309  -2.827  1.00  0.00     0.037 C 
ENDBRANCH  24  27
ENDBRANCH   7  23
TORSDOF 5
ENDMDL
MODEL 5
REMARK VINA RESULT:      -7.1      4.326      9.623
REMARK  5 active torsions:
REMARK  status: ('A' for Active; 'I' for Inactive)
REMARK    1  A    between atoms: C_3  and  N_4 
REMARK       I    between atoms: N_4  and  C_5 
REMARK       I    between atoms: C_5  and  N_6 
REMARK    2  A    between atoms: N_6  and  C_7 
REMARK    3  A    between atoms: C_7  and  C_8 
REMARK    4  A    between atoms: C_20  and  C_21 
REMARK       I    between atoms: C_21  and  N_22 
REMARK    5  A    between atoms: N_22  and  C_23 
ROOT
HETATM    1  C   UNL     1      42.983 -13.931   3.070  1.00  0.00     0.052 C 
HETATM    2  C   UNL     1      42.284 -15.118   2.450  1.00  0.00    -0.020 A 
HETATM    3  C   UNL     1      41.913 -15.113   1.081  1.00  0.00     0.043 A 
HETATM    4  C   UNL     1      41.356 -16.269   0.520  1.00  0.00     0.030 A 
HETATM    5  C   UNL     1      41.172 -17.425   1.284  1.00  0.00     0.003 A 
HETATM    6  C   UNL     1      41.483 -17.422   2.637  1.00  0.00     0.018 A 
HETATM    7  C   UNL     1      42.000 -16.265   3.229  1.00  0.00     0.040 A 
ENDROOT
BRANCH   3   8
HETATM    8  N   UNL     1      42.047 -13.904   0.362  1.00  0.00    -0.309 N 
HETATM    9  C   UNL     1      41.781 -13.516  -0.909  1.00  0.00     0.321 C 
HETATM   10  N   UNL     1      41.597 -14.465  -1.861  1.00  0.00    -0.338 N 
HETATM   11  O   UNL     1      41.749 -12.312  -1.158  1.00  0.00    -0.247 OA
HETATM   12  H   UNL     1      42.172 -15.287  -1.749  1.00  0.00     0.164 HD
HETATM   13  H   UNL     1      42.297 -13.087   0.903  1.00  0.00     0.170 HD
BRANCH  10  14
HETATM   14  C   UNL     1      41.364 -14.038  -3.223  1.00  0.00     0.167 C 
BRANCH  14  15
HETATM   15  C   UNL     1      39.903 -13.972  -3.484  1.00  0.00     0.009 A 
HETATM   16  C   UNL     1      39.022 -15.062  -3.740  1.00  0.00     0.060 A 
HETATM   17  C   UNL     1      39.347 -16.509  -3.795  1.00  0.00     0.073 C 
HETATM   18  N   UNL     1      37.769 -14.649  -3.960  1.00  0.00    -0.179 NA
HETATM   19  N   UNL     1      37.844 -13.315  -3.875  1.00  0.00    -0.282 N 
HETATM   20  H   UNL     1      36.996 -12.778  -4.032  1.00  0.00     0.189 HD
HETATM   21  C   UNL     1      39.097 -12.850  -3.599  1.00  0.00     0.034 A 
HETATM   22  C   UNL     1      39.390 -11.403  -3.486  1.00  0.00     0.070 C 
ENDBRANCH  14  15
ENDBRANCH  10  14
ENDBRANCH   3   8
BRANCH   7  23
HETATM   23  C   UNL     1      42.178 -16.309   4.708  1.00  0.00     0.252 C 
HETATM   24  N   UNL     1      43.384 -16.836   5.123  1.00  0.00    -0.349 N 
HETATM   25  H   UNL     1      44.086 -16.972   4.406  1.00  0.00     0.163 HD
HETATM   26  O   UNL     1      41.318 -15.843   5.440  1.00  0.00    -0.268 OA
BRANCH  24  27
HETATM   27  C   UNL     1      43.846 -16.908   6.517  1.00  0.00     0.022 C 
HETATM   28  C   UNL     1      42.784 -17.537   7.434  1.00  0.00     0.037 C 
HETATM   29  C   UNL     1      45.096 -17.807   6.550  1.00  0.00     0.037 C 
HETATM   30  C   UNL     1      44.226 -15.512   7.027  1.00  0.00     0.037 C 
ENDBRANCH  24  27
ENDBRANCH   7  23
TORSDOF 5
ENDMDL
MODEL 6
REMARK VINA RESULT:      -7.1      4.692      7.318
REMARK  5 active torsions:
REMARK  status: ('A' for Active; 'I' for Inactive)
REMARK    1  A    between atoms: C_3  and  N_4 
REMARK       I    between atoms: N_4  and  C_5 
REMARK       I    between atoms: C_5  and  N_6 
REMARK    2  A    between atoms: N_6  and  C_7 
REMARK    3  A    between atoms: C_7  and  C_8 
REMARK    4  A    between atoms: C_20  and  C_21 
REMARK       I    between atoms: C_21  and  N_22 
REMARK    5  A    between atoms: N_22  and  C_23 
ROOT
HETATM    1  C   UNL     1      40.780 -15.137   4.275  1.00  0.00     0.052 C 
HETATM    2  C   UNL     1      41.176 -16.253   3.337  1.00  0.00    -0.020 A 
HETATM    3  C   UNL     1      40.433 -16.510   2.155  1.00  0.00     0.043 A 
HETATM    4  C   UNL     1      40.889 -17.488   1.262  1.00  0.00     0.030 A 
HETATM    5  C   UNL     1      42.064 -18.203   1.511  1.00  0.00     0.003 A 
HETATM    6  C   UNL     1      42.767 -17.995   2.690  1.00  0.00     0.018 A 
HETATM    7  C   UNL     1      42.308 -17.055   3.618  1.00  0.00     0.040 A 
ENDROOT
BRANCH   3   8
HETATM    8  N   UNL     1      39.215 -15.820   1.975  1.00  0.00    -0.309 N 
HETATM    9  C   UNL     1      38.855 -14.660   1.370  1.00  0.00     0.321 C 
HETATM   10  N   UNL     1      39.815 -13.749   1.073  1.00  0.00    -0.338 N 
HETATM   11  O   UNL     1      37.662 -14.465   1.143  1.00  0.00    -0.247 OA
HETATM   12  H   UNL     1      40.563 -13.694   1.749  1.00  0.00     0.164 HD
HETATM   13  H   UNL     1      38.376 -16.312   2.252  1.00  0.00     0.170 HD
BRANCH  10  14
HETATM   14  C   UNL     1      39.413 -12.496   0.475  1.00  0.00     0.167 C 
BRANCH  14  15
HETATM   15  C   UNL     1      40.034 -11.366   1.214  1.00  0.00     0.009 A 
HETATM   16  C   UNL     1      39.491 -10.663   2.328  1.00  0.00     0.060 A 
HETATM   17  C   UNL     1      38.196 -10.893   3.015  1.00  0.00     0.073 C 
HETATM   18  N   UNL     1      40.301  -9.681   2.739  1.00  0.00    -0.179 NA
HETATM   19  N   UNL     1      41.335  -9.730   1.890  1.00  0.00    -0.282 N 
HETATM   20  H   UNL     1      42.078  -9.048   2.001  1.00  0.00     0.189 HD
HETATM   21  C   UNL     1      41.229 -10.716   0.950  1.00  0.00     0.034 A 
HETATM   22  C   UNL     1      42.261 -10.920  -0.092  1.00  0.00     0.070 C 
ENDBRANCH  14  15
ENDBRANCH  10  14
ENDBRANCH   3   8
BRANCH   7  23
HETATM   23  C   UNL     1      43.047 -16.993   4.911  1.00  0.00     0.252 C 
HETATM   24  N   UNL     1      43.083 -18.185   5.605  1.00  0.00    -0.349 N 
HETATM   25  H   UNL     1      42.773 -19.008   5.103  1.00  0.00     0.163 HD
HETATM   26  O   UNL     1      43.605 -15.960   5.246  1.00  0.00    -0.268 OA
BRANCH  24  27
HETATM   27  C   UNL     1      43.820 -18.418   6.856  1.00  0.00     0.022 C 
HETATM   28  C   UNL     1      45.306 -18.046   6.717  1.00  0.00     0.037 C 
HETATM   29  C   UNL     1      43.203 -17.513   7.939  1.00  0.00     0.037 C 
HETATM   30  C   UNL     1      43.680 -19.881   7.295  1.00  0.00     0.037 C 
ENDBRANCH  24  27
ENDBRANCH   7  23
TORSDOF 5
ENDMDL
MODEL 7
REMARK VINA RESULT:      -7.1      4.916      8.571
REMARK  5 active torsions:
REMARK  status: ('A' for Active; 'I' for Inactive)
REMARK    1  A    between atoms: C_3  and  N_4 
REMARK       I    between atoms: N_4  and  C_5 
REMARK       I    between atoms: C_5  and  N_6 
REMARK    2  A    between atoms: N_6  and  C_7 
REMARK    3  A    between atoms: C_7  and  C_8 
REMARK    4  A    between atoms: C_20  and  C_21 
REMARK       I    between atoms: C_21  and  N_22 
REMARK    5  A    between atoms: N_22  and  C_23 
ROOT
HETATM    1  C   UNL     1      43.127 -15.873   2.432  1.00  0.00     0.052 C 
HETATM    2  C   UNL     1      42.134 -15.208   3.355  1.00  0.00    -0.020 A 
HETATM    3  C   UNL     1      41.699 -13.878   3.122  1.00  0.00     0.043 A 
HETATM    4  C   UNL     1      40.704 -13.331   3.943  1.00  0.00     0.030 A 
HETATM    5  C   UNL     1      40.130 -14.077   4.976  1.00  0.00     0.003 A 
HETATM    6  C   UNL     1      40.587 -15.360   5.245  1.00  0.00     0.018 A 
HETATM    7  C   UNL     1      41.610 -15.912   4.466  1.00  0.00     0.040 A 
ENDROOT
BRANCH   3   8
HETATM    8  N   UNL     1      42.355 -13.132   2.118  1.00  0.00    -0.309 N 
HETATM    9  C   UNL     1      41.960 -12.518   0.975  1.00  0.00     0.321 C 
HETATM   10  N   UNL     1      40.759 -12.843   0.436  1.00  0.00    -0.338 N 
HETATM   11  O   UNL     1      42.725 -11.709   0.452  1.00  0.00    -0.247 OA
HETATM   12  H   UNL     1      40.503 -13.814   0.539  1.00  0.00     0.164 HD
HETATM   13  H   UNL     1      43.319 -12.886   2.300  1.00  0.00     0.170 HD
BRANCH  10  14
HETATM   14  C   UNL     1      40.372 -12.219  -0.810  1.00  0.00     0.167 C 
BRANCH  14  15
HETATM   15  C   UNL     1      40.420 -13.220  -1.908  1.00  0.00     0.009 A 
HETATM   16  C   UNL     1      41.531 -13.531  -2.743  1.00  0.00     0.060 A 
HETATM   17  C   UNL     1      42.894 -12.946  -2.711  1.00  0.00     0.073 C 
HETATM   18  N   UNL     1      41.226 -14.465  -3.650  1.00  0.00    -0.179 NA
HETATM   19  N   UNL     1      39.933 -14.733  -3.424  1.00  0.00    -0.282 N 
HETATM   20  H   UNL     1      39.475 -15.414  -4.021  1.00  0.00     0.189 HD
HETATM   21  C   UNL     1      39.394 -14.013  -2.396  1.00  0.00     0.034 A 
HETATM   22  C   UNL     1      37.973 -14.151  -2.004  1.00  0.00     0.070 C 
ENDBRANCH  14  15
ENDBRANCH  10  14
ENDBRANCH   3   8
BRANCH   7  23
HETATM   23  C   UNL     1      42.129 -17.237   4.907  1.00  0.00     0.252 C 
HETATM   24  N   UNL     1      43.404 -17.205   5.432  1.00  0.00    -0.349 N 
HETATM   25  H   UNL     1      43.786 -16.289   5.631  1.00  0.00     0.163 HD
HETATM   26  O   UNL     1      41.413 -18.225   4.841  1.00  0.00    -0.268 OA
BRANCH  24  27
HETATM   27  C   UNL     1      44.110 -18.352   6.021  1.00  0.00     0.022 C 
HETATM   28  C   UNL     1      44.270 -19.500   5.010  1.00  0.00     0.037 C 
HETATM   29  C   UNL     1      45.518 -17.877   6.428  1.00  0.00     0.037 C 
HETATM   30  C   UNL     1      43.375 -18.848   7.272  1.00  0.00     0.037 C 
ENDBRANCH  24  27
ENDBRANCH   7  23
TORSDOF 5
ENDMDL
MODEL 8
REMARK VINA RESULT:      -7.1      5.180      9.096
REMARK  5 active torsions:
REMARK  status: ('A' for Active; 'I' for Inactive)
REMARK    1  A    between atoms: C_3  and  N_4 
REMARK       I    between atoms: N_4  and  C_5 
REMARK       I    between atoms: C_5  and  N_6 
REMARK    2  A    between atoms: N_6  and  C_7 
REMARK    3  A    between atoms: C_7  and  C_8 
REMARK    4  A    between atoms: C_20  and  C_21 
REMARK       I    between atoms: C_21  and  N_22 
REMARK    5  A    between atoms: N_22  and  C_23 
ROOT
HETATM    1  C   UNL     1      39.007 -15.547   1.821  1.00  0.00     0.052 C 
HETATM    2  C   UNL     1      39.711 -14.459   2.598  1.00  0.00    -0.020 A 
HETATM    3  C   UNL     1      39.312 -13.103   2.480  1.00  0.00     0.043 A 
HETATM    4  C   UNL     1      39.924 -12.138   3.291  1.00  0.00     0.030 A 
HETATM    5  C   UNL     1      40.909 -12.492   4.216  1.00  0.00     0.003 A 
HETATM    6  C   UNL     1      41.343 -13.808   4.301  1.00  0.00     0.018 A 
HETATM    7  C   UNL     1      40.778 -14.782   3.471  1.00  0.00     0.040 A 
ENDROOT
BRANCH   3   8
HETATM    8  N   UNL     1      38.367 -12.774   1.483  1.00  0.00    -0.309 N 
HETATM    9  C   UNL     1      38.425 -12.569   0.144  1.00  0.00     0.321 C 
HETATM   10  N   UNL     1      39.631 -12.339  -0.433  1.00  0.00    -0.338 N 
HETATM   11  O   UNL     1      37.373 -12.568  -0.494  1.00  0.00    -0.247 OA
HETATM   12  H   UNL     1      40.272 -11.804   0.135  1.00  0.00     0.164 HD
HETATM   13  H   UNL     1      37.396 -12.785   1.766  1.00  0.00     0.170 HD
BRANCH  10  14
HETATM   14  C   UNL     1      39.674 -12.071  -1.854  1.00  0.00     0.167 C 
BRANCH  14  15
HETATM   15  C   UNL     1      40.462 -13.129  -2.539  1.00  0.00     0.009 A 
HETATM   16  C   UNL     1      39.963 -14.307  -3.165  1.00  0.00     0.060 A 
HETATM   17  C   UNL     1      38.552 -14.751  -3.290  1.00  0.00     0.073 C 
HETATM   18  N   UNL     1      40.948 -15.061  -3.665  1.00  0.00    -0.179 NA
HETATM   19  N   UNL     1      42.065 -14.396  -3.344  1.00  0.00    -0.282 N 
HETATM   20  H   UNL     1      42.957 -14.802  -3.612  1.00  0.00     0.189 HD
HETATM   21  C   UNL     1      41.838 -13.234  -2.664  1.00  0.00     0.034 A 
HETATM   22  C   UNL     1      42.946 -12.367  -2.202  1.00  0.00     0.070 C 
ENDBRANCH  14  15
ENDBRANCH  10  14
ENDBRANCH   3   8
BRANCH   7  23
HETATM   23  C   UNL     1      41.395 -16.137   3.535  1.00  0.00     0.252 C 
HETATM   24  N   UNL     1      42.384 -16.358   2.598  1.00  0.00    -0.349 N 
HETATM   25  H   UNL     1      42.713 -15.546   2.091  1.00  0.00     0.163 HD
HETATM   26  O   UNL     1      41.055 -16.922   4.406  1.00  0.00    -0.268 OA
BRANCH  24  27
HETATM   27  C   UNL     1      43.210 -17.571   2.504  1.00  0.00     0.022 C 
HETATM   28  C   UNL     1      42.380 -18.791   2.071  1.00  0.00     0.037 C 
HETATM   29  C   UNL     1      44.286 -17.322   1.431  1.00  0.00     0.037 C 
HETATM   30  C   UNL     1      43.902 -17.851   3.844  1.00  0.00     0.037 C 
ENDBRANCH  24  27
ENDBRANCH   7  23
TORSDOF 5
ENDMDL
MODEL 9
REMARK VINA RESULT:      -6.8      1.932      8.623
REMARK  5 active torsions:
REMARK  status: ('A' for Active; 'I' for Inactive)
REMARK    1  A    between atoms: C_3  and  N_4 
REMARK       I    between atoms: N_4  and  C_5 
REMARK       I    between atoms: C_5  and  N_6 
REMARK    2  A    between atoms: N_6  and  C_7 
REMARK    3  A    between atoms: C_7  and  C_8 
REMARK    4  A    between atoms: C_20  and  C_21 
REMARK       I    between atoms: C_21  and  N_22 
REMARK    5  A    between atoms: N_22  and  C_23 
ROOT
HETATM    1  C   UNL     1      41.666 -11.317   6.974  1.00  0.00     0.052 C 
HETATM    2  C   UNL     1      42.808 -12.300   7.087  1.00  0.00    -0.020 A 
HETATM    3  C   UNL     1      42.966 -13.346   6.142  1.00  0.00     0.043 A 
HETATM    4  C   UNL     1      44.092 -14.177   6.224  1.00  0.00     0.030 A 
HETATM    5  C   UNL     1      45.061 -13.982   7.211  1.00  0.00     0.003 A 
HETATM    6  C   UNL     1      44.887 -12.995   8.172  1.00  0.00     0.018 A 
HETATM    7  C   UNL     1      43.750 -12.182   8.137  1.00  0.00     0.040 A 
ENDROOT
BRANCH   3   8
HETATM    8  N   UNL     1      41.930 -13.556   5.205  1.00  0.00    -0.309 N 
HETATM    9  C   UNL     1      41.297 -14.649   4.711  1.00  0.00     0.321 C 
HETATM   10  N   UNL     1      41.871 -15.868   4.870  1.00  0.00    -0.338 N 
HETATM   11  O   UNL     1      40.238 -14.488   4.106  1.00  0.00    -0.247 OA
HETATM   12  H   UNL     1      42.879 -15.866   4.818  1.00  0.00     0.164 HD
HETATM   13  H   UNL     1      41.447 -12.729   4.878  1.00  0.00     0.170 HD
BRANCH  10  14
HETATM   14  C   UNL     1      41.212 -17.019   4.294  1.00  0.00     0.167 C 
BRANCH  14  15
HETATM   15  C   UNL     1      42.188 -17.809   3.499  1.00  0.00     0.009 A 
HETATM   16  C   UNL     1      42.246 -17.933   2.081  1.00  0.00     0.060 A 
HETATM   17  C   UNL     1      41.362 -17.302   1.069  1.00  0.00     0.073 C 
HETATM   18  N   UNL     1      43.236 -18.743   1.692  1.00  0.00    -0.179 NA
HETATM   19  N   UNL     1      43.791 -19.158   2.838  1.00  0.00    -0.282 N 
HETATM   20  H   UNL     1      44.566 -19.811   2.784  1.00  0.00     0.189 HD
HETATM   21  C   UNL     1      43.202 -18.636   3.954  1.00  0.00     0.034 A 
HETATM   22  C   UNL     1      43.658 -18.990   5.318  1.00  0.00     0.070 C 
ENDBRANCH  14  15
ENDBRANCH  10  14
ENDBRANCH   3   8
BRANCH   7  23
HETATM   23  C   UNL     1      43.579 -11.242   9.280  1.00  0.00     0.252 C 
HETATM   24  N   UNL     1      42.474 -11.494  10.067  1.00  0.00    -0.349 N 
HETATM   25  H   UNL     1      42.000 -12.374   9.908  1.00  0.00     0.163 HD
HETATM   26  O   UNL     1      44.416 -10.376   9.488  1.00  0.00    -0.268 OA
BRANCH  24  27
HETATM   27  C   UNL     1      42.129 -10.775  11.303  1.00  0.00     0.022 C 
HETATM   28  C   UNL     1      43.228 -10.919  12.368  1.00  0.00     0.037 C 
HETATM   29  C   UNL     1      41.997  -9.281  10.954  1.00  0.00     0.037 C 
HETATM   30  C   UNL     1      40.788 -11.275  11.855  1.00  0.00     0.037 C 
ENDBRANCH  24  27
ENDBRANCH   7  23
TORSDOF 5
ENDMDL
MODEL 10
REMARK VINA RESULT:      -6.7      4.869      8.556
REMARK  5 active torsions:
REMARK  status: ('A' for Active; 'I' for Inactive)
REMARK    1  A    between atoms: C_3  and  N_4 
REMARK       I    between atoms: N_4  and  C_5 
REMARK       I    between atoms: C_5  and  N_6 
REMARK    2  A    between atoms: N_6  and  C_7 
REMARK    3  A    between atoms: C_7  and  C_8 
REMARK    4  A    between atoms: C_20  and  C_21 
REMARK       I    between atoms: C_21  and  N_22 
REMARK    5  A    between atoms: N_22  and  C_23 
ROOT
HETATM    1  C   UNL     1      43.073 -15.604   2.206  1.00  0.00     0.052 C 
HETATM    2  C   UNL     1      42.128 -14.986   3.211  1.00  0.00    -0.020 A 
HETATM    3  C   UNL     1      41.692 -13.643   3.072  1.00  0.00     0.043 A 
HETATM    4  C   UNL     1      40.741 -13.138   3.968  1.00  0.00     0.030 A 
HETATM    5  C   UNL     1      40.210 -13.938   4.984  1.00  0.00     0.003 A 
HETATM    6  C   UNL     1      40.670 -15.236   5.159  1.00  0.00     0.018 A 
HETATM    7  C   UNL     1      41.652 -15.748   4.304  1.00  0.00     0.040 A 
ENDROOT
BRANCH   3   8
HETATM    8  N   UNL     1      42.305 -12.846   2.080  1.00  0.00    -0.309 N 
HETATM    9  C   UNL     1      41.889 -12.275   0.923  1.00  0.00     0.321 C 
HETATM   10  N   UNL     1      40.737 -12.711   0.353  1.00  0.00    -0.338 N 
HETATM   11  O   UNL     1      42.591 -11.403   0.415  1.00  0.00    -0.247 OA
HETATM   12  H   UNL     1      40.567 -13.701   0.457  1.00  0.00     0.164 HD
HETATM   13  H   UNL     1      43.237 -12.512   2.287  1.00  0.00     0.170 HD
BRANCH  10  14
HETATM   14  C   UNL     1      40.330 -12.130  -0.907  1.00  0.00     0.167 C 
BRANCH  14  15
HETATM   15  C   UNL     1      40.585 -13.095  -2.008  1.00  0.00     0.009 A 
HETATM   16  C   UNL     1      39.669 -14.036  -2.559  1.00  0.00     0.060 A 
HETATM   17  C   UNL     1      38.254 -14.269  -2.178  1.00  0.00     0.073 C 
HETATM   18  N   UNL     1      40.231 -14.771  -3.525  1.00  0.00    -0.179 NA
HETATM   19  N   UNL     1      41.495 -14.333  -3.578  1.00  0.00    -0.282 N 
HETATM   20  H   UNL     1      42.126 -14.773  -4.240  1.00  0.00     0.189 HD
HETATM   21  C   UNL     1      41.768 -13.333  -2.689  1.00  0.00     0.034 A 
HETATM   22  C   UNL     1      43.116 -12.729  -2.578  1.00  0.00     0.070 C 
ENDBRANCH  14  15
ENDBRANCH  10  14
ENDBRANCH   3   8
BRANCH   7  23
HETATM   23  C   UNL     1      42.182 -17.098   4.647  1.00  0.00     0.252 C 
HETATM   24  N   UNL     1      43.401 -17.086   5.292  1.00  0.00    -0.349 N 
HETATM   25  H   UNL     1      43.725 -16.186   5.625  1.00  0.00     0.163 HD
HETATM   26  O   UNL     1      41.517 -18.094   4.405  1.00  0.00    -0.268 OA
BRANCH  24  27
HETATM   27  C   UNL     1      44.097 -18.270   5.818  1.00  0.00     0.022 C 
HETATM   28  C   UNL     1      44.417 -19.281   4.705  1.00  0.00     0.037 C 
HETATM   29  C   UNL     1      45.429 -17.797   6.430  1.00  0.00     0.037 C 
HETATM   30  C   UNL     1      43.258 -18.939   6.915  1.00  0.00     0.037 C 
ENDBRANCH  24  27
ENDBRANCH   7  23
TORSDOF 5
ENDMDL
