MODEL 1
REMARK VINA RESULT:      -9.1      0.000      0.000
REMARK  9 active torsions:
REMARK  status: ('A' for Active; 'I' for Inactive)
REMARK    1  A    between atoms: C_4  and  S_5 
REMARK    2  A    between atoms: S_5  and  C_6 
REMARK    3  A    between atoms: C_6  and  C_7 
REMARK       I    between atoms: C_7  and  N_8 
REMARK    4  A    between atoms: N_8  and  C_9 
REMARK    5  A    between atoms: C_10  and  O_11 
REMARK    6  A    between atoms: C_22  and  C_23 
REMARK    7  A    between atoms: C_29  and  C_30 
REMARK       I    between atoms: C_30  and  N_31 
REMARK    8  A    between atoms: N_31  and  C_32 
REMARK    9  A    between atoms: C_33  and  O_34 
ROOT
HETATM    1  C   UNL     1      44.263 -15.123   6.570  1.00  0.00     0.069 C 
HETATM    2  C   UNL     1      43.054 -14.480   5.931  1.00  0.00     0.019 C 
HETATM    3  N   UNL     1      42.832 -13.160   6.280  1.00  0.00    -0.353 N 
HETATM    4  C   UNL     1      41.693 -12.438   5.983  1.00  0.00     0.087 C 
HETATM    5  C   UNL     1      40.797 -12.961   5.116  1.00  0.00     0.055 C 
HETATM    6  C   UNL     1      39.446 -12.320   4.843  1.00  0.00     0.019 C 
HETATM    7  N   UNL     1      38.325 -11.787   4.617  1.00  0.00    -0.096 N 
HETATM    8  C   UNL     1      41.108 -14.270   4.385  1.00  0.00     0.104 C 
HETATM    9  C   UNL     1      42.229 -15.083   5.037  1.00  0.00     0.046 C 
HETATM   10  H   UNL     1      43.450 -12.734   6.963  1.00  0.00     0.166 HD
ENDROOT
BRANCH   4  11
HETATM   11  S   UNL     1      41.558 -10.817   6.595  1.00  0.00    -0.102 SA
BRANCH  11  12
HETATM   12  C   UNL     1      40.667 -10.982   8.146  1.00  0.00     0.184 C 
BRANCH  12  13
HETATM   13  C   UNL     1      40.788  -9.816   9.115  1.00  0.00     0.231 C 
HETATM   14  N   UNL     1      41.613  -9.897  10.211  1.00  0.00    -0.324 N 
HETATM   15  H   UNL     1      41.259  -9.384  11.012  1.00  0.00     0.169 HD
HETATM   16  O   UNL     1      39.998  -8.868   9.028  1.00  0.00    -0.272 OA
BRANCH  14  17
HETATM   17  C   UNL     1      42.702 -10.753  10.459  1.00  0.00     0.070 C 
HETATM   18  C   UNL     1      42.811 -11.388  11.709  1.00  0.00     0.095 C 
HETATM   19  C   UNL     1      43.876 -12.268  11.943  1.00  0.00     0.041 C 
HETATM   20  C   UNL     1      44.864 -12.456  10.972  1.00  0.00     0.026 C 
HETATM   21  C   UNL     1      44.807 -11.740   9.784  1.00  0.00     0.036 C 
HETATM   22 CL   UNL     1      46.060 -11.908   8.618  1.00  0.00    -0.084 Cl
HETATM   23  C   UNL     1      43.743 -10.877   9.537  1.00  0.00     0.056 C 
BRANCH  18  24
HETATM   24  O   UNL     1      41.808 -11.128  12.609  1.00  0.00    -0.354 OA
HETATM   25  C   UNL     1      42.198 -10.467  13.808  1.00  0.00     0.210 C 
ENDBRANCH  18  24
ENDBRANCH  14  17
ENDBRANCH  12  13
ENDBRANCH  11  12
ENDBRANCH   4  11
BRANCH   8  26
HETATM   26  C   UNL     1      41.416 -13.933   2.916  1.00  0.00    -0.044 A 
HETATM   27  C   UNL     1      42.034 -12.718   2.560  1.00  0.00     0.008 A 
HETATM   28  C   UNL     1      42.253 -12.390   1.222  1.00  0.00     0.001 A 
HETATM   29  C   UNL     1      41.851 -13.264   0.217  1.00  0.00     0.000 A 
HETATM   30  C   UNL     1      41.229 -14.467   0.550  1.00  0.00     0.001 A 
HETATM   31  C   UNL     1      41.008 -14.799   1.889  1.00  0.00     0.008 A 
ENDBRANCH   8  26
BRANCH   9  32
HETATM   32  C   UNL     1      42.381 -16.551   4.752  1.00  0.00     0.255 C 
HETATM   33  N   UNL     1      43.368 -16.897   3.850  1.00  0.00    -0.321 N 
HETATM   34  H   UNL     1      43.725 -16.204   3.213  1.00  0.00     0.169 HD
HETATM   35  O   UNL     1      41.572 -17.353   5.217  1.00  0.00    -0.268 OA
BRANCH  33  36
HETATM   36  C   UNL     1      43.719 -18.236   3.561  1.00  0.00     0.068 A 
HETATM   37  C   UNL     1      44.469 -19.045   4.442  1.00  0.00     0.095 A 
HETATM   38  C   UNL     1      44.711 -20.380   4.101  1.00  0.00     0.039 A 
HETATM   39  C   UNL     1      44.242 -20.899   2.891  1.00  0.00     0.003 A 
HETATM   40  C   UNL     1      43.559 -20.081   1.996  1.00  0.00     0.002 A 
HETATM   41  C   UNL     1      43.314 -18.747   2.321  1.00  0.00     0.032 A 
BRANCH  37  42
HETATM   42  O   UNL     1      45.025 -18.422   5.531  1.00  0.00    -0.354 OA
HETATM   43  C   UNL     1      44.533 -18.779   6.813  1.00  0.00     0.210 C 
ENDBRANCH  37  42
ENDBRANCH  33  36
ENDBRANCH   9  32
TORSDOF 9
ENDMDL
MODEL 2
REMARK VINA RESULT:      -9.0      0.841      1.512
REMARK  9 active torsions:
REMARK  status: ('A' for Active; 'I' for Inactive)
REMARK    1  A    between atoms: C_4  and  S_5 
REMARK    2  A    between atoms: S_5  and  C_6 
REMARK    3  A    between atoms: C_6  and  C_7 
REMARK       I    between atoms: C_7  and  N_8 
REMARK    4  A    between atoms: N_8  and  C_9 
REMARK    5  A    between atoms: C_10  and  O_11 
REMARK    6  A    between atoms: C_22  and  C_23 
REMARK    7  A    between atoms: C_29  and  C_30 
REMARK       I    between atoms: C_30  and  N_31 
REMARK    8  A    between atoms: N_31  and  C_32 
REMARK    9  A    between atoms: C_33  and  O_34 
ROOT
HETATM    1  C   UNL     1      44.307 -14.861   6.858  1.00  0.00     0.069 C 
HETATM    2  C   UNL     1      43.090 -14.277   6.179  1.00  0.00     0.019 C 
HETATM    3  N   UNL     1      42.853 -12.939   6.440  1.00  0.00    -0.353 N 
HETATM    4  C   UNL     1      41.706 -12.252   6.097  1.00  0.00     0.087 C 
HETATM    5  C   UNL     1      40.814 -12.842   5.270  1.00  0.00     0.055 C 
HETATM    6  C   UNL     1      39.455 -12.236   4.957  1.00  0.00     0.019 C 
HETATM    7  N   UNL     1      38.328 -11.733   4.698  1.00  0.00    -0.096 N 
HETATM    8  C   UNL     1      41.139 -14.193   4.628  1.00  0.00     0.104 C 
HETATM    9  C   UNL     1      42.270 -14.949   5.331  1.00  0.00     0.046 C 
HETATM   10  H   UNL     1      43.468 -12.461   7.091  1.00  0.00     0.166 HD
ENDROOT
BRANCH   4  11
HETATM   11  S   UNL     1      41.553 -10.595   6.599  1.00  0.00    -0.102 SA
BRANCH  11  12
HETATM   12  C   UNL     1      40.622 -10.661   8.134  1.00  0.00     0.184 C 
BRANCH  12  13
HETATM   13  C   UNL     1      40.814  -9.489   9.085  1.00  0.00     0.231 C 
HETATM   14  N   UNL     1      41.576  -9.625  10.220  1.00  0.00    -0.324 N 
HETATM   15  H   UNL     1      41.240  -9.061  10.993  1.00  0.00     0.169 HD
HETATM   16  O   UNL     1      40.127  -8.471   8.942  1.00  0.00    -0.272 OA
BRANCH  14  17
HETATM   17  C   UNL     1      42.563 -10.578  10.535  1.00  0.00     0.070 C 
HETATM   18  C   UNL     1      42.568 -11.171  11.810  1.00  0.00     0.095 C 
HETATM   19  C   UNL     1      43.529 -12.145  12.112  1.00  0.00     0.041 C 
HETATM   20  C   UNL     1      44.521 -12.472  11.183  1.00  0.00     0.026 C 
HETATM   21  C   UNL     1      44.574 -11.801   9.968  1.00  0.00     0.036 C 
HETATM   22 CL   UNL     1      45.837 -12.143   8.852  1.00  0.00    -0.084 Cl
HETATM   23  C   UNL     1      43.613 -10.844   9.654  1.00  0.00     0.056 C 
BRANCH  18  24
HETATM   24  O   UNL     1      41.571 -10.774  12.665  1.00  0.00    -0.354 OA
HETATM   25  C   UNL     1      40.461 -11.659  12.788  1.00  0.00     0.210 C 
ENDBRANCH  18  24
ENDBRANCH  14  17
ENDBRANCH  12  13
ENDBRANCH  11  12
ENDBRANCH   4  11
BRANCH   8  26
HETATM   26  C   UNL     1      41.441 -13.953   3.138  1.00  0.00    -0.044 A 
HETATM   27  C   UNL     1      42.041 -12.757   2.700  1.00  0.00     0.008 A 
HETATM   28  C   UNL     1      42.254 -12.517   1.342  1.00  0.00     0.001 A 
HETATM   29  C   UNL     1      41.864 -13.464   0.399  1.00  0.00     0.000 A 
HETATM   30  C   UNL     1      41.260 -14.650   0.815  1.00  0.00     0.001 A 
HETATM   31  C   UNL     1      41.045 -14.894   2.174  1.00  0.00     0.008 A 
ENDBRANCH   8  26
BRANCH   9  32
HETATM   32  C   UNL     1      42.439 -16.431   5.145  1.00  0.00     0.255 C 
HETATM   33  N   UNL     1      43.444 -16.826   4.285  1.00  0.00    -0.321 N 
HETATM   34  H   UNL     1      43.808 -16.172   3.610  1.00  0.00     0.169 HD
HETATM   35  O   UNL     1      41.628 -17.207   5.648  1.00  0.00    -0.268 OA
BRANCH  33  36
HETATM   36  C   UNL     1      43.811 -18.178   4.090  1.00  0.00     0.068 A 
HETATM   37  C   UNL     1      43.598 -18.868   2.877  1.00  0.00     0.095 A 
HETATM   38  C   UNL     1      44.057 -20.183   2.753  1.00  0.00     0.039 A 
HETATM   39  C   UNL     1      44.691 -20.818   3.825  1.00  0.00     0.003 A 
HETATM   40  C   UNL     1      44.841 -20.156   5.040  1.00  0.00     0.002 A 
HETATM   41  C   UNL     1      44.385 -18.845   5.179  1.00  0.00     0.032 A 
BRANCH  37  42
HETATM   42  O   UNL     1      42.833 -18.234   1.931  1.00  0.00    -0.354 OA
HETATM   43  C   UNL     1      43.509 -17.615   0.847  1.00  0.00     0.210 C 
ENDBRANCH  37  42
ENDBRANCH  33  36
ENDBRANCH   9  32
TORSDOF 9
ENDMDL
MODEL 3
REMARK VINA RESULT:      -8.7      5.237      7.813
REMARK  9 active torsions:
REMARK  status: ('A' for Active; 'I' for Inactive)
REMARK    1  A    between atoms: C_4  and  S_5 
REMARK    2  A    between atoms: S_5  and  C_6 
REMARK    3  A    between atoms: C_6  and  C_7 
REMARK       I    between atoms: C_7  and  N_8 
REMARK    4  A    between atoms: N_8  and  C_9 
REMARK    5  A    between atoms: C_10  and  O_11 
REMARK    6  A    between atoms: C_22  and  C_23 
REMARK    7  A    between atoms: C_29  and  C_30 
REMARK       I    between atoms: C_30  and  N_31 
REMARK    8  A    between atoms: N_31  and  C_32 
REMARK    9  A    between atoms: C_33  and  O_34 
ROOT
HETATM    1  C   UNL     1      43.622 -14.248   4.011  1.00  0.00     0.069 C 
HETATM    2  C   UNL     1      42.381 -14.349   3.154  1.00  0.00     0.019 C 
HETATM    3  N   UNL     1      41.488 -13.301   3.281  1.00  0.00    -0.353 N 
HETATM    4  C   UNL     1      40.211 -13.274   2.758  1.00  0.00     0.087 C 
HETATM    5  C   UNL     1      39.844 -14.237   1.882  1.00  0.00     0.055 C 
HETATM    6  C   UNL     1      38.421 -14.386   1.371  1.00  0.00     0.019 C 
HETATM    7  N   UNL     1      37.239 -14.508   0.947  1.00  0.00    -0.096 N 
HETATM    8  C   UNL     1      40.873 -15.258   1.388  1.00  0.00     0.104 C 
HETATM    9  C   UNL     1      42.120 -15.348   2.272  1.00  0.00     0.046 C 
HETATM   10  H   UNL     1      41.695 -12.574   3.960  1.00  0.00     0.166 HD
ENDROOT
BRANCH   4  11
HETATM   11  S   UNL     1      39.201 -11.904   3.109  1.00  0.00    -0.102 SA
BRANCH  11  12
HETATM   12  C   UNL     1      39.078 -11.010   1.555  1.00  0.00     0.184 C 
BRANCH  12  13
HETATM   13  C   UNL     1      37.685 -10.549   1.156  1.00  0.00     0.231 C 
HETATM   14  N   UNL     1      37.326 -10.467  -0.168  1.00  0.00    -0.324 N 
HETATM   15  H   UNL     1      36.674  -9.713  -0.355  1.00  0.00     0.169 HD
HETATM   16  O   UNL     1      36.937 -10.061   2.012  1.00  0.00    -0.272 OA
BRANCH  14  17
HETATM   17  C   UNL     1      37.895 -11.086  -1.297  1.00  0.00     0.070 C 
HETATM   18  C   UNL     1      38.706 -10.331  -2.163  1.00  0.00     0.095 C 
HETATM   19  C   UNL     1      39.301 -10.955  -3.267  1.00  0.00     0.041 C 
HETATM   20  C   UNL     1      39.032 -12.297  -3.550  1.00  0.00     0.026 C 
HETATM   21  C   UNL     1      38.143 -13.005  -2.751  1.00  0.00     0.036 C 
HETATM   22 CL   UNL     1      37.748 -14.633  -3.139  1.00  0.00    -0.084 Cl
HETATM   23  C   UNL     1      37.561 -12.396  -1.643  1.00  0.00     0.056 C 
BRANCH  18  24
HETATM   24  O   UNL     1      38.897  -9.016  -1.819  1.00  0.00    -0.354 OA
HETATM   25  C   UNL     1      40.212  -8.661  -1.404  1.00  0.00     0.210 C 
ENDBRANCH  18  24
ENDBRANCH  14  17
ENDBRANCH  12  13
ENDBRANCH  11  12
ENDBRANCH   4  11
BRANCH   8  26
HETATM   26  C   UNL     1      41.220 -14.917  -0.071  1.00  0.00    -0.044 A 
HETATM   27  C   UNL     1      41.718 -13.647  -0.424  1.00  0.00     0.008 A 
HETATM   28  C   UNL     1      41.971 -13.322  -1.756  1.00  0.00     0.001 A 
HETATM   29  C   UNL     1      41.723 -14.254  -2.759  1.00  0.00     0.000 A 
HETATM   30  C   UNL     1      41.221 -15.512  -2.429  1.00  0.00     0.001 A 
HETATM   31  C   UNL     1      40.967 -15.843  -1.096  1.00  0.00     0.008 A 
ENDBRANCH   8  26
BRANCH   9  32
HETATM   32  C   UNL     1      43.014 -16.555   2.223  1.00  0.00     0.255 C 
HETATM   33  N   UNL     1      42.625 -17.633   2.992  1.00  0.00    -0.321 N 
HETATM   34  H   UNL     1      41.980 -17.495   3.754  1.00  0.00     0.169 HD
HETATM   35  O   UNL     1      44.086 -16.498   1.621  1.00  0.00    -0.268 OA
BRANCH  33  36
HETATM   36  C   UNL     1      43.288 -18.882   2.969  1.00  0.00     0.068 A 
HETATM   37  C   UNL     1      44.192 -19.295   3.972  1.00  0.00     0.095 A 
HETATM   38  C   UNL     1      44.748 -20.577   3.901  1.00  0.00     0.039 A 
HETATM   39  C   UNL     1      44.437 -21.427   2.836  1.00  0.00     0.003 A 
HETATM   40  C   UNL     1      43.596 -20.992   1.816  1.00  0.00     0.002 A 
HETATM   41  C   UNL     1      43.037 -19.715   1.872  1.00  0.00     0.032 A 
BRANCH  37  42
HETATM   42  O   UNL     1      44.566 -18.351   4.894  1.00  0.00    -0.354 OA
HETATM   43  C   UNL     1      44.315 -18.633   6.262  1.00  0.00     0.210 C 
ENDBRANCH  37  42
ENDBRANCH  33  36
ENDBRANCH   9  32
TORSDOF 9
ENDMDL
MODEL 4
REMARK VINA RESULT:      -8.7      2.723      3.849
REMARK  9 active torsions:
REMARK  status: ('A' for Active; 'I' for Inactive)
REMARK    1  A    between atoms: C_4  and  S_5 
REMARK    2  A    between atoms: S_5  and  C_6 
REMARK    3  A    between atoms: C_6  and  C_7 
REMARK       I    between atoms: C_7  and  N_8 
REMARK    4  A    between atoms: N_8  and  C_9 
REMARK    5  A    between atoms: C_10  and  O_11 
REMARK    6  A    between atoms: C_22  and  C_23 
REMARK    7  A    between atoms: C_29  and  C_30 
REMARK       I    between atoms: C_30  and  N_31 
REMARK    8  A    between atoms: N_31  and  C_32 
REMARK    9  A    between atoms: C_33  and  O_34 
ROOT
HETATM    1  C   UNL     1      43.775 -14.206   3.753  1.00  0.00     0.069 C 
HETATM    2  C   UNL     1      42.510 -14.288   2.931  1.00  0.00     0.019 C 
HETATM    3  N   UNL     1      41.650 -13.213   3.059  1.00  0.00    -0.353 N 
HETATM    4  C   UNL     1      40.361 -13.160   2.568  1.00  0.00     0.087 C 
HETATM    5  C   UNL     1      39.944 -14.129   1.723  1.00  0.00     0.055 C 
HETATM    6  C   UNL     1      38.504 -14.247   1.251  1.00  0.00     0.019 C 
HETATM    7  N   UNL     1      37.308 -14.345   0.861  1.00  0.00    -0.096 N 
HETATM    8  C   UNL     1      40.930 -15.190   1.224  1.00  0.00     0.104 C 
HETATM    9  C   UNL     1      42.197 -15.297   2.078  1.00  0.00     0.046 C 
HETATM   10  H   UNL     1      41.895 -12.478   3.716  1.00  0.00     0.166 HD
ENDROOT
BRANCH   4  11
HETATM   11  S   UNL     1      39.400 -11.754   2.916  1.00  0.00    -0.102 SA
BRANCH  11  12
HETATM   12  C   UNL     1      39.937 -11.219   4.545  1.00  0.00     0.184 C 
BRANCH  12  13
HETATM   13  C   UNL     1      40.691  -9.899   4.602  1.00  0.00     0.231 C 
HETATM   14  N   UNL     1      40.769  -9.187   5.774  1.00  0.00    -0.324 N 
HETATM   15  H   UNL     1      40.789  -8.183   5.627  1.00  0.00     0.169 HD
HETATM   16  O   UNL     1      41.068  -9.368   3.551  1.00  0.00    -0.272 OA
BRANCH  14  17
HETATM   17  C   UNL     1      40.581  -9.611   7.103  1.00  0.00     0.070 C 
HETATM   18  C   UNL     1      39.315  -9.475   7.699  1.00  0.00     0.095 C 
HETATM   19  C   UNL     1      39.118  -9.930   9.009  1.00  0.00     0.041 C 
HETATM   20  C   UNL     1      40.188 -10.447   9.746  1.00  0.00     0.026 C 
HETATM   21  C   UNL     1      41.459 -10.476   9.186  1.00  0.00     0.036 C 
HETATM   22 CL   UNL     1      42.794 -11.038  10.114  1.00  0.00    -0.084 Cl
HETATM   23  C   UNL     1      41.659 -10.041   7.879  1.00  0.00     0.056 C 
BRANCH  18  24
HETATM   24  O   UNL     1      38.330  -8.937   6.910  1.00  0.00    -0.354 OA
HETATM   25  C   UNL     1      38.073  -7.547   7.087  1.00  0.00     0.210 C 
ENDBRANCH  18  24
ENDBRANCH  14  17
ENDBRANCH  12  13
ENDBRANCH  11  12
ENDBRANCH   4  11
BRANCH   8  26
HETATM   26  C   UNL     1      41.248 -14.888  -0.250  1.00  0.00    -0.044 A 
HETATM   27  C   UNL     1      41.774 -13.642  -0.643  1.00  0.00     0.008 A 
HETATM   28  C   UNL     1      42.001 -13.351  -1.988  1.00  0.00     0.001 A 
HETATM   29  C   UNL     1      41.699 -14.295  -2.964  1.00  0.00     0.000 A 
HETATM   30  C   UNL     1      41.169 -15.531  -2.594  1.00  0.00     0.001 A 
HETATM   31  C   UNL     1      40.940 -15.826  -1.248  1.00  0.00     0.008 A 
ENDBRANCH   8  26
BRANCH   9  32
HETATM   32  C   UNL     1      43.055 -16.530   2.031  1.00  0.00     0.255 C 
HETATM   33  N   UNL     1      42.726 -17.535   2.919  1.00  0.00    -0.321 N 
HETATM   34  H   UNL     1      42.168 -17.321   3.729  1.00  0.00     0.169 HD
HETATM   35  O   UNL     1      44.059 -16.550   1.320  1.00  0.00    -0.268 OA
BRANCH  33  36
HETATM   36  C   UNL     1      43.357 -18.801   2.925  1.00  0.00     0.068 A 
HETATM   37  C   UNL     1      44.246 -19.215   3.939  1.00  0.00     0.095 A 
HETATM   38  C   UNL     1      44.769 -20.512   3.898  1.00  0.00     0.039 A 
HETATM   39  C   UNL     1      44.439 -21.378   2.851  1.00  0.00     0.003 A 
HETATM   40  C   UNL     1      43.612 -20.943   1.820  1.00  0.00     0.002 A 
HETATM   41  C   UNL     1      43.087 -19.652   1.845  1.00  0.00     0.032 A 
BRANCH  37  42
HETATM   42  O   UNL     1      44.643 -18.261   4.842  1.00  0.00    -0.354 OA
HETATM   43  C   UNL     1      44.221 -18.415   6.188  1.00  0.00     0.210 C 
ENDBRANCH  37  42
ENDBRANCH  33  36
ENDBRANCH   9  32
TORSDOF 9
ENDMDL
MODEL 5
REMARK VINA RESULT:      -8.6      5.249      9.044
REMARK  9 active torsions:
REMARK  status: ('A' for Active; 'I' for Inactive)
REMARK    1  A    between atoms: C_4  and  S_5 
REMARK    2  A    between atoms: S_5  and  C_6 
REMARK    3  A    between atoms: C_6  and  C_7 
REMARK       I    between atoms: C_7  and  N_8 
REMARK    4  A    between atoms: N_8  and  C_9 
REMARK    5  A    between atoms: C_10  and  O_11 
REMARK    6  A    between atoms: C_22  and  C_23 
REMARK    7  A    between atoms: C_29  and  C_30 
REMARK       I    between atoms: C_30  and  N_31 
REMARK    8  A    between atoms: N_31  and  C_32 
REMARK    9  A    between atoms: C_33  and  O_34 
ROOT
HETATM    1  C   UNL     1      41.189 -15.420  -1.304  1.00  0.00     0.069 C 
HETATM    2  C   UNL     1      41.112 -14.103  -0.567  1.00  0.00     0.019 C 
HETATM    3  N   UNL     1      41.751 -14.072   0.659  1.00  0.00    -0.353 N 
HETATM    4  C   UNL     1      41.647 -13.056   1.587  1.00  0.00     0.087 C 
HETATM    5  C   UNL     1      41.047 -11.900   1.224  1.00  0.00     0.055 C 
HETATM    6  C   UNL     1      40.745 -10.784   2.211  1.00  0.00     0.019 C 
HETATM    7  N   UNL     1      40.495  -9.858   3.031  1.00  0.00    -0.096 N 
HETATM    8  C   UNL     1      40.612 -11.683  -0.228  1.00  0.00     0.104 C 
HETATM    9  C   UNL     1      40.511 -12.979  -1.037  1.00  0.00     0.046 C 
HETATM   10  H   UNL     1      42.178 -14.929   0.999  1.00  0.00     0.166 HD
ENDROOT
BRANCH   4  11
HETATM   11  S   UNL     1      42.451 -13.246   3.116  1.00  0.00    -0.102 SA
BRANCH  11  12
HETATM   12  C   UNL     1      42.588 -15.023   3.348  1.00  0.00     0.184 C 
BRANCH  12  13
HETATM   13  C   UNL     1      41.280 -15.778   3.526  1.00  0.00     0.231 C 
HETATM   14  N   UNL     1      41.273 -17.145   3.663  1.00  0.00    -0.324 N 
HETATM   15  H   UNL     1      40.451 -17.580   3.258  1.00  0.00     0.169 HD
HETATM   16  O   UNL     1      40.208 -15.187   3.352  1.00  0.00    -0.272 OA
BRANCH  14  17
HETATM   17  C   UNL     1      42.308 -18.019   4.044  1.00  0.00     0.070 C 
HETATM   18  C   UNL     1      43.055 -18.678   3.051  1.00  0.00     0.095 C 
HETATM   19  C   UNL     1      44.109 -19.521   3.429  1.00  0.00     0.041 C 
HETATM   20  C   UNL     1      44.370 -19.765   4.780  1.00  0.00     0.026 C 
HETATM   21  C   UNL     1      43.557 -19.196   5.752  1.00  0.00     0.036 C 
HETATM   22 CL   UNL     1      43.823 -19.553   7.413  1.00  0.00    -0.084 Cl
HETATM   23  C   UNL     1      42.518 -18.344   5.385  1.00  0.00     0.056 C 
BRANCH  18  24
HETATM   24  O   UNL     1      42.716 -18.396   1.752  1.00  0.00    -0.354 OA
HETATM   25  C   UNL     1      43.683 -17.678   0.993  1.00  0.00     0.210 C 
ENDBRANCH  18  24
ENDBRANCH  14  17
ENDBRANCH  12  13
ENDBRANCH  11  12
ENDBRANCH   4  11
BRANCH   8  26
HETATM   26  C   UNL     1      41.579 -10.673  -0.870  1.00  0.00    -0.044 A 
HETATM   27  C   UNL     1      42.975 -10.842  -0.779  1.00  0.00     0.008 A 
HETATM   28  C   UNL     1      43.848  -9.890  -1.307  1.00  0.00     0.001 A 
HETATM   29  C   UNL     1      43.342  -8.750  -1.926  1.00  0.00     0.000 A 
HETATM   30  C   UNL     1      41.964  -8.562  -2.016  1.00  0.00     0.001 A 
HETATM   31  C   UNL     1      41.086  -9.513  -1.488  1.00  0.00     0.008 A 
ENDBRANCH   8  26
BRANCH   9  32
HETATM   32  C   UNL     1      39.703 -13.037  -2.302  1.00  0.00     0.255 C 
HETATM   33  N   UNL     1      38.364 -13.340  -2.155  1.00  0.00    -0.321 N 
HETATM   34  H   UNL     1      38.044 -13.791  -1.313  1.00  0.00     0.169 HD
HETATM   35  O   UNL     1      40.264 -12.940  -3.393  1.00  0.00    -0.268 OA
BRANCH  33  36
HETATM   36  C   UNL     1      37.442 -13.319  -3.228  1.00  0.00     0.068 A 
HETATM   37  C   UNL     1      36.996 -14.487  -3.884  1.00  0.00     0.095 A 
HETATM   38  C   UNL     1      36.030 -14.375  -4.890  1.00  0.00     0.039 A 
HETATM   39  C   UNL     1      35.534 -13.122  -5.262  1.00  0.00     0.003 A 
HETATM   40  C   UNL     1      36.023 -11.969  -4.656  1.00  0.00     0.002 A 
HETATM   41  C   UNL     1      36.989 -12.065  -3.654  1.00  0.00     0.032 A 
BRANCH  37  42
HETATM   42  O   UNL     1      37.642 -15.656  -3.573  1.00  0.00    -0.354 OA
HETATM   43  C   UNL     1      38.771 -16.010  -4.357  1.00  0.00     0.210 C 
ENDBRANCH  37  42
ENDBRANCH  33  36
ENDBRANCH   9  32
TORSDOF 9
ENDMDL
MODEL 6
REMARK VINA RESULT:      -8.5      5.198      7.935
REMARK  9 active torsions:
REMARK  status: ('A' for Active; 'I' for Inactive)
REMARK    1  A    between atoms: C_4  and  S_5 
REMARK    2  A    between atoms: S_5  and  C_6 
REMARK    3  A    between atoms: C_6  and  C_7 
REMARK       I    between atoms: C_7  and  N_8 
REMARK    4  A    between atoms: N_8  and  C_9 
REMARK    5  A    between atoms: C_10  and  O_11 
REMARK    6  A    between atoms: C_22  and  C_23 
REMARK    7  A    between atoms: C_29  and  C_30 
REMARK       I    between atoms: C_30  and  N_31 
REMARK    8  A    between atoms: N_31  and  C_32 
REMARK    9  A    between atoms: C_33  and  O_34 
ROOT
HETATM    1  C   UNL     1      43.817 -13.943   3.523  1.00  0.00     0.069 C 
HETATM    2  C   UNL     1      42.539 -14.075   2.726  1.00  0.00     0.019 C 
HETATM    3  N   UNL     1      41.688 -12.987   2.787  1.00  0.00    -0.353 N 
HETATM    4  C   UNL     1      40.393 -12.961   2.311  1.00  0.00     0.087 C 
HETATM    5  C   UNL     1      39.958 -13.986   1.545  1.00  0.00     0.055 C 
HETATM    6  C   UNL     1      38.511 -14.128   1.102  1.00  0.00     0.019 C 
HETATM    7  N   UNL     1      37.309 -14.244   0.736  1.00  0.00    -0.096 N 
HETATM    8  C   UNL     1      40.930 -15.087   1.111  1.00  0.00     0.104 C 
HETATM    9  C   UNL     1      42.208 -15.141   1.953  1.00  0.00     0.046 C 
HETATM   10  H   UNL     1      41.947 -12.209   3.386  1.00  0.00     0.166 HD
ENDROOT
BRANCH   4  11
HETATM   11  S   UNL     1      39.445 -11.526   2.569  1.00  0.00    -0.102 SA
BRANCH  11  12
HETATM   12  C   UNL     1      39.719 -10.522   1.104  1.00  0.00     0.184 C 
BRANCH  12  13
HETATM   13  C   UNL     1      38.615 -10.549   0.059  1.00  0.00     0.231 C 
HETATM   14  N   UNL     1      38.874 -10.194  -1.243  1.00  0.00    -0.324 N 
HETATM   15  H   UNL     1      38.085  -9.743  -1.695  1.00  0.00     0.169 HD
HETATM   16  O   UNL     1      37.441 -10.700   0.418  1.00  0.00    -0.272 OA
BRANCH  14  17
HETATM   17  C   UNL     1      40.097 -10.138  -1.937  1.00  0.00     0.070 C 
HETATM   18  C   UNL     1      40.133 -10.476  -3.302  1.00  0.00     0.095 C 
HETATM   19  C   UNL     1      41.343 -10.386  -4.001  1.00  0.00     0.041 C 
HETATM   20  C   UNL     1      42.521 -10.037  -3.334  1.00  0.00     0.026 C 
HETATM   21  C   UNL     1      42.495  -9.812  -1.964  1.00  0.00     0.036 C 
HETATM   22 CL   UNL     1      43.954  -9.459  -1.124  1.00  0.00    -0.084 Cl
HETATM   23  C   UNL     1      41.293  -9.883  -1.265  1.00  0.00     0.056 C 
BRANCH  18  24
HETATM   24  O   UNL     1      38.934 -10.828  -3.869  1.00  0.00    -0.354 OA
HETATM   25  C   UNL     1      38.580 -10.140  -5.065  1.00  0.00     0.210 C 
ENDBRANCH  18  24
ENDBRANCH  14  17
ENDBRANCH  12  13
ENDBRANCH  11  12
ENDBRANCH   4  11
BRANCH   8  26
HETATM   26  C   UNL     1      41.230 -14.896  -0.385  1.00  0.00    -0.044 A 
HETATM   27  C   UNL     1      41.791 -13.698  -0.870  1.00  0.00     0.008 A 
HETATM   28  C   UNL     1      42.002 -13.505  -2.235  1.00  0.00     0.001 A 
HETATM   29  C   UNL     1      41.647 -14.501  -3.141  1.00  0.00     0.000 A 
HETATM   30  C   UNL     1      41.081 -15.689  -2.680  1.00  0.00     0.001 A 
HETATM   31  C   UNL     1      40.869 -15.886  -1.313  1.00  0.00     0.008 A 
ENDBRANCH   8  26
BRANCH   9  32
HETATM   32  C   UNL     1      43.058 -16.380   1.984  1.00  0.00     0.255 C 
HETATM   33  N   UNL     1      42.673 -17.360   2.877  1.00  0.00    -0.321 N 
HETATM   34  H   UNL     1      42.073 -17.122   3.650  1.00  0.00     0.169 HD
HETATM   35  O   UNL     1      44.099 -16.426   1.330  1.00  0.00    -0.268 OA
BRANCH  33  36
HETATM   36  C   UNL     1      43.292 -18.630   2.950  1.00  0.00     0.068 A 
HETATM   37  C   UNL     1      44.077 -19.045   4.047  1.00  0.00     0.095 A 
HETATM   38  C   UNL     1      44.593 -20.345   4.063  1.00  0.00     0.039 A 
HETATM   39  C   UNL     1      44.361 -21.213   2.992  1.00  0.00     0.003 A 
HETATM   40  C   UNL     1      43.640 -20.779   1.883  1.00  0.00     0.002 A 
HETATM   41  C   UNL     1      43.123 -19.484   1.853  1.00  0.00     0.032 A 
BRANCH  37  42
HETATM   42  O   UNL     1      44.390 -18.088   4.980  1.00  0.00    -0.354 OA
HETATM   43  C   UNL     1      45.204 -18.480   6.075  1.00  0.00     0.210 C 
ENDBRANCH  37  42
ENDBRANCH  33  36
ENDBRANCH   9  32
TORSDOF 9
ENDMDL
MODEL 7
REMARK VINA RESULT:      -8.5      1.826      2.708
REMARK  9 active torsions:
REMARK  status: ('A' for Active; 'I' for Inactive)
REMARK    1  A    between atoms: C_4  and  S_5 
REMARK    2  A    between atoms: S_5  and  C_6 
REMARK    3  A    between atoms: C_6  and  C_7 
REMARK       I    between atoms: C_7  and  N_8 
REMARK    4  A    between atoms: N_8  and  C_9 
REMARK    5  A    between atoms: C_10  and  O_11 
REMARK    6  A    between atoms: C_22  and  C_23 
REMARK    7  A    between atoms: C_29  and  C_30 
REMARK       I    between atoms: C_30  and  N_31 
REMARK    8  A    between atoms: N_31  and  C_32 
REMARK    9  A    between atoms: C_33  and  O_34 
ROOT
HETATM    1  C   UNL     1      44.500 -14.632   6.875  1.00  0.00     0.069 C 
HETATM    2  C   UNL     1      43.212 -14.115   6.276  1.00  0.00     0.019 C 
HETATM    3  N   UNL     1      42.951 -12.776   6.503  1.00  0.00    -0.353 N 
HETATM    4  C   UNL     1      41.757 -12.140   6.229  1.00  0.00     0.087 C 
HETATM    5  C   UNL     1      40.822 -12.791   5.501  1.00  0.00     0.055 C 
HETATM    6  C   UNL     1      39.422 -12.242   5.278  1.00  0.00     0.019 C 
HETATM    7  N   UNL     1      38.261 -11.785   5.093  1.00  0.00    -0.096 N 
HETATM    8  C   UNL     1      41.141 -14.157   4.887  1.00  0.00     0.104 C 
HETATM    9  C   UNL     1      42.350 -14.847   5.524  1.00  0.00     0.046 C 
HETATM   10  H   UNL     1      43.599 -12.252   7.083  1.00  0.00     0.166 HD
ENDROOT
BRANCH   4  11
HETATM   11  S   UNL     1      41.588 -10.469   6.677  1.00  0.00    -0.102 SA
BRANCH  11  12
HETATM   12  C   UNL     1      41.781 -10.448   8.463  1.00  0.00     0.184 C 
BRANCH  12  13
HETATM   13  C   UNL     1      40.635 -11.041   9.268  1.00  0.00     0.231 C 
HETATM   14  N   UNL     1      40.716 -11.140  10.636  1.00  0.00    -0.324 N 
HETATM   15  H   UNL     1      40.233 -11.953  11.004  1.00  0.00     0.169 HD
HETATM   16  O   UNL     1      39.710 -11.613   8.679  1.00  0.00    -0.272 OA
BRANCH  14  17
HETATM   17  C   UNL     1      41.543 -10.451  11.543  1.00  0.00     0.070 C 
HETATM   18  C   UNL     1      42.818 -10.964  11.841  1.00  0.00     0.095 C 
HETATM   19  C   UNL     1      43.656 -10.259  12.716  1.00  0.00     0.041 C 
HETATM   20  C   UNL     1      43.202  -9.098  13.348  1.00  0.00     0.026 C 
HETATM   21  C   UNL     1      41.901  -8.660  13.132  1.00  0.00     0.036 C 
HETATM   22 CL   UNL     1      41.311  -7.276  13.964  1.00  0.00    -0.084 Cl
HETATM   23  C   UNL     1      41.069  -9.345  12.250  1.00  0.00     0.056 C 
BRANCH  18  24
HETATM   24  O   UNL     1      43.172 -12.120  11.192  1.00  0.00    -0.354 OA
HETATM   25  C   UNL     1      44.464 -12.134  10.594  1.00  0.00     0.210 C 
ENDBRANCH  18  24
ENDBRANCH  14  17
ENDBRANCH  12  13
ENDBRANCH  11  12
ENDBRANCH   4  11
BRANCH   8  26
HETATM   26  C   UNL     1      41.313 -13.970   3.370  1.00  0.00    -0.044 A 
HETATM   27  C   UNL     1      40.606 -14.770   2.452  1.00  0.00     0.008 A 
HETATM   28  C   UNL     1      40.813 -14.639   1.079  1.00  0.00     0.001 A 
HETATM   29  C   UNL     1      41.736 -13.714   0.600  1.00  0.00     0.000 A 
HETATM   30  C   UNL     1      42.453 -12.921   1.495  1.00  0.00     0.001 A 
HETATM   31  C   UNL     1      42.248 -13.049   2.871  1.00  0.00     0.008 A 
ENDBRANCH   8  26
BRANCH   9  32
HETATM   32  C   UNL     1      42.555 -16.329   5.383  1.00  0.00     0.255 C 
HETATM   33  N   UNL     1      43.378 -16.735   4.351  1.00  0.00    -0.321 N 
HETATM   34  H   UNL     1      43.558 -16.109   3.582  1.00  0.00     0.169 HD
HETATM   35  O   UNL     1      41.908 -17.106   6.084  1.00  0.00    -0.268 OA
BRANCH  33  36
HETATM   36  C   UNL     1      43.767 -18.080   4.152  1.00  0.00     0.068 A 
HETATM   37  C   UNL     1      43.479 -18.800   2.973  1.00  0.00     0.095 A 
HETATM   38  C   UNL     1      43.963 -20.105   2.836  1.00  0.00     0.039 A 
HETATM   39  C   UNL     1      44.698 -20.700   3.866  1.00  0.00     0.003 A 
HETATM   40  C   UNL     1      44.926 -20.009   5.053  1.00  0.00     0.002 A 
HETATM   41  C   UNL     1      44.445 -18.709   5.204  1.00  0.00     0.032 A 
BRANCH  37  42
HETATM   42  O   UNL     1      42.623 -18.207   2.080  1.00  0.00    -0.354 OA
HETATM   43  C   UNL     1      43.196 -17.473   1.009  1.00  0.00     0.210 C 
ENDBRANCH  37  42
ENDBRANCH  33  36
ENDBRANCH   9  32
TORSDOF 9
ENDMDL
MODEL 8
REMARK VINA RESULT:      -8.4      2.293      2.966
REMARK  9 active torsions:
REMARK  status: ('A' for Active; 'I' for Inactive)
REMARK    1  A    between atoms: C_4  and  S_5 
REMARK    2  A    between atoms: S_5  and  C_6 
REMARK    3  A    between atoms: C_6  and  C_7 
REMARK       I    between atoms: C_7  and  N_8 
REMARK    4  A    between atoms: N_8  and  C_9 
REMARK    5  A    between atoms: C_10  and  O_11 
REMARK    6  A    between atoms: C_22  and  C_23 
REMARK    7  A    between atoms: C_29  and  C_30 
REMARK       I    between atoms: C_30  and  N_31 
REMARK    8  A    between atoms: N_31  and  C_32 
REMARK    9  A    between atoms: C_33  and  O_34 
ROOT
HETATM    1  C   UNL     1      43.487 -14.028   5.303  1.00  0.00     0.069 C 
HETATM    2  C   UNL     1      42.351 -13.581   4.411  1.00  0.00     0.019 C 
HETATM    3  N   UNL     1      42.049 -12.233   4.469  1.00  0.00    -0.353 N 
HETATM    4  C   UNL     1      40.937 -11.641   3.903  1.00  0.00     0.087 C 
HETATM    5  C   UNL     1      40.173 -12.364   3.055  1.00  0.00     0.055 C 
HETATM    6  C   UNL     1      38.850 -11.858   2.504  1.00  0.00     0.019 C 
HETATM    7  N   UNL     1      37.752 -11.437   2.047  1.00  0.00    -0.096 N 
HETATM    8  C   UNL     1      40.611 -13.770   2.634  1.00  0.00     0.104 C 
HETATM    9  C   UNL     1      41.663 -14.386   3.561  1.00  0.00     0.046 C 
HETATM   10  H   UNL     1      42.564 -11.653   5.125  1.00  0.00     0.166 HD
ENDROOT
BRANCH   4  11
HETATM   11  S   UNL     1      40.680  -9.942   4.168  1.00  0.00    -0.102 SA
BRANCH  11  12
HETATM   12  C   UNL     1      40.664  -9.751   5.955  1.00  0.00     0.184 C 
BRANCH  12  13
HETATM   13  C   UNL     1      41.540  -8.642   6.517  1.00  0.00     0.231 C 
HETATM   14  N   UNL     1      41.469  -8.299   7.846  1.00  0.00    -0.324 N 
HETATM   15  H   UNL     1      41.635  -7.312   8.010  1.00  0.00     0.169 HD
HETATM   16  O   UNL     1      42.175  -7.917   5.743  1.00  0.00    -0.272 OA
BRANCH  14  17
HETATM   17  C   UNL     1      40.977  -9.031   8.942  1.00  0.00     0.070 C 
HETATM   18  C   UNL     1      41.729 -10.106   9.450  1.00  0.00     0.095 C 
HETATM   19  C   UNL     1      41.256 -10.812  10.563  1.00  0.00     0.041 C 
HETATM   20  C   UNL     1      40.012 -10.503  11.121  1.00  0.00     0.026 C 
HETATM   21  C   UNL     1      39.227  -9.512  10.545  1.00  0.00     0.036 C 
HETATM   22 CL   UNL     1      37.663  -9.179  11.178  1.00  0.00    -0.084 Cl
HETATM   23  C   UNL     1      39.698  -8.795   9.448  1.00  0.00     0.056 C 
BRANCH  18  24
HETATM   24  O   UNL     1      42.927 -10.352   8.827  1.00  0.00    -0.354 OA
HETATM   25  C   UNL     1      43.909 -11.033   9.602  1.00  0.00     0.210 C 
ENDBRANCH  18  24
ENDBRANCH  14  17
ENDBRANCH  12  13
ENDBRANCH  11  12
ENDBRANCH   4  11
BRANCH   8  26
HETATM   26  C   UNL     1      41.093 -13.702   1.175  1.00  0.00    -0.044 A 
HETATM   27  C   UNL     1      41.847 -12.609   0.706  1.00  0.00     0.008 A 
HETATM   28  C   UNL     1      42.227 -12.522  -0.633  1.00  0.00     0.001 A 
HETATM   29  C   UNL     1      41.852 -13.519  -1.529  1.00  0.00     0.000 A 
HETATM   30  C   UNL     1      41.097 -14.604  -1.084  1.00  0.00     0.001 A 
HETATM   31  C   UNL     1      40.715 -14.695   0.257  1.00  0.00     0.008 A 
ENDBRANCH   8  26
BRANCH   9  32
HETATM   32  C   UNL     1      41.892 -15.871   3.587  1.00  0.00     0.255 C 
HETATM   33  N   UNL     1      43.073 -16.315   3.026  1.00  0.00    -0.321 N 
HETATM   34  H   UNL     1      43.571 -15.723   2.381  1.00  0.00     0.169 HD
HETATM   35  O   UNL     1      40.999 -16.622   3.978  1.00  0.00    -0.268 OA
BRANCH  33  36
HETATM   36  C   UNL     1      43.495 -17.664   3.073  1.00  0.00     0.068 A 
HETATM   37  C   UNL     1      44.059 -18.257   4.223  1.00  0.00     0.095 A 
HETATM   38  C   UNL     1      44.384 -19.617   4.198  1.00  0.00     0.039 A 
HETATM   39  C   UNL     1      44.181 -20.374   3.040  1.00  0.00     0.003 A 
HETATM   40  C   UNL     1      43.684 -19.771   1.889  1.00  0.00     0.002 A 
HETATM   41  C   UNL     1      43.359 -18.415   1.898  1.00  0.00     0.032 A 
BRANCH  37  42
HETATM   42  O   UNL     1      44.372 -17.416   5.261  1.00  0.00    -0.354 OA
HETATM   43  C   UNL     1      44.944 -17.994   6.424  1.00  0.00     0.210 C 
ENDBRANCH  37  42
ENDBRANCH  33  36
ENDBRANCH   9  32
TORSDOF 9
ENDMDL
MODEL 9
REMARK VINA RESULT:      -8.4      5.507      9.549
REMARK  9 active torsions:
REMARK  status: ('A' for Active; 'I' for Inactive)
REMARK    1  A    between atoms: C_4  and  S_5 
REMARK    2  A    between atoms: S_5  and  C_6 
REMARK    3  A    between atoms: C_6  and  C_7 
REMARK       I    between atoms: C_7  and  N_8 
REMARK    4  A    between atoms: N_8  and  C_9 
REMARK    5  A    between atoms: C_10  and  O_11 
REMARK    6  A    between atoms: C_22  and  C_23 
REMARK    7  A    between atoms: C_29  and  C_30 
REMARK       I    between atoms: C_30  and  N_31 
REMARK    8  A    between atoms: N_31  and  C_32 
REMARK    9  A    between atoms: C_33  and  O_34 
ROOT
HETATM    1  C   UNL     1      40.978 -15.674  -2.503  1.00  0.00     0.069 C 
HETATM    2  C   UNL     1      40.970 -14.627  -1.413  1.00  0.00     0.019 C 
HETATM    3  N   UNL     1      41.714 -14.938  -0.289  1.00  0.00    -0.353 N 
HETATM    4  C   UNL     1      41.694 -14.235   0.899  1.00  0.00     0.087 C 
HETATM    5  C   UNL     1      41.069 -13.037   0.938  1.00  0.00     0.055 C 
HETATM    6  C   UNL     1      40.857 -12.261   2.228  1.00  0.00     0.019 C 
HETATM    7  N   UNL     1      40.682 -11.617   3.299  1.00  0.00    -0.096 N 
HETATM    8  C   UNL     1      40.509 -12.421  -0.347  1.00  0.00     0.104 C 
HETATM    9  C   UNL     1      40.334 -13.430  -1.484  1.00  0.00     0.046 C 
HETATM   10  H   UNL     1      42.167 -15.846  -0.249  1.00  0.00     0.166 HD
ENDROOT
BRANCH   4  11
HETATM   11  S   UNL     1      42.629 -14.841   2.234  1.00  0.00    -0.102 SA
BRANCH  11  12
HETATM   12  C   UNL     1      43.170 -16.474   1.716  1.00  0.00     0.184 C 
BRANCH  12  13
HETATM   13  C   UNL     1      42.128 -17.579   1.791  1.00  0.00     0.231 C 
HETATM   14  N   UNL     1      42.257 -18.603   2.698  1.00  0.00    -0.324 N 
HETATM   15  H   UNL     1      41.890 -19.485   2.355  1.00  0.00     0.169 HD
HETATM   16  O   UNL     1      41.268 -17.666   0.906  1.00  0.00    -0.272 OA
BRANCH  14  17
HETATM   17  C   UNL     1      43.014 -18.670   3.883  1.00  0.00     0.070 C 
HETATM   18  C   UNL     1      44.202 -19.422   3.902  1.00  0.00     0.095 C 
HETATM   19  C   UNL     1      44.974 -19.459   5.070  1.00  0.00     0.041 C 
HETATM   20  C   UNL     1      44.532 -18.818   6.231  1.00  0.00     0.026 C 
HETATM   21  C   UNL     1      43.303 -18.170   6.233  1.00  0.00     0.036 C 
HETATM   22 CL   UNL     1      42.718 -17.445   7.679  1.00  0.00    -0.084 Cl
HETATM   23  C   UNL     1      42.538 -18.114   5.071  1.00  0.00     0.056 C 
BRANCH  18  24
HETATM   24  O   UNL     1      44.547 -20.036   2.724  1.00  0.00    -0.354 OA
HETATM   25  C   UNL     1      44.473 -21.459   2.714  1.00  0.00     0.210 C 
ENDBRANCH  18  24
ENDBRANCH  14  17
ENDBRANCH  12  13
ENDBRANCH  11  12
ENDBRANCH   4  11
BRANCH   8  26
HETATM   26  C   UNL     1      41.419 -11.247  -0.748  1.00  0.00    -0.044 A 
HETATM   27  C   UNL     1      40.946  -9.920  -0.735  1.00  0.00     0.008 A 
HETATM   28  C   UNL     1      41.755  -8.867  -1.160  1.00  0.00     0.001 A 
HETATM   29  C   UNL     1      43.046  -9.121  -1.615  1.00  0.00     0.000 A 
HETATM   30  C   UNL     1      43.527 -10.429  -1.644  1.00  0.00     0.001 A 
HETATM   31  C   UNL     1      42.720 -11.487  -1.218  1.00  0.00     0.008 A 
ENDBRANCH   8  26
BRANCH   9  32
HETATM   32  C   UNL     1      39.417 -13.138  -2.639  1.00  0.00     0.255 C 
HETATM   33  N   UNL     1      38.106 -13.545  -2.493  1.00  0.00    -0.321 N 
HETATM   34  H   UNL     1      37.876 -14.251  -1.812  1.00  0.00     0.169 HD
HETATM   35  O   UNL     1      39.875 -12.679  -3.684  1.00  0.00    -0.268 OA
BRANCH  33  36
HETATM   36  C   UNL     1      37.091 -13.245  -3.432  1.00  0.00     0.068 A 
HETATM   37  C   UNL     1      36.464 -11.984  -3.513  1.00  0.00     0.095 A 
HETATM   38  C   UNL     1      35.519 -11.757  -4.519  1.00  0.00     0.039 A 
HETATM   39  C   UNL     1      35.177 -12.775  -5.414  1.00  0.00     0.003 A 
HETATM   40  C   UNL     1      35.751 -14.037  -5.291  1.00  0.00     0.002 A 
HETATM   41  C   UNL     1      36.692 -14.278  -4.290  1.00  0.00     0.032 A 
BRANCH  37  42
HETATM   42  O   UNL     1      36.736 -11.092  -2.507  1.00  0.00    -0.354 OA
HETATM   43  C   UNL     1      37.502  -9.943  -2.836  1.00  0.00     0.210 C 
ENDBRANCH  37  42
ENDBRANCH  33  36
ENDBRANCH   9  32
TORSDOF 9
ENDMDL
MODEL 10
REMARK VINA RESULT:      -8.4      4.601      8.706
REMARK  9 active torsions:
REMARK  status: ('A' for Active; 'I' for Inactive)
REMARK    1  A    between atoms: C_4  and  S_5 
REMARK    2  A    between atoms: S_5  and  C_6 
REMARK    3  A    between atoms: C_6  and  C_7 
REMARK       I    between atoms: C_7  and  N_8 
REMARK    4  A    between atoms: N_8  and  C_9 
REMARK    5  A    between atoms: C_10  and  O_11 
REMARK    6  A    between atoms: C_22  and  C_23 
REMARK    7  A    between atoms: C_29  and  C_30 
REMARK       I    between atoms: C_30  and  N_31 
REMARK    8  A    between atoms: N_31  and  C_32 
REMARK    9  A    between atoms: C_33  and  O_34 
ROOT
HETATM    1  C   UNL     1      40.610 -17.446   0.738  1.00  0.00     0.069 C 
HETATM    2  C   UNL     1      40.780 -15.974   1.035  1.00  0.00     0.019 C 
HETATM    3  N   UNL     1      39.833 -15.142   0.466  1.00  0.00    -0.353 N 
HETATM    4  C   UNL     1      39.900 -13.763   0.433  1.00  0.00     0.087 C 
HETATM    5  C   UNL     1      40.841 -13.138   1.175  1.00  0.00     0.055 C 
HETATM    6  C   UNL     1      41.097 -11.642   1.088  1.00  0.00     0.019 C 
HETATM    7  N   UNL     1      41.309 -10.400   1.016  1.00  0.00    -0.096 N 
HETATM    8  C   UNL     1      41.727 -13.943   2.130  1.00  0.00     0.104 C 
HETATM    9  C   UNL     1      41.747 -15.443   1.828  1.00  0.00     0.046 C 
HETATM   10  H   UNL     1      39.130 -15.558  -0.138  1.00  0.00     0.166 HD
ENDROOT
BRANCH   4  11
HETATM   11  S   UNL     1      38.657 -12.895  -0.417  1.00  0.00    -0.102 SA
BRANCH  11  12
HETATM   12  C   UNL     1      38.097 -14.025  -1.698  1.00  0.00     0.184 C 
BRANCH  12  13
HETATM   13  C   UNL     1      37.936 -13.432  -3.089  1.00  0.00     0.231 C 
HETATM   14  N   UNL     1      38.939 -12.679  -3.651  1.00  0.00    -0.324 N 
HETATM   15  H   UNL     1      38.590 -11.941  -4.253  1.00  0.00     0.169 HD
HETATM   16  O   UNL     1      36.829 -13.463  -3.639  1.00  0.00    -0.272 OA
BRANCH  14  17
HETATM   17  C   UNL     1      40.309 -12.621  -3.335  1.00  0.00     0.070 C 
HETATM   18  C   UNL     1      41.094 -13.782  -3.447  1.00  0.00     0.095 C 
HETATM   19  C   UNL     1      42.465 -13.715  -3.166  1.00  0.00     0.041 C 
HETATM   20  C   UNL     1      43.036 -12.525  -2.706  1.00  0.00     0.026 C 
HETATM   21  C   UNL     1      42.231 -11.413  -2.494  1.00  0.00     0.036 C 
HETATM   22 CL   UNL     1      42.912  -9.969  -1.854  1.00  0.00    -0.084 Cl
HETATM   23  C   UNL     1      40.871 -11.467  -2.786  1.00  0.00     0.056 C 
BRANCH  18  24
HETATM   24  O   UNL     1      40.446 -14.910  -3.884  1.00  0.00    -0.354 OA
HETATM   25  C   UNL     1      40.597 -16.073  -3.076  1.00  0.00     0.210 C 
ENDBRANCH  18  24
ENDBRANCH  14  17
ENDBRANCH  12  13
ENDBRANCH  11  12
ENDBRANCH   4  11
BRANCH   8  26
HETATM   26  C   UNL     1      41.269 -13.647   3.568  1.00  0.00    -0.044 A 
HETATM   27  C   UNL     1      42.043 -12.846   4.430  1.00  0.00     0.008 A 
HETATM   28  C   UNL     1      41.655 -12.634   5.753  1.00  0.00     0.001 A 
HETATM   29  C   UNL     1      40.492 -13.224   6.240  1.00  0.00     0.000 A 
HETATM   30  C   UNL     1      39.719 -14.027   5.403  1.00  0.00     0.001 A 
HETATM   31  C   UNL     1      40.104 -14.242   4.078  1.00  0.00     0.008 A 
ENDBRANCH   8  26
BRANCH   9  32
HETATM   32  C   UNL     1      42.856 -16.318   2.341  1.00  0.00     0.255 C 
HETATM   33  N   UNL     1      42.483 -17.332   3.201  1.00  0.00    -0.321 N 
HETATM   34  H   UNL     1      41.598 -17.280   3.679  1.00  0.00     0.169 HD
HETATM   35  O   UNL     1      44.026 -16.035   2.089  1.00  0.00    -0.268 OA
BRANCH  33  36
HETATM   36  C   UNL     1      43.382 -18.313   3.680  1.00  0.00     0.068 A 
HETATM   37  C   UNL     1      43.904 -18.306   4.992  1.00  0.00     0.095 A 
HETATM   38  C   UNL     1      44.734 -19.355   5.400  1.00  0.00     0.039 A 
HETATM   39  C   UNL     1      45.068 -20.382   4.512  1.00  0.00     0.003 A 
HETATM   40  C   UNL     1      44.603 -20.351   3.200  1.00  0.00     0.002 A 
HETATM   41  C   UNL     1      43.778 -19.309   2.779  1.00  0.00     0.032 A 
BRANCH  37  42
HETATM   42  O   UNL     1      43.659 -17.188   5.749  1.00  0.00    -0.354 OA
HETATM   43  C   UNL     1      42.755 -17.317   6.836  1.00  0.00     0.210 C 
ENDBRANCH  37  42
ENDBRANCH  33  36
ENDBRANCH   9  32
TORSDOF 9
ENDMDL
