MODEL 1
REMARK VINA RESULT:      -7.9      0.000      0.000
REMARK  8 active torsions:
REMARK  status: ('A' for Active; 'I' for Inactive)
REMARK    1  A    between atoms: C_2  and  S_3 
REMARK    2  A    between atoms: S_3  and  C_4 
REMARK    3  A    between atoms: C_4  and  C_5 
REMARK    4  A    between atoms: C_5  and  N_6 
REMARK       I    between atoms: N_6  and  C_7 
REMARK    5  A    between atoms: N_6  and  C_22 
REMARK    6  A    between atoms: C_7  and  C_8 
REMARK    7  A    between atoms: C_12  and  C_13 
REMARK    8  A    between atoms: C_16  and  O_17 
ROOT
HETATM    1  C   UNL     1      42.930 -16.008   2.148  1.00  0.00     0.120 A 
HETATM    2  N   UNL     1      43.322 -16.477   0.925  1.00  0.00    -0.272 N 
HETATM    3  H   UNL     1      43.371 -15.949   0.059  1.00  0.00     0.189 HD
HETATM    4  N   UNL     1      43.656 -17.775   0.909  1.00  0.00    -0.174 NA
HETATM    5  C   UNL     1      43.573 -18.161   2.193  1.00  0.00     0.089 A 
HETATM    6  C   UNL     1      43.146 -17.070   3.003  1.00  0.00     0.071 A 
ENDROOT
BRANCH   1   7
HETATM    7  C   UNL     1      42.540 -14.631   2.320  1.00  0.00     0.272 C 
HETATM    8  N   UNL     1      41.237 -14.203   1.990  1.00  0.00    -0.341 N 
HETATM    9  O   UNL     1      43.378 -13.828   2.732  1.00  0.00    -0.266 OA
BRANCH   8  10
HETATM   10  C   UNL     1      40.971 -12.777   2.245  1.00  0.00     0.136 C 
BRANCH  10  11
HETATM   11  C   UNL     1      40.197 -12.576   3.552  1.00  0.00     0.093 C 
BRANCH  11  12
HETATM   12  S   UNL     1      41.299 -12.008   4.886  1.00  0.00    -0.168 SA
BRANCH  12  13
HETATM   13  C   UNL     1      41.515 -13.599   5.744  1.00  0.00     0.069 C 
HETATM   14  C   UNL     1      40.312 -14.492   5.500  1.00  0.00     0.016 C 
ENDBRANCH  12  13
ENDBRANCH  11  12
ENDBRANCH  10  11
ENDBRANCH   8  10
BRANCH   8  15
HETATM   15  C   UNL     1      40.263 -15.011   1.207  1.00  0.00     0.087 C 
HETATM   16  C   UNL     1      38.792 -14.987   1.680  1.00  0.00     0.025 C 
HETATM   17  C   UNL     1      37.877 -13.939   1.041  1.00  0.00     0.002 C 
HETATM   18  C   UNL     1      38.090 -13.796  -0.460  1.00  0.00     0.000 C 
HETATM   19  C   UNL     1      39.560 -13.589  -0.799  1.00  0.00     0.002 C 
HETATM   20  C   UNL     1      40.397 -14.763  -0.306  1.00  0.00     0.025 C 
ENDBRANCH   8  15
ENDBRANCH   1   7
BRANCH   5  21
HETATM   21  C   UNL     1      43.913 -19.526   2.609  1.00  0.00    -0.005 A 
HETATM   22  C   UNL     1      43.676 -20.610   1.748  1.00  0.00     0.016 A 
HETATM   23  C   UNL     1      44.002 -21.916   2.127  1.00  0.00     0.037 A 
HETATM   24  C   UNL     1      44.564 -22.142   3.377  1.00  0.00     0.065 A 
HETATM   25  C   UNL     1      44.802 -21.088   4.249  1.00  0.00     0.037 A 
HETATM   26  C   UNL     1      44.478 -19.782   3.868  1.00  0.00     0.016 A 
BRANCH  24  27
HETATM   27  O   UNL     1      44.897 -23.397   3.791  1.00  0.00    -0.361 OA
HETATM   28  H   UNL     1      44.535 -24.037   3.155  1.00  0.00     0.217 HD
ENDBRANCH  24  27
ENDBRANCH   5  21
TORSDOF 8
ENDMDL
MODEL 2
REMARK VINA RESULT:      -7.6      0.873      1.709
REMARK  8 active torsions:
REMARK  status: ('A' for Active; 'I' for Inactive)
REMARK    1  A    between atoms: C_2  and  S_3 
REMARK    2  A    between atoms: S_3  and  C_4 
REMARK    3  A    between atoms: C_4  and  C_5 
REMARK    4  A    between atoms: C_5  and  N_6 
REMARK       I    between atoms: N_6  and  C_7 
REMARK    5  A    between atoms: N_6  and  C_22 
REMARK    6  A    between atoms: C_7  and  C_8 
REMARK    7  A    between atoms: C_12  and  C_13 
REMARK    8  A    between atoms: C_16  and  O_17 
ROOT
HETATM    1  C   UNL     1      42.968 -16.050   2.200  1.00  0.00     0.120 A 
HETATM    2  N   UNL     1      43.358 -16.510   0.973  1.00  0.00    -0.272 N 
HETATM    3  H   UNL     1      43.407 -15.975   0.111  1.00  0.00     0.189 HD
HETATM    4  N   UNL     1      43.690 -17.808   0.947  1.00  0.00    -0.174 NA
HETATM    5  C   UNL     1      43.608 -18.204   2.227  1.00  0.00     0.089 A 
HETATM    6  C   UNL     1      43.183 -17.119   3.046  1.00  0.00     0.071 A 
ENDROOT
BRANCH   1   7
HETATM    7  C   UNL     1      42.580 -14.674   2.383  1.00  0.00     0.272 C 
HETATM    8  N   UNL     1      41.279 -14.240   2.052  1.00  0.00    -0.341 N 
HETATM    9  O   UNL     1      43.418 -13.876   2.805  1.00  0.00    -0.266 OA
BRANCH   8  10
HETATM   10  C   UNL     1      41.016 -12.816   2.318  1.00  0.00     0.136 C 
BRANCH  10  11
HETATM   11  C   UNL     1      40.491 -12.600   3.742  1.00  0.00     0.093 C 
BRANCH  11  12
HETATM   12  S   UNL     1      40.232 -10.829   4.083  1.00  0.00    -0.168 SA
BRANCH  12  13
HETATM   13  C   UNL     1      38.413 -10.818   4.045  1.00  0.00     0.069 C 
HETATM   14  C   UNL     1      37.920 -10.625   2.623  1.00  0.00     0.016 C 
ENDBRANCH  12  13
ENDBRANCH  11  12
ENDBRANCH  10  11
ENDBRANCH   8  10
BRANCH   8  15
HETATM   15  C   UNL     1      40.307 -15.039   1.257  1.00  0.00     0.087 C 
HETATM   16  C   UNL     1      38.837 -15.031   1.737  1.00  0.00     0.025 C 
HETATM   17  C   UNL     1      37.914 -13.976   1.120  1.00  0.00     0.002 C 
HETATM   18  C   UNL     1      38.121 -13.804  -0.378  1.00  0.00     0.000 C 
HETATM   19  C   UNL     1      39.588 -13.584  -0.719  1.00  0.00     0.002 C 
HETATM   20  C   UNL     1      40.433 -14.762  -0.251  1.00  0.00     0.025 C 
ENDBRANCH   8  15
ENDBRANCH   1   7
BRANCH   5  21
HETATM   21  C   UNL     1      43.946 -19.573   2.633  1.00  0.00    -0.005 A 
HETATM   22  C   UNL     1      44.500 -19.821   3.899  1.00  0.00     0.016 A 
HETATM   23  C   UNL     1      44.820 -21.120   4.304  1.00  0.00     0.037 A 
HETATM   24  C   UNL     1      44.590 -22.180   3.436  1.00  0.00     0.065 A 
HETATM   25  C   UNL     1      44.050 -21.960   2.175  1.00  0.00     0.037 A 
HETATM   26  C   UNL     1      43.728 -20.660   1.773  1.00  0.00     0.016 A 
BRANCH  24  27
HETATM   27  O   UNL     1      44.887 -23.463   3.785  1.00  0.00    -0.361 OA
HETATM   28  H   UNL     1      44.089 -23.872   4.159  1.00  0.00     0.217 HD
ENDBRANCH  24  27
ENDBRANCH   5  21
TORSDOF 8
ENDMDL
MODEL 3
REMARK VINA RESULT:      -7.2      2.096      3.877
REMARK  8 active torsions:
REMARK  status: ('A' for Active; 'I' for Inactive)
REMARK    1  A    between atoms: C_2  and  S_3 
REMARK    2  A    between atoms: S_3  and  C_4 
REMARK    3  A    between atoms: C_4  and  C_5 
REMARK    4  A    between atoms: C_5  and  N_6 
REMARK       I    between atoms: N_6  and  C_7 
REMARK    5  A    between atoms: N_6  and  C_22 
REMARK    6  A    between atoms: C_7  and  C_8 
REMARK    7  A    between atoms: C_12  and  C_13 
REMARK    8  A    between atoms: C_16  and  O_17 
ROOT
HETATM    1  C   UNL     1      42.346 -16.994   0.878  1.00  0.00     0.120 A 
HETATM    2  N   UNL     1      43.679 -16.699   0.965  1.00  0.00    -0.272 N 
HETATM    3  H   UNL     1      44.137 -15.853   0.639  1.00  0.00     0.189 HD
HETATM    4  N   UNL     1      44.423 -17.656   1.536  1.00  0.00    -0.174 NA
HETATM    5  C   UNL     1      43.536 -18.585   1.928  1.00  0.00     0.089 A 
HETATM    6  C   UNL     1      42.219 -18.189   1.556  1.00  0.00     0.071 A 
ENDROOT
BRANCH   1   7
HETATM    7  C   UNL     1      41.421 -16.060   0.287  1.00  0.00     0.272 C 
HETATM    8  N   UNL     1      40.889 -14.994   1.043  1.00  0.00    -0.341 N 
HETATM    9  O   UNL     1      41.080 -16.229  -0.883  1.00  0.00    -0.266 OA
BRANCH   8  10
HETATM   10  C   UNL     1      39.981 -14.103   0.302  1.00  0.00     0.136 C 
BRANCH  10  11
HETATM   11  C   UNL     1      40.719 -12.874  -0.238  1.00  0.00     0.093 C 
BRANCH  11  12
HETATM   12  S   UNL     1      39.918 -12.239  -1.747  1.00  0.00    -0.168 SA
BRANCH  12  13
HETATM   13  C   UNL     1      40.696 -13.363  -2.949  1.00  0.00     0.069 C 
HETATM   14  C   UNL     1      39.662 -14.316  -3.520  1.00  0.00     0.016 C 
ENDBRANCH  12  13
ENDBRANCH  11  12
ENDBRANCH  10  11
ENDBRANCH   8  10
BRANCH   8  15
HETATM   15  C   UNL     1      40.992 -14.884   2.524  1.00  0.00     0.087 C 
HETATM   16  C   UNL     1      42.199 -14.098   3.086  1.00  0.00     0.025 C 
HETATM   17  C   UNL     1      41.985 -12.606   3.358  1.00  0.00     0.002 C 
HETATM   18  C   UNL     1      40.640 -12.302   4.004  1.00  0.00     0.000 C 
HETATM   19  C   UNL     1      39.493 -12.937   3.231  1.00  0.00     0.002 C 
HETATM   20  C   UNL     1      39.660 -14.449   3.161  1.00  0.00     0.025 C 
ENDBRANCH   8  15
ENDBRANCH   1   7
BRANCH   5  21
HETATM   21  C   UNL     1      43.954 -19.792   2.650  1.00  0.00    -0.005 A 
HETATM   22  C   UNL     1      44.369 -19.710   3.989  1.00  0.00     0.016 A 
HETATM   23  C   UNL     1      44.763 -20.852   4.693  1.00  0.00     0.037 A 
HETATM   24  C   UNL     1      44.746 -22.085   4.053  1.00  0.00     0.065 A 
HETATM   25  C   UNL     1      44.346 -22.192   2.728  1.00  0.00     0.037 A 
HETATM   26  C   UNL     1      43.950 -21.049   2.026  1.00  0.00     0.016 A 
BRANCH  24  27
HETATM   27  O   UNL     1      45.122 -23.226   4.697  1.00  0.00    -0.361 OA
HETATM   28  H   UNL     1      44.704 -23.236   5.575  1.00  0.00     0.217 HD
ENDBRANCH  24  27
ENDBRANCH   5  21
TORSDOF 8
ENDMDL
MODEL 4
REMARK VINA RESULT:      -7.1      2.124      3.417
REMARK  8 active torsions:
REMARK  status: ('A' for Active; 'I' for Inactive)
REMARK    1  A    between atoms: C_2  and  S_3 
REMARK    2  A    between atoms: S_3  and  C_4 
REMARK    3  A    between atoms: C_4  and  C_5 
REMARK    4  A    between atoms: C_5  and  N_6 
REMARK       I    between atoms: N_6  and  C_7 
REMARK    5  A    between atoms: N_6  and  C_22 
REMARK    6  A    between atoms: C_7  and  C_8 
REMARK    7  A    between atoms: C_12  and  C_13 
REMARK    8  A    between atoms: C_16  and  O_17 
ROOT
HETATM    1  C   UNL     1      42.553 -15.504   2.688  1.00  0.00     0.120 A 
HETATM    2  N   UNL     1      41.814 -16.021   3.717  1.00  0.00    -0.272 N 
HETATM    3  H   UNL     1      41.120 -15.530   4.272  1.00  0.00     0.189 HD
HETATM    4  N   UNL     1      42.074 -17.305   3.995  1.00  0.00    -0.174 NA
HETATM    5  C   UNL     1      42.952 -17.685   3.053  1.00  0.00     0.089 A 
HETATM    6  C   UNL     1      43.255 -16.586   2.199  1.00  0.00     0.071 A 
ENDROOT
BRANCH   1   7
HETATM    7  C   UNL     1      42.385 -14.134   2.275  1.00  0.00     0.272 C 
HETATM    8  N   UNL     1      41.304 -13.755   1.450  1.00  0.00    -0.341 N 
HETATM    9  O   UNL     1      43.222 -13.304   2.630  1.00  0.00    -0.266 OA
BRANCH   8  10
HETATM   10  C   UNL     1      41.242 -12.319   1.133  1.00  0.00     0.136 C 
BRANCH  10  11
HETATM   11  C   UNL     1      42.284 -11.932   0.078  1.00  0.00     0.093 C 
BRANCH  11  12
HETATM   12  S   UNL     1      41.553 -10.864  -1.205  1.00  0.00    -0.168 SA
BRANCH  12  13
HETATM   13  C   UNL     1      42.684 -11.281  -2.569  1.00  0.00     0.069 C 
HETATM   14  C   UNL     1      41.895 -11.561  -3.836  1.00  0.00     0.016 C 
ENDBRANCH  12  13
ENDBRANCH  11  12
ENDBRANCH  10  11
ENDBRANCH   8  10
BRANCH   8  15
HETATM   15  C   UNL     1      40.429 -14.715   0.723  1.00  0.00     0.087 C 
HETATM   16  C   UNL     1      39.025 -14.213   0.316  1.00  0.00     0.025 C 
HETATM   17  C   UNL     1      38.888 -13.598  -1.080  1.00  0.00     0.002 C 
HETATM   18  C   UNL     1      39.650 -14.369  -2.149  1.00  0.00     0.000 C 
HETATM   19  C   UNL     1      41.097 -14.608  -1.743  1.00  0.00     0.002 C 
HETATM   20  C   UNL     1      41.169 -15.396  -0.441  1.00  0.00     0.025 C 
ENDBRANCH   8  15
ENDBRANCH   1   7
BRANCH   5  21
HETATM   21  C   UNL     1      43.456 -19.061   2.981  1.00  0.00    -0.005 A 
HETATM   22  C   UNL     1      44.265 -19.575   4.008  1.00  0.00     0.016 A 
HETATM   23  C   UNL     1      44.747 -20.887   3.958  1.00  0.00     0.037 A 
HETATM   24  C   UNL     1      44.423 -21.690   2.872  1.00  0.00     0.065 A 
HETATM   25  C   UNL     1      43.630 -21.203   1.840  1.00  0.00     0.037 A 
HETATM   26  C   UNL     1      43.147 -19.892   1.893  1.00  0.00     0.016 A 
BRANCH  24  27
HETATM   27  O   UNL     1      44.869 -22.973   2.778  1.00  0.00    -0.361 OA
HETATM   28  H   UNL     1      45.628 -23.080   3.377  1.00  0.00     0.217 HD
ENDBRANCH  24  27
ENDBRANCH   5  21
TORSDOF 8
ENDMDL
MODEL 5
REMARK VINA RESULT:      -7.0      1.754      3.404
REMARK  8 active torsions:
REMARK  status: ('A' for Active; 'I' for Inactive)
REMARK    1  A    between atoms: C_2  and  S_3 
REMARK    2  A    between atoms: S_3  and  C_4 
REMARK    3  A    between atoms: C_4  and  C_5 
REMARK    4  A    between atoms: C_5  and  N_6 
REMARK       I    between atoms: N_6  and  C_7 
REMARK    5  A    between atoms: N_6  and  C_22 
REMARK    6  A    between atoms: C_7  and  C_8 
REMARK    7  A    between atoms: C_12  and  C_13 
REMARK    8  A    between atoms: C_16  and  O_17 
ROOT
HETATM    1  C   UNL     1      41.947 -16.542   1.440  1.00  0.00     0.120 A 
HETATM    2  N   UNL     1      43.203 -16.488   0.902  1.00  0.00    -0.272 N 
HETATM    3  H   UNL     1      43.605 -15.719   0.375  1.00  0.00     0.189 HD
HETATM    4  N   UNL     1      43.941 -17.587   1.106  1.00  0.00    -0.174 NA
HETATM    5  C   UNL     1      43.179 -18.366   1.890  1.00  0.00     0.089 A 
HETATM    6  C   UNL     1      41.930 -17.729   2.143  1.00  0.00     0.071 A 
ENDROOT
BRANCH   1   7
HETATM    7  C   UNL     1      41.037 -15.432   1.302  1.00  0.00     0.272 C 
HETATM    8  N   UNL     1      40.794 -14.558   2.382  1.00  0.00    -0.341 N 
HETATM    9  O   UNL     1      40.450 -15.281   0.229  1.00  0.00    -0.266 OA
BRANCH   8  10
HETATM   10  C   UNL     1      39.865 -13.454   2.088  1.00  0.00     0.136 C 
BRANCH  10  11
HETATM   11  C   UNL     1      40.618 -12.159   1.763  1.00  0.00     0.093 C 
BRANCH  11  12
HETATM   12  S   UNL     1      39.459 -10.788   1.451  1.00  0.00    -0.168 SA
BRANCH  12  13
HETATM   13  C   UNL     1      39.320 -10.169   3.156  1.00  0.00     0.069 C 
HETATM   14  C   UNL     1      40.683  -9.739   3.670  1.00  0.00     0.016 C 
ENDBRANCH  12  13
ENDBRANCH  11  12
ENDBRANCH  10  11
ENDBRANCH   8  10
BRANCH   8  15
HETATM   15  C   UNL     1      41.203 -14.829   3.787  1.00  0.00     0.087 C 
HETATM   16  C   UNL     1      42.503 -14.153   4.281  1.00  0.00     0.025 C 
HETATM   17  C   UNL     1      42.355 -12.795   4.974  1.00  0.00     0.002 C 
HETATM   18  C   UNL     1      41.175 -12.739   5.934  1.00  0.00     0.000 C 
HETATM   19  C   UNL     1      39.890 -13.211   5.269  1.00  0.00     0.002 C 
HETATM   20  C   UNL     1      40.035 -14.643   4.771  1.00  0.00     0.025 C 
ENDBRANCH   8  15
ENDBRANCH   1   7
BRANCH   5  21
HETATM   21  C   UNL     1      43.656 -19.662   2.385  1.00  0.00    -0.005 A 
HETATM   22  C   UNL     1      44.263 -19.760   3.647  1.00  0.00     0.016 A 
HETATM   23  C   UNL     1      44.716 -20.989   4.137  1.00  0.00     0.037 A 
HETATM   24  C   UNL     1      44.566 -22.129   3.357  1.00  0.00     0.065 A 
HETATM   25  C   UNL     1      43.975 -22.058   2.102  1.00  0.00     0.037 A 
HETATM   26  C   UNL     1      43.520 -20.828   1.615  1.00  0.00     0.016 A 
BRANCH  24  27
HETATM   27  O   UNL     1      44.993 -23.348   3.789  1.00  0.00    -0.361 OA
HETATM   28  H   UNL     1      44.713 -24.019   3.144  1.00  0.00     0.217 HD
ENDBRANCH  24  27
ENDBRANCH   5  21
TORSDOF 8
ENDMDL
MODEL 6
REMARK VINA RESULT:      -6.9      2.215      3.219
REMARK  8 active torsions:
REMARK  status: ('A' for Active; 'I' for Inactive)
REMARK    1  A    between atoms: C_2  and  S_3 
REMARK    2  A    between atoms: S_3  and  C_4 
REMARK    3  A    between atoms: C_4  and  C_5 
REMARK    4  A    between atoms: C_5  and  N_6 
REMARK       I    between atoms: N_6  and  C_7 
REMARK    5  A    between atoms: N_6  and  C_22 
REMARK    6  A    between atoms: C_7  and  C_8 
REMARK    7  A    between atoms: C_12  and  C_13 
REMARK    8  A    between atoms: C_16  and  O_17 
ROOT
HETATM    1  C   UNL     1      41.857 -16.029   2.142  1.00  0.00     0.120 A 
HETATM    2  N   UNL     1      43.165 -15.755   2.435  1.00  0.00    -0.272 N 
HETATM    3  H   UNL     1      43.587 -14.835   2.524  1.00  0.00     0.189 HD
HETATM    4  N   UNL     1      43.935 -16.838   2.602  1.00  0.00    -0.174 NA
HETATM    5  C   UNL     1      43.085 -17.874   2.509  1.00  0.00     0.089 A 
HETATM    6  C   UNL     1      41.768 -17.402   2.248  1.00  0.00     0.071 A 
ENDROOT
BRANCH   1   7
HETATM    7  C   UNL     1      40.909 -14.964   1.934  1.00  0.00     0.272 C 
HETATM    8  N   UNL     1      40.710 -14.413   0.650  1.00  0.00    -0.341 N 
HETATM    9  O   UNL     1      40.297 -14.521   2.907  1.00  0.00    -0.266 OA
BRANCH   8  10
HETATM   10  C   UNL     1      39.690 -13.354   0.582  1.00  0.00     0.136 C 
BRANCH  10  11
HETATM   11  C   UNL     1      38.366 -13.884   0.023  1.00  0.00     0.093 C 
BRANCH  11  12
HETATM   12  S   UNL     1      37.480 -12.589  -0.902  1.00  0.00    -0.168 SA
BRANCH  12  13
HETATM   13  C   UNL     1      36.429 -11.973   0.451  1.00  0.00     0.069 C 
HETATM   14  C   UNL     1      37.024 -10.708   1.042  1.00  0.00     0.016 C 
ENDBRANCH  12  13
ENDBRANCH  11  12
ENDBRANCH  10  11
ENDBRANCH   8  10
BRANCH   8  15
HETATM   15  C   UNL     1      41.606 -14.657  -0.513  1.00  0.00     0.087 C 
HETATM   16  C   UNL     1      41.157 -15.731  -1.530  1.00  0.00     0.025 C 
HETATM   17  C   UNL     1      40.338 -15.247  -2.730  1.00  0.00     0.002 C 
HETATM   18  C   UNL     1      40.865 -13.950  -3.329  1.00  0.00     0.000 C 
HETATM   19  C   UNL     1      41.051 -12.878  -2.264  1.00  0.00     0.002 C 
HETATM   20  C   UNL     1      42.031 -13.345  -1.195  1.00  0.00     0.025 C 
ENDBRANCH   8  15
ENDBRANCH   1   7
BRANCH   5  21
HETATM   21  C   UNL     1      43.538 -19.258   2.687  1.00  0.00    -0.005 A 
HETATM   22  C   UNL     1      43.232 -20.234   1.724  1.00  0.00     0.016 A 
HETATM   23  C   UNL     1      43.663 -21.556   1.874  1.00  0.00     0.037 A 
HETATM   24  C   UNL     1      44.401 -21.907   2.997  1.00  0.00     0.065 A 
HETATM   25  C   UNL     1      44.711 -20.963   3.967  1.00  0.00     0.037 A 
HETATM   26  C   UNL     1      44.281 -19.641   3.814  1.00  0.00     0.016 A 
BRANCH  24  27
HETATM   27  O   UNL     1      44.842 -23.182   3.188  1.00  0.00    -0.361 OA
HETATM   28  H   UNL     1      44.799 -23.653   2.338  1.00  0.00     0.217 HD
ENDBRANCH  24  27
ENDBRANCH   5  21
TORSDOF 8
ENDMDL
MODEL 7
REMARK VINA RESULT:      -6.7      3.245      5.113
REMARK  8 active torsions:
REMARK  status: ('A' for Active; 'I' for Inactive)
REMARK    1  A    between atoms: C_2  and  S_3 
REMARK    2  A    between atoms: S_3  and  C_4 
REMARK    3  A    between atoms: C_4  and  C_5 
REMARK    4  A    between atoms: C_5  and  N_6 
REMARK       I    between atoms: N_6  and  C_7 
REMARK    5  A    between atoms: N_6  and  C_22 
REMARK    6  A    between atoms: C_7  and  C_8 
REMARK    7  A    between atoms: C_12  and  C_13 
REMARK    8  A    between atoms: C_16  and  O_17 
ROOT
HETATM    1  C   UNL     1      40.292 -14.938   0.841  1.00  0.00     0.120 A 
HETATM    2  N   UNL     1      39.977 -14.866   2.170  1.00  0.00    -0.272 N 
HETATM    3  H   UNL     1      39.296 -14.248   2.601  1.00  0.00     0.189 HD
HETATM    4  N   UNL     1      40.670 -15.706   2.950  1.00  0.00    -0.174 NA
HETATM    5  C   UNL     1      41.408 -16.432   2.094  1.00  0.00     0.089 A 
HETATM    6  C   UNL     1      41.175 -15.995   0.759  1.00  0.00     0.071 A 
ENDROOT
BRANCH   1   7
HETATM    7  C   UNL     1      39.629 -14.094  -0.121  1.00  0.00     0.272 C 
HETATM    8  N   UNL     1      40.372 -13.295  -1.015  1.00  0.00    -0.341 N 
HETATM    9  O   UNL     1      38.398 -14.058  -0.125  1.00  0.00    -0.266 OA
BRANCH   8  10
HETATM   10  C   UNL     1      39.564 -12.507  -1.960  1.00  0.00     0.136 C 
BRANCH  10  11
HETATM   11  C   UNL     1      39.336 -13.266  -3.272  1.00  0.00     0.093 C 
BRANCH  11  12
HETATM   12  S   UNL     1      37.559 -13.529  -3.578  1.00  0.00    -0.168 SA
BRANCH  12  13
HETATM   13  C   UNL     1      37.577 -15.346  -3.680  1.00  0.00     0.069 C 
HETATM   14  C   UNL     1      38.971 -15.837  -4.025  1.00  0.00     0.016 C 
ENDBRANCH  12  13
ENDBRANCH  11  12
ENDBRANCH  10  11
ENDBRANCH   8  10
BRANCH   8  15
HETATM   15  C   UNL     1      41.832 -13.032  -0.888  1.00  0.00     0.087 C 
HETATM   16  C   UNL     1      42.616 -12.787  -2.197  1.00  0.00     0.025 C 
HETATM   17  C   UNL     1      42.767 -11.332  -2.650  1.00  0.00     0.002 C 
HETATM   18  C   UNL     1      43.078 -10.378  -1.505  1.00  0.00     0.000 C 
HETATM   19  C   UNL     1      42.094 -10.545  -0.356  1.00  0.00     0.002 C 
HETATM   20  C   UNL     1      42.131 -11.969   0.183  1.00  0.00     0.025 C 
ENDBRANCH   8  15
ENDBRANCH   1   7
BRANCH   5  21
HETATM   21  C   UNL     1      42.284 -17.513   2.559  1.00  0.00    -0.005 A 
HETATM   22  C   UNL     1      42.961 -18.325   1.634  1.00  0.00     0.016 A 
HETATM   23  C   UNL     1      43.806 -19.354   2.060  1.00  0.00     0.037 A 
HETATM   24  C   UNL     1      43.972 -19.578   3.421  1.00  0.00     0.065 A 
HETATM   25  C   UNL     1      43.309 -18.794   4.356  1.00  0.00     0.037 A 
HETATM   26  C   UNL     1      42.466 -17.764   3.927  1.00  0.00     0.016 A 
BRANCH  24  27
HETATM   27  O   UNL     1      44.784 -20.569   3.884  1.00  0.00    -0.361 OA
HETATM   28  H   UNL     1      45.425 -20.793   3.189  1.00  0.00     0.217 HD
ENDBRANCH  24  27
ENDBRANCH   5  21
TORSDOF 8
ENDMDL
MODEL 8
REMARK VINA RESULT:      -6.6      4.922      9.250
REMARK  8 active torsions:
REMARK  status: ('A' for Active; 'I' for Inactive)
REMARK    1  A    between atoms: C_2  and  S_3 
REMARK    2  A    between atoms: S_3  and  C_4 
REMARK    3  A    between atoms: C_4  and  C_5 
REMARK    4  A    between atoms: C_5  and  N_6 
REMARK       I    between atoms: N_6  and  C_7 
REMARK    5  A    between atoms: N_6  and  C_22 
REMARK    6  A    between atoms: C_7  and  C_8 
REMARK    7  A    between atoms: C_12  and  C_13 
REMARK    8  A    between atoms: C_16  and  O_17 
ROOT
HETATM    1  C   UNL     1      44.084 -13.488   6.637  1.00  0.00     0.120 A 
HETATM    2  N   UNL     1      45.220 -13.650   7.382  1.00  0.00    -0.272 N 
HETATM    3  H   UNL     1      46.024 -14.223   7.147  1.00  0.00     0.189 HD
HETATM    4  N   UNL     1      45.224 -12.973   8.539  1.00  0.00    -0.174 NA
HETATM    5  C   UNL     1      44.087 -12.260   8.518  1.00  0.00     0.089 A 
HETATM    6  C   UNL     1      43.360 -12.537   7.326  1.00  0.00     0.071 A 
ENDROOT
BRANCH   1   7
HETATM    7  C   UNL     1      43.934 -14.154   5.368  1.00  0.00     0.272 C 
HETATM    8  N   UNL     1      43.555 -15.512   5.305  1.00  0.00    -0.341 N 
HETATM    9  O   UNL     1      44.174 -13.523   4.338  1.00  0.00    -0.266 OA
BRANCH   8  10
HETATM   10  C   UNL     1      43.412 -16.052   3.943  1.00  0.00     0.136 C 
BRANCH  10  11
HETATM   11  C   UNL     1      41.953 -16.015   3.475  1.00  0.00     0.093 C 
BRANCH  11  12
HETATM   12  S   UNL     1      41.581 -17.418   2.375  1.00  0.00    -0.168 SA
BRANCH  12  13
HETATM   13  C   UNL     1      43.221 -18.208   2.394  1.00  0.00     0.069 C 
HETATM   14  C   UNL     1      43.101 -19.674   2.015  1.00  0.00     0.016 C 
ENDBRANCH  12  13
ENDBRANCH  11  12
ENDBRANCH  10  11
ENDBRANCH   8  10
BRANCH   8  15
HETATM   15  C   UNL     1      43.546 -16.434   6.474  1.00  0.00     0.087 C 
HETATM   16  C   UNL     1      42.364 -17.426   6.574  1.00  0.00     0.025 C 
HETATM   17  C   UNL     1      42.569 -18.810   5.951  1.00  0.00     0.002 C 
HETATM   18  C   UNL     1      43.947 -19.393   6.231  1.00  0.00     0.000 C 
HETATM   19  C   UNL     1      45.054 -18.410   5.875  1.00  0.00     0.002 C 
HETATM   20  C   UNL     1      44.907 -17.121   6.673  1.00  0.00     0.025 C 
ENDBRANCH   8  15
ENDBRANCH   1   7
BRANCH   5  21
HETATM   21  C   UNL     1      43.738 -11.336   9.604  1.00  0.00    -0.005 A 
HETATM   22  C   UNL     1      42.602 -10.518   9.501  1.00  0.00     0.016 A 
HETATM   23  C   UNL     1      42.251  -9.638  10.530  1.00  0.00     0.037 A 
HETATM   24  C   UNL     1      43.044  -9.572  11.668  1.00  0.00     0.065 A 
HETATM   25  C   UNL     1      44.177 -10.366  11.792  1.00  0.00     0.037 A 
HETATM   26  C   UNL     1      44.525 -11.247  10.762  1.00  0.00     0.016 A 
BRANCH  24  27
HETATM   27  O   UNL     1      42.744  -8.730  12.697  1.00  0.00    -0.361 OA
HETATM   28  H   UNL     1      43.460  -8.078  12.780  1.00  0.00     0.217 HD
ENDBRANCH  24  27
ENDBRANCH   5  21
TORSDOF 8
ENDMDL
MODEL 9
REMARK VINA RESULT:      -6.6      2.866      4.286
REMARK  8 active torsions:
REMARK  status: ('A' for Active; 'I' for Inactive)
REMARK    1  A    between atoms: C_2  and  S_3 
REMARK    2  A    between atoms: S_3  and  C_4 
REMARK    3  A    between atoms: C_4  and  C_5 
REMARK    4  A    between atoms: C_5  and  N_6 
REMARK       I    between atoms: N_6  and  C_7 
REMARK    5  A    between atoms: N_6  and  C_22 
REMARK    6  A    between atoms: C_7  and  C_8 
REMARK    7  A    between atoms: C_12  and  C_13 
REMARK    8  A    between atoms: C_16  and  O_17 
ROOT
HETATM    1  C   UNL     1      41.601 -16.212   0.393  1.00  0.00     0.120 A 
HETATM    2  N   UNL     1      40.622 -17.131   0.656  1.00  0.00    -0.272 N 
HETATM    3  H   UNL     1      39.665 -17.113   0.317  1.00  0.00     0.189 HD
HETATM    4  N   UNL     1      41.005 -18.135   1.456  1.00  0.00    -0.174 NA
HETATM    5  C   UNL     1      42.316 -17.925   1.658  1.00  0.00     0.089 A 
HETATM    6  C   UNL     1      42.730 -16.742   0.983  1.00  0.00     0.071 A 
ENDROOT
BRANCH   1   7
HETATM    7  C   UNL     1      41.337 -15.075  -0.452  1.00  0.00     0.272 C 
HETATM    8  N   UNL     1      41.143 -13.791   0.102  1.00  0.00    -0.341 N 
HETATM    9  O   UNL     1      41.252 -15.251  -1.668  1.00  0.00    -0.266 OA
BRANCH   8  10
HETATM   10  C   UNL     1      40.912 -12.721  -0.882  1.00  0.00     0.136 C 
BRANCH  10  11
HETATM   11  C   UNL     1      42.230 -12.092  -1.346  1.00  0.00     0.093 C 
BRANCH  11  12
HETATM   12  S   UNL     1      42.434 -12.256  -3.150  1.00  0.00    -0.168 SA
BRANCH  12  13
HETATM   13  C   UNL     1      41.658 -10.687  -3.646  1.00  0.00     0.069 C 
HETATM   14  C   UNL     1      42.455 -10.038  -4.763  1.00  0.00     0.016 C 
ENDBRANCH  12  13
ENDBRANCH  11  12
ENDBRANCH  10  11
ENDBRANCH   8  10
BRANCH   8  15
HETATM   15  C   UNL     1      40.920 -13.530   1.550  1.00  0.00     0.087 C 
HETATM   16  C   UNL     1      41.450 -12.190   2.110  1.00  0.00     0.025 C 
HETATM   17  C   UNL     1      40.473 -11.011   2.123  1.00  0.00     0.002 C 
HETATM   18  C   UNL     1      39.070 -11.402   2.564  1.00  0.00     0.000 C 
HETATM   19  C   UNL     1      38.550 -12.598   1.780  1.00  0.00     0.002 C 
HETATM   20  C   UNL     1      39.463 -13.803   1.964  1.00  0.00     0.025 C 
ENDBRANCH   8  15
ENDBRANCH   1   7
BRANCH   5  21
HETATM   21  C   UNL     1      43.129 -18.849   2.457  1.00  0.00    -0.005 A 
HETATM   22  C   UNL     1      43.529 -20.085   1.923  1.00  0.00     0.016 A 
HETATM   23  C   UNL     1      44.311 -20.974   2.668  1.00  0.00     0.037 A 
HETATM   24  C   UNL     1      44.692 -20.627   3.958  1.00  0.00     0.065 A 
HETATM   25  C   UNL     1      44.304 -19.414   4.512  1.00  0.00     0.037 A 
HETATM   26  C   UNL     1      43.525 -18.526   3.764  1.00  0.00     0.016 A 
BRANCH  24  27
HETATM   27  O   UNL     1      45.452 -21.460   4.723  1.00  0.00    -0.361 OA
HETATM   28  H   UNL     1      46.283 -21.639   4.251  1.00  0.00     0.217 HD
ENDBRANCH  24  27
ENDBRANCH   5  21
TORSDOF 8
ENDMDL
MODEL 10
REMARK VINA RESULT:      -6.5      1.627      2.070
REMARK  8 active torsions:
REMARK  status: ('A' for Active; 'I' for Inactive)
REMARK    1  A    between atoms: C_2  and  S_3 
REMARK    2  A    between atoms: S_3  and  C_4 
REMARK    3  A    between atoms: C_4  and  C_5 
REMARK    4  A    between atoms: C_5  and  N_6 
REMARK       I    between atoms: N_6  and  C_7 
REMARK    5  A    between atoms: N_6  and  C_22 
REMARK    6  A    between atoms: C_7  and  C_8 
REMARK    7  A    between atoms: C_12  and  C_13 
REMARK    8  A    between atoms: C_16  and  O_17 
ROOT
HETATM    1  C   UNL     1      42.565 -15.514   3.582  1.00  0.00     0.120 A 
HETATM    2  N   UNL     1      43.538 -15.450   2.622  1.00  0.00    -0.272 N 
HETATM    3  H   UNL     1      43.891 -14.611   2.172  1.00  0.00     0.189 HD
HETATM    4  N   UNL     1      44.039 -16.638   2.260  1.00  0.00    -0.174 NA
HETATM    5  C   UNL     1      43.443 -17.520   3.079  1.00  0.00     0.089 A 
HETATM    6  C   UNL     1      42.532 -16.846   3.941  1.00  0.00     0.071 A 
ENDROOT
BRANCH   1   7
HETATM    7  C   UNL     1      41.931 -14.316   4.072  1.00  0.00     0.272 C 
HETATM    8  N   UNL     1      40.902 -13.691   3.337  1.00  0.00    -0.341 N 
HETATM    9  O   UNL     1      42.328 -13.830   5.132  1.00  0.00    -0.266 OA
BRANCH   8  10
HETATM   10  C   UNL     1      40.327 -12.494   3.972  1.00  0.00     0.136 C 
BRANCH  10  11
HETATM   11  C   UNL     1      39.310 -12.867   5.055  1.00  0.00     0.093 C 
BRANCH  11  12
HETATM   12  S   UNL     1      39.651 -11.980   6.610  1.00  0.00    -0.168 SA
BRANCH  12  13
HETATM   13  C   UNL     1      40.932 -10.845   5.988  1.00  0.00     0.069 C 
HETATM   14  C   UNL     1      41.356  -9.884   7.084  1.00  0.00     0.016 C 
ENDBRANCH  12  13
ENDBRANCH  11  12
ENDBRANCH  10  11
ENDBRANCH   8  10
BRANCH   8  15
HETATM   15  C   UNL     1      40.569 -14.013   1.923  1.00  0.00     0.087 C 
HETATM   16  C   UNL     1      39.241 -14.764   1.669  1.00  0.00     0.025 C 
HETATM   17  C   UNL     1      38.006 -13.905   1.379  1.00  0.00     0.002 C 
HETATM   18  C   UNL     1      38.295 -12.740   0.444  1.00  0.00     0.000 C 
HETATM   19  C   UNL     1      39.489 -11.924   0.919  1.00  0.00     0.002 C 
HETATM   20  C   UNL     1      40.738 -12.793   1.001  1.00  0.00     0.025 C 
ENDBRANCH   8  15
ENDBRANCH   1   7
BRANCH   5  21
HETATM   21  C   UNL     1      43.764 -18.951   3.032  1.00  0.00    -0.005 A 
HETATM   22  C   UNL     1      44.454 -19.558   4.095  1.00  0.00     0.016 A 
HETATM   23  C   UNL     1      44.760 -20.922   4.070  1.00  0.00     0.037 A 
HETATM   24  C   UNL     1      44.380 -21.685   2.973  1.00  0.00     0.065 A 
HETATM   25  C   UNL     1      43.703 -21.107   1.906  1.00  0.00     0.037 A 
HETATM   26  C   UNL     1      43.395 -19.744   1.935  1.00  0.00     0.016 A 
BRANCH  24  27
HETATM   27  O   UNL     1      44.657 -23.017   2.902  1.00  0.00    -0.361 OA
HETATM   28  H   UNL     1      45.259 -23.167   2.154  1.00  0.00     0.217 HD
ENDBRANCH  24  27
ENDBRANCH   5  21
TORSDOF 8
ENDMDL
