MODEL 1
REMARK VINA RESULT:      -8.9      0.000      0.000
REMARK  5 active torsions:
REMARK  status: ('A' for Active; 'I' for Inactive)
REMARK    1  A    between atoms: C_3  and  O_4 
REMARK    2  A    between atoms: O_4  and  C_5 
REMARK    3  A    between atoms: C_5  and  C_6 
REMARK    4  A    between atoms: C_13  and  N_14 
REMARK       I    between atoms: N_14  and  C_15 
REMARK    5  A    between atoms: C_15  and  C_16 
ROOT
HETATM    1  N   UNL     1      41.893 -17.914   1.690  1.00  0.00    -0.323 N 
HETATM    2  C   UNL     1      43.244 -18.067   1.947  1.00  0.00     0.258 C 
HETATM    3  O   UNL     1      44.095 -17.185   1.911  1.00  0.00    -0.267 OA
HETATM    4  H   UNL     1      41.288 -18.694   1.906  1.00  0.00     0.169 HD
ENDROOT
BRANCH   1   5
HETATM    5  C   UNL     1      41.233 -16.752   1.232  1.00  0.00     0.037 A 
HETATM    6  C   UNL     1      41.556 -16.075   0.054  1.00  0.00     0.066 A 
HETATM    7  C   UNL     1      40.849 -14.930  -0.339  1.00  0.00     0.071 A 
HETATM    8  C   UNL     1      39.796 -14.467   0.448  1.00  0.00     0.037 A 
HETATM    9  C   UNL     1      39.463 -15.137   1.626  1.00  0.00     0.005 A 
HETATM   10  C   UNL     1      40.178 -16.269   2.016  1.00  0.00     0.029 A 
BRANCH   7  11
HETATM   11  O   UNL     1      41.285 -14.364  -1.506  1.00  0.00    -0.347 OA
BRANCH  11  12
HETATM   12  C   UNL     1      41.088 -15.106  -2.709  1.00  0.00     0.215 C 
BRANCH  12  13
HETATM   13  C   UNL     1      39.709 -14.831  -3.239  1.00  0.00    -0.017 A 
HETATM   14  C   UNL     1      38.990 -15.810  -3.916  1.00  0.00     0.125 A 
HETATM   15  N   UNL     1      37.728 -15.649  -4.377  1.00  0.00    -0.272 NA
HETATM   16  C   UNL     1      37.152 -14.447  -4.154  1.00  0.00     0.116 A 
HETATM   17  C   UNL     1      37.774 -13.407  -3.486  1.00  0.00     0.020 A 
HETATM   18  C   UNL     1      39.070 -13.606  -3.020  1.00  0.00     0.012 A 
ENDBRANCH  12  13
ENDBRANCH  11  12
ENDBRANCH   7  11
ENDBRANCH   1   5
BRANCH   2  19
HETATM   19  C   UNL     1      43.665 -19.441   2.348  1.00  0.00     0.059 A 
HETATM   20  C   UNL     1      43.996 -19.716   3.669  1.00  0.00     0.057 A 
HETATM   21  C   UNL     1      44.379 -20.988   4.094  1.00  0.00    -0.022 A 
HETATM   22  N   UNL     1      44.015 -18.851   4.758  1.00  0.00    -0.325 N 
HETATM   23  C   UNL     1      44.667 -20.961   5.567  1.00  0.00     0.144 A 
HETATM   24  C   UNL     1      44.460 -22.042   3.202  1.00  0.00     0.010 A 
HETATM   25  C   UNL     1      44.410 -19.493   5.922  1.00  0.00     0.226 A 
HETATM   26  O   UNL     1      44.531 -18.984   7.023  1.00  0.00    -0.273 OA
HETATM   27  C   UNL     1      44.160 -21.788   1.861  1.00  0.00     0.002 A 
HETATM   28  C   UNL     1      43.772 -20.502   1.433  1.00  0.00     0.019 A 
HETATM   29  H   UNL     1      43.819 -17.857   4.687  1.00  0.00     0.169 HD
ENDBRANCH   2  19
TORSDOF 5
ENDMDL
MODEL 2
REMARK VINA RESULT:      -8.8      1.843      2.670
REMARK  5 active torsions:
REMARK  status: ('A' for Active; 'I' for Inactive)
REMARK    1  A    between atoms: C_3  and  O_4 
REMARK    2  A    between atoms: O_4  and  C_5 
REMARK    3  A    between atoms: C_5  and  C_6 
REMARK    4  A    between atoms: C_13  and  N_14 
REMARK       I    between atoms: N_14  and  C_15 
REMARK    5  A    between atoms: C_15  and  C_16 
ROOT
HETATM    1  N   UNL     1      41.772 -16.124   2.617  1.00  0.00    -0.323 N 
HETATM    2  C   UNL     1      42.123 -17.430   2.322  1.00  0.00     0.258 C 
HETATM    3  O   UNL     1      41.788 -18.066   1.328  1.00  0.00    -0.267 OA
HETATM    4  H   UNL     1      42.245 -15.680   3.392  1.00  0.00     0.169 HD
ENDROOT
BRANCH   1   5
HETATM    5  C   UNL     1      40.879 -15.294   1.904  1.00  0.00     0.037 A 
HETATM    6  C   UNL     1      41.220 -14.568   0.761  1.00  0.00     0.066 A 
HETATM    7  C   UNL     1      40.273 -13.770   0.103  1.00  0.00     0.071 A 
HETATM    8  C   UNL     1      38.967 -13.711   0.586  1.00  0.00     0.037 A 
HETATM    9  C   UNL     1      38.615 -14.434   1.726  1.00  0.00     0.005 A 
HETATM   10  C   UNL     1      39.565 -15.218   2.381  1.00  0.00     0.029 A 
BRANCH   7  11
HETATM   11  O   UNL     1      40.752 -13.106  -0.993  1.00  0.00    -0.347 OA
BRANCH  11  12
HETATM   12  C   UNL     1      39.801 -12.667  -1.962  1.00  0.00     0.215 C 
BRANCH  12  13
HETATM   13  C   UNL     1      39.374 -13.840  -2.801  1.00  0.00    -0.017 A 
HETATM   14  C   UNL     1      40.312 -14.674  -3.400  1.00  0.00     0.125 A 
HETATM   15  N   UNL     1      40.001 -15.773  -4.127  1.00  0.00    -0.272 NA
HETATM   16  C   UNL     1      38.688 -16.054  -4.266  1.00  0.00     0.116 A 
HETATM   17  C   UNL     1      37.674 -15.295  -3.708  1.00  0.00     0.020 A 
HETATM   18  C   UNL     1      38.025 -14.175  -2.961  1.00  0.00     0.012 A 
ENDBRANCH  12  13
ENDBRANCH  11  12
ENDBRANCH   7  11
ENDBRANCH   1   5
BRANCH   2  19
HETATM   19  C   UNL     1      43.036 -18.083   3.305  1.00  0.00     0.059 A 
HETATM   20  C   UNL     1      43.548 -19.349   3.054  1.00  0.00     0.057 A 
HETATM   21  C   UNL     1      44.417 -19.993   3.935  1.00  0.00    -0.022 A 
HETATM   22  N   UNL     1      43.320 -20.177   1.959  1.00  0.00    -0.325 N 
HETATM   23  C   UNL     1      44.792 -21.337   3.381  1.00  0.00     0.144 A 
HETATM   24  C   UNL     1      44.799 -19.393   5.121  1.00  0.00     0.010 A 
HETATM   25  C   UNL     1      44.004 -21.379   2.068  1.00  0.00     0.226 A 
HETATM   26  O   UNL     1      43.982 -22.298   1.267  1.00  0.00    -0.273 OA
HETATM   27  C   UNL     1      44.277 -18.130   5.414  1.00  0.00     0.002 A 
HETATM   28  C   UNL     1      43.400 -17.481   4.522  1.00  0.00     0.019 A 
HETATM   29  H   UNL     1      42.682 -19.944   1.205  1.00  0.00     0.169 HD
ENDBRANCH   2  19
TORSDOF 5
ENDMDL
MODEL 3
REMARK VINA RESULT:      -8.5      2.808      3.779
REMARK  5 active torsions:
REMARK  status: ('A' for Active; 'I' for Inactive)
REMARK    1  A    between atoms: C_3  and  O_4 
REMARK    2  A    between atoms: O_4  and  C_5 
REMARK    3  A    between atoms: C_5  and  C_6 
REMARK    4  A    between atoms: C_13  and  N_14 
REMARK       I    between atoms: N_14  and  C_15 
REMARK    5  A    between atoms: C_15  and  C_16 
ROOT
HETATM    1  N   UNL     1      41.448 -16.085   2.067  1.00  0.00    -0.323 N 
HETATM    2  C   UNL     1      41.673 -17.451   2.043  1.00  0.00     0.258 C 
HETATM    3  O   UNL     1      41.191 -18.253   1.251  1.00  0.00    -0.267 OA
HETATM    4  H   UNL     1      42.029 -15.530   2.678  1.00  0.00     0.169 HD
ENDROOT
BRANCH   1   5
HETATM    5  C   UNL     1      40.545 -15.350   1.266  1.00  0.00     0.037 A 
HETATM    6  C   UNL     1      40.814 -14.925  -0.037  1.00  0.00     0.066 A 
HETATM    7  C   UNL     1      39.863 -14.205  -0.772  1.00  0.00     0.071 A 
HETATM    8  C   UNL     1      38.623 -13.921  -0.203  1.00  0.00     0.037 A 
HETATM    9  C   UNL     1      38.342 -14.343   1.097  1.00  0.00     0.005 A 
HETATM   10  C   UNL     1      39.298 -15.050   1.827  1.00  0.00     0.029 A 
BRANCH   7  11
HETATM   11  O   UNL     1      40.269 -13.842  -2.028  1.00  0.00    -0.347 OA
BRANCH  11  12
HETATM   12  C   UNL     1      41.669 -13.875  -2.300  1.00  0.00     0.215 C 
BRANCH  12  13
HETATM   13  C   UNL     1      42.190 -12.467  -2.376  1.00  0.00    -0.017 A 
HETATM   14  C   UNL     1      42.030 -11.702  -3.527  1.00  0.00     0.125 A 
HETATM   15  N   UNL     1      42.430 -10.415  -3.649  1.00  0.00    -0.272 NA
HETATM   16  C   UNL     1      43.022  -9.861  -2.570  1.00  0.00     0.116 A 
HETATM   17  C   UNL     1      43.226 -10.529  -1.375  1.00  0.00     0.020 A 
HETATM   18  C   UNL     1      42.799 -11.849  -1.278  1.00  0.00     0.012 A 
ENDBRANCH  12  13
ENDBRANCH  11  12
ENDBRANCH   7  11
ENDBRANCH   1   5
BRANCH   2  19
HETATM   19  C   UNL     1      42.635 -17.956   3.065  1.00  0.00     0.059 A 
HETATM   20  C   UNL     1      43.270 -19.179   2.887  1.00  0.00     0.057 A 
HETATM   21  C   UNL     1      44.189 -19.685   3.806  1.00  0.00    -0.022 A 
HETATM   22  N   UNL     1      43.134 -20.083   1.839  1.00  0.00    -0.325 N 
HETATM   23  C   UNL     1      44.698 -21.014   3.330  1.00  0.00     0.144 A 
HETATM   24  C   UNL     1      44.500 -18.986   4.959  1.00  0.00     0.010 A 
HETATM   25  C   UNL     1      43.930 -21.205   2.017  1.00  0.00     0.226 A 
HETATM   26  O   UNL     1      44.006 -22.165   1.270  1.00  0.00    -0.273 OA
HETATM   27  C   UNL     1      43.855 -17.766   5.179  1.00  0.00     0.002 A 
HETATM   28  C   UNL     1      42.927 -17.256   4.247  1.00  0.00     0.019 A 
HETATM   29  H   UNL     1      42.483 -19.956   1.070  1.00  0.00     0.169 HD
ENDBRANCH   2  19
TORSDOF 5
ENDMDL
MODEL 4
REMARK VINA RESULT:      -8.5      2.605      8.707
REMARK  5 active torsions:
REMARK  status: ('A' for Active; 'I' for Inactive)
REMARK    1  A    between atoms: C_3  and  O_4 
REMARK    2  A    between atoms: O_4  and  C_5 
REMARK    3  A    between atoms: C_5  and  C_6 
REMARK    4  A    between atoms: C_13  and  N_14 
REMARK       I    between atoms: N_14  and  C_15 
REMARK    5  A    between atoms: C_15  and  C_16 
ROOT
HETATM    1  N   UNL     1      41.699 -14.527   2.502  1.00  0.00    -0.323 N 
HETATM    2  C   UNL     1      40.851 -14.472   1.409  1.00  0.00     0.258 C 
HETATM    3  O   UNL     1      39.750 -15.003   1.316  1.00  0.00    -0.267 OA
HETATM    4  H   UNL     1      42.505 -13.918   2.495  1.00  0.00     0.169 HD
ENDROOT
BRANCH   1   5
HETATM    5  C   UNL     1      41.528 -15.284   3.682  1.00  0.00     0.037 A 
HETATM    6  C   UNL     1      42.157 -16.506   3.933  1.00  0.00     0.066 A 
HETATM    7  C   UNL     1      41.942 -17.195   5.134  1.00  0.00     0.071 A 
HETATM    8  C   UNL     1      41.101 -16.648   6.102  1.00  0.00     0.037 A 
HETATM    9  C   UNL     1      40.469 -15.427   5.863  1.00  0.00     0.005 A 
HETATM   10  C   UNL     1      40.680 -14.752   4.661  1.00  0.00     0.029 A 
BRANCH   7  11
HETATM   11  O   UNL     1      42.612 -18.384   5.236  1.00  0.00    -0.347 OA
BRANCH  11  12
HETATM   12  C   UNL     1      43.942 -18.434   4.721  1.00  0.00     0.215 C 
BRANCH  12  13
HETATM   13  C   UNL     1      44.123 -19.709   3.945  1.00  0.00    -0.017 A 
HETATM   14  C   UNL     1      44.634 -20.853   4.550  1.00  0.00     0.125 A 
HETATM   15  N   UNL     1      44.779 -22.045   3.927  1.00  0.00    -0.272 NA
HETATM   16  C   UNL     1      44.396 -22.102   2.633  1.00  0.00     0.116 A 
HETATM   17  C   UNL     1      43.870 -21.027   1.937  1.00  0.00     0.020 A 
HETATM   18  C   UNL     1      43.729 -19.816   2.607  1.00  0.00     0.012 A 
ENDBRANCH  12  13
ENDBRANCH  11  12
ENDBRANCH   7  11
ENDBRANCH   1   5
BRANCH   2  19
HETATM   19  C   UNL     1      41.336 -13.641   0.268  1.00  0.00     0.059 A 
HETATM   20  C   UNL     1      41.189 -14.090  -1.038  1.00  0.00     0.057 A 
HETATM   21  C   UNL     1      41.611 -13.341  -2.138  1.00  0.00    -0.022 A 
HETATM   22  N   UNL     1      40.636 -15.284  -1.490  1.00  0.00    -0.325 N 
HETATM   23  C   UNL     1      41.311 -14.092  -3.403  1.00  0.00     0.144 A 
HETATM   24  C   UNL     1      42.215 -12.108  -1.969  1.00  0.00     0.010 A 
HETATM   25  C   UNL     1      40.674 -15.381  -2.873  1.00  0.00     0.226 A 
HETATM   26  O   UNL     1      40.275 -16.318  -3.544  1.00  0.00    -0.273 OA
HETATM   27  C   UNL     1      42.401 -11.644  -0.664  1.00  0.00     0.002 A 
HETATM   28  C   UNL     1      41.973 -12.402   0.446  1.00  0.00     0.019 A 
HETATM   29  H   UNL     1      40.302 -16.015  -0.871  1.00  0.00     0.169 HD
ENDBRANCH   2  19
TORSDOF 5
ENDMDL
MODEL 5
REMARK VINA RESULT:      -8.5      2.357      8.705
REMARK  5 active torsions:
REMARK  status: ('A' for Active; 'I' for Inactive)
REMARK    1  A    between atoms: C_3  and  O_4 
REMARK    2  A    between atoms: O_4  and  C_5 
REMARK    3  A    between atoms: C_5  and  C_6 
REMARK    4  A    between atoms: C_13  and  N_14 
REMARK       I    between atoms: N_14  and  C_15 
REMARK    5  A    between atoms: C_15  and  C_16 
ROOT
HETATM    1  N   UNL     1      40.645 -15.918   3.215  1.00  0.00    -0.323 N 
HETATM    2  C   UNL     1      40.942 -14.818   2.431  1.00  0.00     0.258 C 
HETATM    3  O   UNL     1      41.969 -14.149   2.475  1.00  0.00    -0.267 OA
HETATM    4  H   UNL     1      39.830 -16.461   2.965  1.00  0.00     0.169 HD
ENDROOT
BRANCH   1   5
HETATM    5  C   UNL     1      41.401 -16.433   4.292  1.00  0.00     0.037 A 
HETATM    6  C   UNL     1      42.599 -17.136   4.148  1.00  0.00     0.066 A 
HETATM    7  C   UNL     1      43.297 -17.610   5.268  1.00  0.00     0.071 A 
HETATM    8  C   UNL     1      42.797 -17.364   6.546  1.00  0.00     0.037 A 
HETATM    9  C   UNL     1      41.602 -16.661   6.701  1.00  0.00     0.005 A 
HETATM   10  C   UNL     1      40.908 -16.201   5.582  1.00  0.00     0.029 A 
BRANCH   7  11
HETATM   11  O   UNL     1      44.446 -18.293   4.975  1.00  0.00    -0.347 OA
BRANCH  11  12
HETATM   12  C   UNL     1      44.494 -19.676   5.320  1.00  0.00     0.215 C 
BRANCH  12  13
HETATM   13  C   UNL     1      44.440 -20.501   4.064  1.00  0.00    -0.017 A 
HETATM   14  C   UNL     1      44.705 -21.866   4.088  1.00  0.00     0.125 A 
HETATM   15  N   UNL     1      44.628 -22.677   3.007  1.00  0.00    -0.272 NA
HETATM   16  C   UNL     1      44.270 -22.098   1.841  1.00  0.00     0.116 A 
HETATM   17  C   UNL     1      43.979 -20.751   1.707  1.00  0.00     0.020 A 
HETATM   18  C   UNL     1      44.062 -19.944   2.837  1.00  0.00     0.012 A 
ENDBRANCH  12  13
ENDBRANCH  11  12
ENDBRANCH   7  11
ENDBRANCH   1   5
BRANCH   2  19
HETATM   19  C   UNL     1      39.911 -14.464   1.412  1.00  0.00     0.059 A 
HETATM   20  C   UNL     1      40.292 -14.057   0.140  1.00  0.00     0.057 A 
HETATM   21  C   UNL     1      39.365 -13.732  -0.851  1.00  0.00    -0.022 A 
HETATM   22  N   UNL     1      41.575 -13.898  -0.373  1.00  0.00    -0.325 N 
HETATM   23  C   UNL     1      40.087 -13.336  -2.106  1.00  0.00     0.144 A 
HETATM   24  C   UNL     1      38.006 -13.790  -0.599  1.00  0.00     0.010 A 
HETATM   25  C   UNL     1      41.556 -13.464  -1.690  1.00  0.00     0.226 A 
HETATM   26  O   UNL     1      42.527 -13.227  -2.388  1.00  0.00    -0.273 OA
HETATM   27  C   UNL     1      37.593 -14.170   0.681  1.00  0.00     0.002 A 
HETATM   28  C   UNL     1      38.532 -14.498   1.680  1.00  0.00     0.019 A 
HETATM   29  H   UNL     1      42.418 -14.030   0.177  1.00  0.00     0.169 HD
ENDBRANCH   2  19
TORSDOF 5
ENDMDL
MODEL 6
REMARK VINA RESULT:      -8.3      1.686      1.890
REMARK  5 active torsions:
REMARK  status: ('A' for Active; 'I' for Inactive)
REMARK    1  A    between atoms: C_3  and  O_4 
REMARK    2  A    between atoms: O_4  and  C_5 
REMARK    3  A    between atoms: C_5  and  C_6 
REMARK    4  A    between atoms: C_13  and  N_14 
REMARK       I    between atoms: N_14  and  C_15 
REMARK    5  A    between atoms: C_15  and  C_16 
ROOT
HETATM    1  N   UNL     1      42.925 -16.549   1.952  1.00  0.00    -0.323 N 
HETATM    2  C   UNL     1      42.345 -17.498   2.777  1.00  0.00     0.258 C 
HETATM    3  O   UNL     1      41.284 -17.384   3.380  1.00  0.00    -0.267 OA
HETATM    4  H   UNL     1      43.722 -16.837   1.403  1.00  0.00     0.169 HD
ENDROOT
BRANCH   1   5
HETATM    5  C   UNL     1      42.481 -15.228   1.719  1.00  0.00     0.037 A 
HETATM    6  C   UNL     1      41.772 -14.824   0.586  1.00  0.00     0.066 A 
HETATM    7  C   UNL     1      41.358 -13.494   0.429  1.00  0.00     0.071 A 
HETATM    8  C   UNL     1      41.644 -12.562   1.426  1.00  0.00     0.037 A 
HETATM    9  C   UNL     1      42.349 -12.955   2.564  1.00  0.00     0.005 A 
HETATM   10  C   UNL     1      42.767 -14.279   2.708  1.00  0.00     0.029 A 
BRANCH   7  11
HETATM   11  O   UNL     1      40.687 -13.240  -0.735  1.00  0.00    -0.347 OA
BRANCH  11  12
HETATM   12  C   UNL     1      39.329 -13.670  -0.817  1.00  0.00     0.215 C 
BRANCH  12  13
HETATM   13  C   UNL     1      39.129 -14.431  -2.099  1.00  0.00    -0.017 A 
HETATM   14  C   UNL     1      40.164 -15.166  -2.668  1.00  0.00     0.125 A 
HETATM   15  N   UNL     1      40.042 -15.911  -3.791  1.00  0.00    -0.272 NA
HETATM   16  C   UNL     1      38.826 -15.925  -4.379  1.00  0.00     0.116 A 
HETATM   17  C   UNL     1      37.728 -15.235  -3.894  1.00  0.00     0.020 A 
HETATM   18  C   UNL     1      37.884 -14.482  -2.734  1.00  0.00     0.012 A 
ENDBRANCH  12  13
ENDBRANCH  11  12
ENDBRANCH   7  11
ENDBRANCH   1   5
BRANCH   2  19
HETATM   19  C   UNL     1      43.087 -18.788   2.884  1.00  0.00     0.059 A 
HETATM   20  C   UNL     1      43.515 -19.250   4.122  1.00  0.00     0.057 A 
HETATM   21  C   UNL     1      44.196 -20.458   4.274  1.00  0.00    -0.022 A 
HETATM   22  N   UNL     1      43.367 -18.654   5.370  1.00  0.00    -0.325 N 
HETATM   23  C   UNL     1      44.516 -20.676   5.725  1.00  0.00     0.144 A 
HETATM   24  C   UNL     1      44.491 -21.251   3.180  1.00  0.00     0.010 A 
HETATM   25  C   UNL     1      43.937 -19.417   6.379  1.00  0.00     0.226 A 
HETATM   26  O   UNL     1      43.972 -19.138   7.565  1.00  0.00    -0.273 OA
HETATM   27  C   UNL     1      44.098 -20.797   1.918  1.00  0.00     0.002 A 
HETATM   28  C   UNL     1      43.408 -19.577   1.767  1.00  0.00     0.019 A 
HETATM   29  H   UNL     1      42.943 -17.742   5.508  1.00  0.00     0.169 HD
ENDBRANCH   2  19
TORSDOF 5
ENDMDL
MODEL 7
REMARK VINA RESULT:      -8.3      2.563      3.096
REMARK  5 active torsions:
REMARK  status: ('A' for Active; 'I' for Inactive)
REMARK    1  A    between atoms: C_3  and  O_4 
REMARK    2  A    between atoms: O_4  and  C_5 
REMARK    3  A    between atoms: C_5  and  C_6 
REMARK    4  A    between atoms: C_13  and  N_14 
REMARK       I    between atoms: N_14  and  C_15 
REMARK    5  A    between atoms: C_15  and  C_16 
ROOT
HETATM    1  N   UNL     1      41.558 -16.968   1.849  1.00  0.00    -0.323 N 
HETATM    2  C   UNL     1      42.677 -16.800   2.646  1.00  0.00     0.258 C 
HETATM    3  O   UNL     1      43.126 -15.733   3.052  1.00  0.00    -0.267 OA
HETATM    4  H   UNL     1      41.219 -17.911   1.718  1.00  0.00     0.169 HD
ENDROOT
BRANCH   1   5
HETATM    5  C   UNL     1      40.769 -15.959   1.254  1.00  0.00     0.037 A 
HETATM    6  C   UNL     1      41.023 -15.397   0.001  1.00  0.00     0.066 A 
HETATM    7  C   UNL     1      40.188 -14.402  -0.527  1.00  0.00     0.071 A 
HETATM    8  C   UNL     1      39.078 -13.977   0.200  1.00  0.00     0.037 A 
HETATM    9  C   UNL     1      38.813 -14.533   1.452  1.00  0.00     0.005 A 
HETATM   10  C   UNL     1      39.654 -15.515   1.976  1.00  0.00     0.029 A 
BRANCH   7  11
HETATM   11  O   UNL     1      40.567 -13.934  -1.756  1.00  0.00    -0.347 OA
BRANCH  11  12
HETATM   12  C   UNL     1      41.965 -13.868  -2.031  1.00  0.00     0.215 C 
BRANCH  12  13
HETATM   13  C   UNL     1      42.362 -12.430  -2.227  1.00  0.00    -0.017 A 
HETATM   14  C   UNL     1      42.199 -11.800  -3.456  1.00  0.00     0.125 A 
HETATM   15  N   UNL     1      42.489 -10.500  -3.690  1.00  0.00    -0.272 NA
HETATM   16  C   UNL     1      42.967  -9.789  -2.646  1.00  0.00     0.116 A 
HETATM   17  C   UNL     1      43.162 -10.315  -1.381  1.00  0.00     0.020 A 
HETATM   18  C   UNL     1      42.850 -11.654  -1.170  1.00  0.00     0.012 A 
ENDBRANCH  12  13
ENDBRANCH  11  12
ENDBRANCH   7  11
ENDBRANCH   1   5
BRANCH   2  19
HETATM   19  C   UNL     1      43.354 -18.060   3.069  1.00  0.00     0.059 A 
HETATM   20  C   UNL     1      43.469 -18.376   4.417  1.00  0.00     0.057 A 
HETATM   21  C   UNL     1      44.078 -19.551   4.860  1.00  0.00    -0.022 A 
HETATM   22  N   UNL     1      43.036 -17.647   5.519  1.00  0.00    -0.325 N 
HETATM   23  C   UNL     1      44.041 -19.602   6.360  1.00  0.00     0.144 A 
HETATM   24  C   UNL     1      44.613 -20.456   3.963  1.00  0.00     0.010 A 
HETATM   25  C   UNL     1      43.340 -18.285   6.713  1.00  0.00     0.226 A 
HETATM   26  O   UNL     1      43.095 -17.876   7.835  1.00  0.00    -0.273 OA
HETATM   27  C   UNL     1      44.538 -20.151   2.601  1.00  0.00     0.002 A 
HETATM   28  C   UNL     1      43.921 -18.964   2.155  1.00  0.00     0.019 A 
HETATM   29  H   UNL     1      42.604 -16.731   5.451  1.00  0.00     0.169 HD
ENDBRANCH   2  19
TORSDOF 5
ENDMDL
MODEL 8
REMARK VINA RESULT:      -8.0      2.948      4.806
REMARK  5 active torsions:
REMARK  status: ('A' for Active; 'I' for Inactive)
REMARK    1  A    between atoms: C_3  and  O_4 
REMARK    2  A    between atoms: O_4  and  C_5 
REMARK    3  A    between atoms: C_5  and  C_6 
REMARK    4  A    between atoms: C_13  and  N_14 
REMARK       I    between atoms: N_14  and  C_15 
REMARK    5  A    between atoms: C_15  and  C_16 
ROOT
HETATM    1  N   UNL     1      42.003 -18.006   1.721  1.00  0.00    -0.323 N 
HETATM    2  C   UNL     1      43.214 -18.120   2.381  1.00  0.00     0.258 C 
HETATM    3  O   UNL     1      43.910 -17.196   2.787  1.00  0.00    -0.267 OA
HETATM    4  H   UNL     1      41.469 -18.852   1.582  1.00  0.00     0.169 HD
ENDROOT
BRANCH   1   5
HETATM    5  C   UNL     1      41.372 -16.819   1.284  1.00  0.00     0.037 A 
HETATM    6  C   UNL     1      40.636 -15.969   2.111  1.00  0.00     0.066 A 
HETATM    7  C   UNL     1      40.044 -14.803   1.605  1.00  0.00     0.071 A 
HETATM    8  C   UNL     1      40.206 -14.478   0.259  1.00  0.00     0.037 A 
HETATM    9  C   UNL     1      40.942 -15.319  -0.576  1.00  0.00     0.005 A 
HETATM   10  C   UNL     1      41.519 -16.483  -0.067  1.00  0.00     0.029 A 
BRANCH   7  11
HETATM   11  O   UNL     1      39.342 -14.074   2.526  1.00  0.00    -0.347 OA
BRANCH  11  12
HETATM   12  C   UNL     1      39.875 -13.998   3.847  1.00  0.00     0.215 C 
BRANCH  12  13
HETATM   13  C   UNL     1      39.936 -12.556   4.271  1.00  0.00    -0.017 A 
HETATM   14  C   UNL     1      38.786 -11.864   4.635  1.00  0.00     0.125 A 
HETATM   15  N   UNL     1      38.773 -10.584   5.073  1.00  0.00    -0.272 NA
HETATM   16  C   UNL     1      39.968  -9.959   5.151  1.00  0.00     0.116 A 
HETATM   17  C   UNL     1      41.172 -10.556   4.820  1.00  0.00     0.020 A 
HETATM   18  C   UNL     1      41.154 -11.875   4.378  1.00  0.00     0.012 A 
ENDBRANCH  12  13
ENDBRANCH  11  12
ENDBRANCH   7  11
ENDBRANCH   1   5
BRANCH   2  19
HETATM   19  C   UNL     1      43.666 -19.517   2.648  1.00  0.00     0.059 A 
HETATM   20  C   UNL     1      43.904 -19.940   3.949  1.00  0.00     0.057 A 
HETATM   21  C   UNL     1      44.311 -21.241   4.250  1.00  0.00    -0.022 A 
HETATM   22  N   UNL     1      43.797 -19.216   5.132  1.00  0.00    -0.325 N 
HETATM   23  C   UNL     1      44.480 -21.385   5.734  1.00  0.00     0.144 A 
HETATM   24  C   UNL     1      44.511 -22.172   3.247  1.00  0.00     0.010 A 
HETATM   25  C   UNL     1      44.129 -19.982   6.240  1.00  0.00     0.226 A 
HETATM   26  O   UNL     1      44.138 -19.609   7.400  1.00  0.00    -0.273 OA
HETATM   27  C   UNL     1      44.306 -21.766   1.926  1.00  0.00     0.002 A 
HETATM   28  C   UNL     1      43.894 -20.452   1.625  1.00  0.00     0.019 A 
HETATM   29  H   UNL     1      43.561 -18.229   5.165  1.00  0.00     0.169 HD
ENDBRANCH   2  19
TORSDOF 5
ENDMDL
MODEL 9
REMARK VINA RESULT:      -7.8      1.431      1.719
REMARK  5 active torsions:
REMARK  status: ('A' for Active; 'I' for Inactive)
REMARK    1  A    between atoms: C_3  and  O_4 
REMARK    2  A    between atoms: O_4  and  C_5 
REMARK    3  A    between atoms: C_5  and  C_6 
REMARK    4  A    between atoms: C_13  and  N_14 
REMARK       I    between atoms: N_14  and  C_15 
REMARK    5  A    between atoms: C_15  and  C_16 
ROOT
HETATM    1  N   UNL     1      41.548 -17.379   1.689  1.00  0.00    -0.323 N 
HETATM    2  C   UNL     1      42.835 -17.400   2.196  1.00  0.00     0.258 C 
HETATM    3  O   UNL     1      43.535 -16.424   2.443  1.00  0.00    -0.267 OA
HETATM    4  H   UNL     1      41.039 -18.252   1.679  1.00  0.00     0.169 HD
ENDROOT
BRANCH   1   5
HETATM    5  C   UNL     1      40.816 -16.252   1.252  1.00  0.00     0.037 A 
HETATM    6  C   UNL     1      41.026 -15.601   0.035  1.00  0.00     0.066 A 
HETATM    7  C   UNL     1      40.253 -14.491  -0.333  1.00  0.00     0.071 A 
HETATM    8  C   UNL     1      39.247 -14.039   0.520  1.00  0.00     0.037 A 
HETATM    9  C   UNL     1      39.027 -14.684   1.738  1.00  0.00     0.005 A 
HETATM   10  C   UNL     1      39.808 -15.781   2.101  1.00  0.00     0.029 A 
BRANCH   7  11
HETATM   11  O   UNL     1      40.579 -13.946  -1.545  1.00  0.00    -0.347 OA
BRANCH  11  12
HETATM   12  C   UNL     1      39.738 -14.260  -2.654  1.00  0.00     0.215 C 
BRANCH  12  13
HETATM   13  C   UNL     1      39.372 -12.991  -3.372  1.00  0.00    -0.017 A 
HETATM   14  C   UNL     1      38.044 -12.605  -3.518  1.00  0.00     0.125 A 
HETATM   15  N   UNL     1      37.644 -11.455  -4.108  1.00  0.00    -0.272 NA
HETATM   16  C   UNL     1      38.619 -10.646  -4.579  1.00  0.00     0.116 A 
HETATM   17  C   UNL     1      39.970 -10.931  -4.481  1.00  0.00     0.020 A 
HETATM   18  C   UNL     1      40.349 -12.119  -3.864  1.00  0.00     0.012 A 
ENDBRANCH  12  13
ENDBRANCH  11  12
ENDBRANCH   7  11
ENDBRANCH   1   5
BRANCH   2  19
HETATM   19  C   UNL     1      43.378 -18.756   2.503  1.00  0.00     0.059 A 
HETATM   20  C   UNL     1      43.941 -19.021   3.744  1.00  0.00     0.057 A 
HETATM   21  C   UNL     1      44.446 -20.277   4.083  1.00  0.00    -0.022 A 
HETATM   22  N   UNL     1      44.108 -18.161   4.824  1.00  0.00    -0.325 N 
HETATM   23  C   UNL     1      44.980 -20.244   5.486  1.00  0.00     0.144 A 
HETATM   24  C   UNL     1      44.419 -21.322   3.177  1.00  0.00     0.010 A 
HETATM   25  C   UNL     1      44.724 -18.789   5.897  1.00  0.00     0.226 A 
HETATM   26  O   UNL     1      45.009 -18.281   6.967  1.00  0.00    -0.273 OA
HETATM   27  C   UNL     1      43.884 -21.076   1.910  1.00  0.00     0.002 A 
HETATM   28  C   UNL     1      43.373 -19.806   1.570  1.00  0.00     0.019 A 
HETATM   29  H   UNL     1      43.860 -17.177   4.800  1.00  0.00     0.169 HD
ENDBRANCH   2  19
TORSDOF 5
ENDMDL
MODEL 10
REMARK VINA RESULT:      -7.8      7.142     10.163
REMARK  5 active torsions:
REMARK  status: ('A' for Active; 'I' for Inactive)
REMARK    1  A    between atoms: C_3  and  O_4 
REMARK    2  A    between atoms: O_4  and  C_5 
REMARK    3  A    between atoms: C_5  and  C_6 
REMARK    4  A    between atoms: C_13  and  N_14 
REMARK       I    between atoms: N_14  and  C_15 
REMARK    5  A    between atoms: C_15  and  C_16 
ROOT
HETATM    1  N   UNL     1      40.865 -11.897   6.812  1.00  0.00    -0.323 N 
HETATM    2  C   UNL     1      39.943 -11.617   7.806  1.00  0.00     0.258 C 
HETATM    3  O   UNL     1      38.911 -12.238   8.036  1.00  0.00    -0.267 OA
HETATM    4  H   UNL     1      41.741 -11.395   6.836  1.00  0.00     0.169 HD
ENDROOT
BRANCH   1   5
HETATM    5  C   UNL     1      40.762 -12.876   5.798  1.00  0.00     0.037 A 
HETATM    6  C   UNL     1      41.420 -14.107   5.822  1.00  0.00     0.066 A 
HETATM    7  C   UNL     1      41.263 -15.031   4.780  1.00  0.00     0.071 A 
HETATM    8  C   UNL     1      40.423 -14.724   3.709  1.00  0.00     0.037 A 
HETATM    9  C   UNL     1      39.759 -13.498   3.676  1.00  0.00     0.005 A 
HETATM   10  C   UNL     1      39.929 -12.580   4.712  1.00  0.00     0.029 A 
BRANCH   7  11
HETATM   11  O   UNL     1      41.978 -16.187   4.930  1.00  0.00    -0.347 OA
BRANCH  11  12
HETATM   12  C   UNL     1      41.441 -17.372   4.345  1.00  0.00     0.215 C 
BRANCH  12  13
HETATM   13  C   UNL     1      42.556 -18.353   4.104  1.00  0.00    -0.017 A 
HETATM   14  C   UNL     1      42.877 -18.774   2.818  1.00  0.00     0.125 A 
HETATM   15  N   UNL     1      43.896 -19.615   2.524  1.00  0.00    -0.272 NA
HETATM   16  C   UNL     1      44.632 -20.061   3.565  1.00  0.00     0.116 A 
HETATM   17  C   UNL     1      44.402 -19.701   4.881  1.00  0.00     0.020 A 
HETATM   18  C   UNL     1      43.351 -18.831   5.151  1.00  0.00     0.012 A 
ENDBRANCH  12  13
ENDBRANCH  11  12
ENDBRANCH   7  11
ENDBRANCH   1   5
BRANCH   2  19
HETATM   19  C   UNL     1      40.292 -10.469   8.693  1.00  0.00     0.059 A 
HETATM   20  C   UNL     1      40.309 -10.629  10.073  1.00  0.00     0.057 A 
HETATM   21  C   UNL     1      40.645  -9.590  10.942  1.00  0.00    -0.022 A 
HETATM   22  N   UNL     1      40.019 -11.766  10.819  1.00  0.00    -0.325 N 
HETATM   23  C   UNL     1      40.575 -10.078  12.360  1.00  0.00     0.144 A 
HETATM   24  C   UNL     1      40.965  -8.335  10.458  1.00  0.00     0.010 A 
HETATM   25  C   UNL     1      40.137 -11.535  12.182  1.00  0.00     0.226 A 
HETATM   26  O   UNL     1      39.931 -12.342  13.072  1.00  0.00    -0.273 OA
HETATM   27  C   UNL     1      40.928  -8.137   9.075  1.00  0.00     0.002 A 
HETATM   28  C   UNL     1      40.590  -9.188   8.199  1.00  0.00     0.019 A 
HETATM   29  H   UNL     1      39.701 -12.639  10.409  1.00  0.00     0.169 HD
ENDBRANCH   2  19
TORSDOF 5
ENDMDL
