MODEL 1
REMARK VINA RESULT:      -8.4      0.000      0.000
REMARK  4 active torsions:
REMARK  status: ('A' for Active; 'I' for Inactive)
REMARK    1  A    between atoms: C_4  and  N_5 
REMARK       I    between atoms: N_5  and  C_6 
REMARK       I    between atoms: C_6  and  N_7 
REMARK    2  A    between atoms: N_7  and  C_8 
REMARK    3  A    between atoms: C_8  and  C_9 
REMARK    4  A    between atoms: C_10  and  O_11 
ROOT
HETATM    1  N   UNL     1      43.722 -17.900   5.877  1.00  0.00    -0.307 N 
HETATM    2  C   UNL     1      42.709 -17.236   6.494  1.00  0.00     0.321 C 
HETATM    3  N   UNL     1      41.710 -16.756   5.702  1.00  0.00    -0.338 N 
HETATM    4  O   UNL     1      42.746 -17.058   7.709  1.00  0.00    -0.247 OA
HETATM    5  H   UNL     1      44.542 -18.011   6.472  1.00  0.00     0.170 HD
HETATM    6  H   UNL     1      42.032 -16.483   4.786  1.00  0.00     0.164 HD
ENDROOT
BRANCH   1   7
HETATM    7  C   UNL     1      43.882 -18.472   4.592  1.00  0.00     0.066 A 
HETATM    8  C   UNL     1      43.710 -17.757   3.400  1.00  0.00     0.038 A 
HETATM    9  C   UNL     1      43.879 -18.384   2.161  1.00  0.00    -0.059 A 
HETATM   10  C   UNL     1      43.734 -17.612   0.883  1.00  0.00     0.048 C 
HETATM   11  C   UNL     1      44.221 -19.738   2.128  1.00  0.00     0.020 A 
HETATM   12  C   UNL     1      44.357 -20.473   3.318  1.00  0.00    -0.005 A 
HETATM   13  C   UNL     1      44.178 -19.846   4.569  1.00  0.00     0.093 A 
HETATM   14  C   UNL     1      44.669 -21.839   3.297  1.00  0.00     0.015 A 
HETATM   15  N   UNL     1      44.296 -20.536   5.729  1.00  0.00    -0.258 NA
HETATM   16  C   UNL     1      44.595 -21.852   5.668  1.00  0.00     0.117 A 
HETATM   17  C   UNL     1      44.791 -22.542   4.489  1.00  0.00     0.020 A 
ENDBRANCH   1   7
BRANCH   3  18
HETATM   18  C   UNL     1      40.644 -15.937   6.253  1.00  0.00     0.167 C 
BRANCH  18  19
HETATM   19  C   UNL     1      40.266 -14.743   5.417  1.00  0.00     0.012 A 
HETATM   20  C   UNL     1      40.233 -14.852   4.023  1.00  0.00     0.171 A 
HETATM   21  N   UNL     1      39.937 -13.832   3.186  1.00  0.00    -0.237 NA
HETATM   22  C   UNL     1      39.682 -12.635   3.750  1.00  0.00     0.119 A 
HETATM   23  C   UNL     1      39.702 -12.409   5.114  1.00  0.00     0.020 A 
HETATM   24  C   UNL     1      40.002 -13.477   5.955  1.00  0.00     0.014 A 
BRANCH  20  25
HETATM   25  O   UNL     1      40.516 -16.095   3.486  1.00  0.00    -0.339 OA
HETATM   26  C   UNL     1      40.215 -16.190   2.097  1.00  0.00     0.211 C 
ENDBRANCH  20  25
ENDBRANCH  18  19
ENDBRANCH   3  18
TORSDOF 4
ENDMDL
MODEL 2
REMARK VINA RESULT:      -8.4      0.905      2.746
REMARK  4 active torsions:
REMARK  status: ('A' for Active; 'I' for Inactive)
REMARK    1  A    between atoms: C_4  and  N_5 
REMARK       I    between atoms: N_5  and  C_6 
REMARK       I    between atoms: C_6  and  N_7 
REMARK    2  A    between atoms: N_7  and  C_8 
REMARK    3  A    between atoms: C_8  and  C_9 
REMARK    4  A    between atoms: C_10  and  O_11 
ROOT
HETATM    1  N   UNL     1      44.086 -17.368   5.923  1.00  0.00    -0.307 N 
HETATM    2  C   UNL     1      43.021 -16.682   6.412  1.00  0.00     0.321 C 
HETATM    3  N   UNL     1      41.819 -16.884   5.803  1.00  0.00    -0.338 N 
HETATM    4  O   UNL     1      43.177 -15.889   7.338  1.00  0.00    -0.247 OA
HETATM    5  H   UNL     1      44.979 -16.995   6.244  1.00  0.00     0.170 HD
HETATM    6  H   UNL     1      41.907 -17.079   4.817  1.00  0.00     0.164 HD
ENDROOT
BRANCH   1   7
HETATM    7  C   UNL     1      44.224 -18.488   5.067  1.00  0.00     0.066 A 
HETATM    8  C   UNL     1      44.562 -19.769   5.519  1.00  0.00     0.038 A 
HETATM    9  C   UNL     1      44.687 -20.834   4.618  1.00  0.00    -0.059 A 
HETATM   10  C   UNL     1      45.011 -22.216   5.102  1.00  0.00     0.048 C 
HETATM   11  C   UNL     1      44.470 -20.598   3.258  1.00  0.00     0.020 A 
HETATM   12  C   UNL     1      44.169 -19.308   2.792  1.00  0.00    -0.005 A 
HETATM   13  C   UNL     1      44.052 -18.231   3.696  1.00  0.00     0.093 A 
HETATM   14  C   UNL     1      43.980 -19.054   1.427  1.00  0.00     0.015 A 
HETATM   15  N   UNL     1      43.770 -16.977   3.268  1.00  0.00    -0.258 NA
HETATM   16  C   UNL     1      43.597 -16.771   1.945  1.00  0.00     0.117 A 
HETATM   17  C   UNL     1      43.689 -17.767   0.993  1.00  0.00     0.020 A 
ENDBRANCH   1   7
BRANCH   3  18
HETATM   18  C   UNL     1      40.647 -16.114   6.180  1.00  0.00     0.167 C 
BRANCH  18  19
HETATM   19  C   UNL     1      40.420 -14.867   5.368  1.00  0.00     0.012 A 
HETATM   20  C   UNL     1      40.387 -14.943   3.972  1.00  0.00     0.171 A 
HETATM   21  N   UNL     1      40.222 -13.877   3.155  1.00  0.00    -0.237 NA
HETATM   22  C   UNL     1      40.104 -12.670   3.743  1.00  0.00     0.119 A 
HETATM   23  C   UNL     1      40.139 -12.477   5.111  1.00  0.00     0.020 A 
HETATM   24  C   UNL     1      40.303 -13.590   5.931  1.00  0.00     0.014 A 
BRANCH  20  25
HETATM   25  O   UNL     1      40.526 -16.199   3.410  1.00  0.00    -0.339 OA
HETATM   26  C   UNL     1      40.010 -16.283   2.084  1.00  0.00     0.211 C 
ENDBRANCH  20  25
ENDBRANCH  18  19
ENDBRANCH   3  18
TORSDOF 4
ENDMDL
MODEL 3
REMARK VINA RESULT:      -8.1      2.011      3.444
REMARK  4 active torsions:
REMARK  status: ('A' for Active; 'I' for Inactive)
REMARK    1  A    between atoms: C_4  and  N_5 
REMARK       I    between atoms: N_5  and  C_6 
REMARK       I    between atoms: C_6  and  N_7 
REMARK    2  A    between atoms: N_7  and  C_8 
REMARK    3  A    between atoms: C_8  and  C_9 
REMARK    4  A    between atoms: C_10  and  O_11 
ROOT
HETATM    1  N   UNL     1      42.817 -17.815   1.670  1.00  0.00    -0.307 N 
HETATM    2  C   UNL     1      41.715 -17.074   1.382  1.00  0.00     0.321 C 
HETATM    3  N   UNL     1      40.774 -16.955   2.361  1.00  0.00    -0.338 N 
HETATM    4  O   UNL     1      41.584 -16.583   0.264  1.00  0.00    -0.247 OA
HETATM    5  H   UNL     1      43.349 -18.072   0.840  1.00  0.00     0.170 HD
HETATM    6  H   UNL     1      40.715 -17.771   2.951  1.00  0.00     0.164 HD
ENDROOT
BRANCH   1   7
HETATM    7  C   UNL     1      43.385 -18.303   2.872  1.00  0.00     0.066 A 
HETATM    8  C   UNL     1      43.606 -17.506   4.002  1.00  0.00     0.038 A 
HETATM    9  C   UNL     1      44.177 -18.051   5.158  1.00  0.00    -0.059 A 
HETATM   10  C   UNL     1      44.379 -17.211   6.384  1.00  0.00     0.048 C 
HETATM   11  C   UNL     1      44.526 -19.404   5.168  1.00  0.00     0.020 A 
HETATM   12  C   UNL     1      44.344 -20.201   4.026  1.00  0.00    -0.005 A 
HETATM   13  C   UNL     1      43.778 -19.653   2.856  1.00  0.00     0.093 A 
HETATM   14  C   UNL     1      44.718 -21.551   4.014  1.00  0.00     0.015 A 
HETATM   15  N   UNL     1      43.600 -20.399   1.739  1.00  0.00    -0.258 NA
HETATM   16  C   UNL     1      43.976 -21.696   1.766  1.00  0.00     0.117 A 
HETATM   17  C   UNL     1      44.533 -22.314   2.868  1.00  0.00     0.020 A 
ENDBRANCH   1   7
BRANCH   3  18
HETATM   18  C   UNL     1      39.513 -16.279   2.111  1.00  0.00     0.167 C 
BRANCH  18  19
HETATM   19  C   UNL     1      39.508 -14.808   2.433  1.00  0.00     0.012 A 
HETATM   20  C   UNL     1      39.891 -14.373   3.706  1.00  0.00     0.171 A 
HETATM   21  N   UNL     1      39.891 -13.079   4.101  1.00  0.00    -0.237 NA
HETATM   22  C   UNL     1      39.471 -12.167   3.201  1.00  0.00     0.119 A 
HETATM   23  C   UNL     1      39.055 -12.486   1.922  1.00  0.00     0.020 A 
HETATM   24  C   UNL     1      39.072 -13.823   1.537  1.00  0.00     0.014 A 
BRANCH  20  25
HETATM   25  O   UNL     1      40.301 -15.344   4.602  1.00  0.00    -0.339 OA
HETATM   26  C   UNL     1      41.355 -14.912   5.457  1.00  0.00     0.211 C 
ENDBRANCH  20  25
ENDBRANCH  18  19
ENDBRANCH   3  18
TORSDOF 4
ENDMDL
MODEL 4
REMARK VINA RESULT:      -8.1      4.664      6.855
REMARK  4 active torsions:
REMARK  status: ('A' for Active; 'I' for Inactive)
REMARK    1  A    between atoms: C_4  and  N_5 
REMARK       I    between atoms: N_5  and  C_6 
REMARK       I    between atoms: C_6  and  N_7 
REMARK    2  A    between atoms: N_7  and  C_8 
REMARK    3  A    between atoms: C_8  and  C_9 
REMARK    4  A    between atoms: C_10  and  O_11 
ROOT
HETATM    1  N   UNL     1      45.000 -14.156   6.666  1.00  0.00    -0.307 N 
HETATM    2  C   UNL     1      45.430 -13.288   7.619  1.00  0.00     0.321 C 
HETATM    3  N   UNL     1      44.651 -13.148   8.728  1.00  0.00    -0.338 N 
HETATM    4  O   UNL     1      46.458 -12.640   7.437  1.00  0.00    -0.247 OA
HETATM    5  H   UNL     1      45.477 -14.032   5.774  1.00  0.00     0.170 HD
HETATM    6  H   UNL     1      43.668 -13.267   8.535  1.00  0.00     0.164 HD
ENDROOT
BRANCH   1   7
HETATM    7  C   UNL     1      44.038 -15.194   6.647  1.00  0.00     0.066 A 
HETATM    8  C   UNL     1      44.317 -16.514   7.021  1.00  0.00     0.038 A 
HETATM    9  C   UNL     1      43.319 -17.495   6.974  1.00  0.00    -0.059 A 
HETATM   10  C   UNL     1      43.604 -18.902   7.411  1.00  0.00     0.048 C 
HETATM   11  C   UNL     1      42.039 -17.138   6.546  1.00  0.00     0.020 A 
HETATM   12  C   UNL     1      41.760 -15.825   6.131  1.00  0.00    -0.005 A 
HETATM   13  C   UNL     1      42.765 -14.836   6.168  1.00  0.00     0.093 A 
HETATM   14  C   UNL     1      40.487 -15.463   5.671  1.00  0.00     0.015 A 
HETATM   15  N   UNL     1      42.522 -13.566   5.766  1.00  0.00    -0.258 NA
HETATM   16  C   UNL     1      41.284 -13.255   5.326  1.00  0.00     0.117 A 
HETATM   17  C   UNL     1      40.242 -14.159   5.261  1.00  0.00     0.020 A 
ENDBRANCH   1   7
BRANCH   3  18
HETATM   18  C   UNL     1      44.967 -12.163   9.748  1.00  0.00     0.167 C 
BRANCH  18  19
HETATM   19  C   UNL     1      43.779 -11.636  10.509  1.00  0.00     0.012 A 
HETATM   20  C   UNL     1      42.836 -10.835   9.857  1.00  0.00     0.171 A 
HETATM   21  N   UNL     1      41.754 -10.289  10.459  1.00  0.00    -0.237 NA
HETATM   22  C   UNL     1      41.605 -10.527  11.777  1.00  0.00     0.119 A 
HETATM   23  C   UNL     1      42.483 -11.290  12.524  1.00  0.00     0.020 A 
HETATM   24  C   UNL     1      43.585 -11.847  11.880  1.00  0.00     0.014 A 
BRANCH  20  25
HETATM   25  O   UNL     1      43.036 -10.604   8.508  1.00  0.00    -0.339 OA
HETATM   26  C   UNL     1      41.824 -10.438   7.779  1.00  0.00     0.211 C 
ENDBRANCH  20  25
ENDBRANCH  18  19
ENDBRANCH   3  18
TORSDOF 4
ENDMDL
MODEL 5
REMARK VINA RESULT:      -8.0      2.255      3.763
REMARK  4 active torsions:
REMARK  status: ('A' for Active; 'I' for Inactive)
REMARK    1  A    between atoms: C_4  and  N_5 
REMARK       I    between atoms: N_5  and  C_6 
REMARK       I    between atoms: C_6  and  N_7 
REMARK    2  A    between atoms: N_7  and  C_8 
REMARK    3  A    between atoms: C_8  and  C_9 
REMARK    4  A    between atoms: C_10  and  O_11 
ROOT
HETATM    1  N   UNL     1      41.822 -17.488   2.810  1.00  0.00    -0.307 N 
HETATM    2  C   UNL     1      41.958 -16.162   2.550  1.00  0.00     0.321 C 
HETATM    3  N   UNL     1      43.092 -15.554   2.999  1.00  0.00    -0.338 N 
HETATM    4  O   UNL     1      41.060 -15.557   1.969  1.00  0.00    -0.247 OA
HETATM    5  H   UNL     1      40.868 -17.821   2.677  1.00  0.00     0.170 HD
HETATM    6  H   UNL     1      43.439 -15.957   3.857  1.00  0.00     0.164 HD
ENDROOT
BRANCH   1   7
HETATM    7  C   UNL     1      42.716 -18.504   3.222  1.00  0.00     0.066 A 
HETATM    8  C   UNL     1      43.218 -19.489   2.362  1.00  0.00     0.038 A 
HETATM    9  C   UNL     1      44.097 -20.470   2.836  1.00  0.00    -0.059 A 
HETATM   10  C   UNL     1      44.666 -21.503   1.909  1.00  0.00     0.048 C 
HETATM   11  C   UNL     1      44.467 -20.454   4.183  1.00  0.00     0.020 A 
HETATM   12  C   UNL     1      43.938 -19.494   5.061  1.00  0.00    -0.005 A 
HETATM   13  C   UNL     1      43.045 -18.510   4.589  1.00  0.00     0.093 A 
HETATM   14  C   UNL     1      44.278 -19.487   6.420  1.00  0.00     0.015 A 
HETATM   15  N   UNL     1      42.516 -17.579   5.419  1.00  0.00    -0.258 NA
HETATM   16  C   UNL     1      42.865 -17.606   6.724  1.00  0.00     0.117 A 
HETATM   17  C   UNL     1      43.735 -18.529   7.268  1.00  0.00     0.020 A 
ENDBRANCH   1   7
BRANCH   3  18
HETATM   18  C   UNL     1      43.278 -14.120   2.869  1.00  0.00     0.167 C 
BRANCH  18  19
HETATM   19  C   UNL     1      42.637 -13.297   3.956  1.00  0.00     0.012 A 
HETATM   20  C   UNL     1      43.001 -13.502   5.290  1.00  0.00     0.171 A 
HETATM   21  N   UNL     1      42.462 -12.838   6.338  1.00  0.00    -0.237 NA
HETATM   22  C   UNL     1      41.497 -11.939   6.058  1.00  0.00     0.119 A 
HETATM   23  C   UNL     1      41.048 -11.668   4.779  1.00  0.00     0.020 A 
HETATM   24  C   UNL     1      41.624 -12.359   3.717  1.00  0.00     0.014 A 
BRANCH  20  25
HETATM   25  O   UNL     1      43.985 -14.444   5.532  1.00  0.00    -0.339 OA
HETATM   26  C   UNL     1      44.639 -14.266   6.785  1.00  0.00     0.211 C 
ENDBRANCH  20  25
ENDBRANCH  18  19
ENDBRANCH   3  18
TORSDOF 4
ENDMDL
MODEL 6
REMARK VINA RESULT:      -7.9      2.513      3.440
REMARK  4 active torsions:
REMARK  status: ('A' for Active; 'I' for Inactive)
REMARK    1  A    between atoms: C_4  and  N_5 
REMARK       I    between atoms: N_5  and  C_6 
REMARK       I    between atoms: C_6  and  N_7 
REMARK    2  A    between atoms: N_7  and  C_8 
REMARK    3  A    between atoms: C_8  and  C_9 
REMARK    4  A    between atoms: C_10  and  O_11 
ROOT
HETATM    1  N   UNL     1      42.955 -17.857   1.637  1.00  0.00    -0.307 N 
HETATM    2  C   UNL     1      41.862 -17.113   1.327  1.00  0.00     0.321 C 
HETATM    3  N   UNL     1      40.902 -16.990   2.286  1.00  0.00    -0.338 N 
HETATM    4  O   UNL     1      41.755 -16.622   0.206  1.00  0.00    -0.247 OA
HETATM    5  H   UNL     1      43.503 -18.117   0.818  1.00  0.00     0.170 HD
HETATM    6  H   UNL     1      40.829 -17.806   2.875  1.00  0.00     0.164 HD
ENDROOT
BRANCH   1   7
HETATM    7  C   UNL     1      43.497 -18.347   2.850  1.00  0.00     0.066 A 
HETATM    8  C   UNL     1      43.728 -17.544   3.974  1.00  0.00     0.038 A 
HETATM    9  C   UNL     1      44.272 -18.091   5.142  1.00  0.00    -0.059 A 
HETATM   10  C   UNL     1      44.484 -17.243   6.361  1.00  0.00     0.048 C 
HETATM   11  C   UNL     1      44.584 -19.452   5.171  1.00  0.00     0.020 A 
HETATM   12  C   UNL     1      44.392 -20.257   4.035  1.00  0.00    -0.005 A 
HETATM   13  C   UNL     1      43.854 -19.707   2.853  1.00  0.00     0.093 A 
HETATM   14  C   UNL     1      44.730 -21.617   4.043  1.00  0.00     0.015 A 
HETATM   15  N   UNL     1      43.668 -20.461   1.743  1.00  0.00    -0.258 NA
HETATM   16  C   UNL     1      44.008 -21.768   1.788  1.00  0.00     0.117 A 
HETATM   17  C   UNL     1      44.536 -22.387   2.903  1.00  0.00     0.020 A 
ENDBRANCH   1   7
BRANCH   3  18
HETATM   18  C   UNL     1      39.649 -16.310   2.011  1.00  0.00     0.167 C 
BRANCH  18  19
HETATM   19  C   UNL     1      39.552 -14.913   2.564  1.00  0.00     0.012 A 
HETATM   20  C   UNL     1      39.018 -13.888   1.776  1.00  0.00     0.171 A 
HETATM   21  N   UNL     1      38.917 -12.598   2.170  1.00  0.00    -0.237 NA
HETATM   22  C   UNL     1      39.387 -12.297   3.397  1.00  0.00     0.119 A 
HETATM   23  C   UNL     1      39.949 -13.225   4.253  1.00  0.00     0.020 A 
HETATM   24  C   UNL     1      40.034 -14.548   3.828  1.00  0.00     0.014 A 
BRANCH  20  25
HETATM   25  O   UNL     1      38.561 -14.239   0.519  1.00  0.00    -0.339 OA
HETATM   26  C   UNL     1      39.295 -13.628  -0.538  1.00  0.00     0.211 C 
ENDBRANCH  20  25
ENDBRANCH  18  19
ENDBRANCH   3  18
TORSDOF 4
ENDMDL
MODEL 7
REMARK VINA RESULT:      -7.9      3.301      5.166
REMARK  4 active torsions:
REMARK  status: ('A' for Active; 'I' for Inactive)
REMARK    1  A    between atoms: C_4  and  N_5 
REMARK       I    between atoms: N_5  and  C_6 
REMARK       I    between atoms: C_6  and  N_7 
REMARK    2  A    between atoms: N_7  and  C_8 
REMARK    3  A    between atoms: C_8  and  C_9 
REMARK    4  A    between atoms: C_10  and  O_11 
ROOT
HETATM    1  N   UNL     1      40.949 -16.987   3.154  1.00  0.00    -0.307 N 
HETATM    2  C   UNL     1      40.701 -15.893   2.388  1.00  0.00     0.321 C 
HETATM    3  N   UNL     1      41.776 -15.265   1.836  1.00  0.00    -0.338 N 
HETATM    4  O   UNL     1      39.548 -15.489   2.255  1.00  0.00    -0.247 OA
HETATM    5  H   UNL     1      40.152 -17.256   3.730  1.00  0.00     0.170 HD
HETATM    6  H   UNL     1      42.603 -15.324   2.412  1.00  0.00     0.164 HD
ENDROOT
BRANCH   1   7
HETATM    7  C   UNL     1      42.070 -17.834   3.322  1.00  0.00     0.066 A 
HETATM    8  C   UNL     1      42.380 -18.889   2.455  1.00  0.00     0.038 A 
HETATM    9  C   UNL     1      43.504 -19.693   2.681  1.00  0.00    -0.059 A 
HETATM   10  C   UNL     1      43.860 -20.799   1.733  1.00  0.00     0.048 C 
HETATM   11  C   UNL     1      44.313 -19.428   3.788  1.00  0.00     0.020 A 
HETATM   12  C   UNL     1      43.989 -18.397   4.685  1.00  0.00    -0.005 A 
HETATM   13  C   UNL     1      42.852 -17.591   4.466  1.00  0.00     0.093 A 
HETATM   14  C   UNL     1      44.776 -18.142   5.815  1.00  0.00     0.015 A 
HETATM   15  N   UNL     1      42.514 -16.596   5.321  1.00  0.00    -0.258 NA
HETATM   16  C   UNL     1      43.297 -16.383   6.401  1.00  0.00     0.117 A 
HETATM   17  C   UNL     1      44.428 -17.120   6.689  1.00  0.00     0.020 A 
ENDBRANCH   1   7
BRANCH   3  18
HETATM   18  C   UNL     1      41.624 -14.025   1.096  1.00  0.00     0.167 C 
BRANCH  18  19
HETATM   19  C   UNL     1      41.598 -14.180  -0.402  1.00  0.00     0.012 A 
HETATM   20  C   UNL     1      42.094 -13.157  -1.215  1.00  0.00     0.171 A 
HETATM   21  N   UNL     1      42.086 -13.187  -2.568  1.00  0.00    -0.237 NA
HETATM   22  C   UNL     1      41.542 -14.275  -3.150  1.00  0.00     0.119 A 
HETATM   23  C   UNL     1      41.009 -15.337  -2.444  1.00  0.00     0.020 A 
HETATM   24  C   UNL     1      41.035 -15.285  -1.053  1.00  0.00     0.014 A 
BRANCH  20  25
HETATM   25  O   UNL     1      42.630 -12.053  -0.577  1.00  0.00    -0.339 OA
HETATM   26  C   UNL     1      43.152 -11.080  -1.476  1.00  0.00     0.211 C 
ENDBRANCH  20  25
ENDBRANCH  18  19
ENDBRANCH   3  18
TORSDOF 4
ENDMDL
MODEL 8
REMARK VINA RESULT:      -7.9      3.177      5.330
REMARK  4 active torsions:
REMARK  status: ('A' for Active; 'I' for Inactive)
REMARK    1  A    between atoms: C_4  and  N_5 
REMARK       I    between atoms: N_5  and  C_6 
REMARK       I    between atoms: C_6  and  N_7 
REMARK    2  A    between atoms: N_7  and  C_8 
REMARK    3  A    between atoms: C_8  and  C_9 
REMARK    4  A    between atoms: C_10  and  O_11 
ROOT
HETATM    1  N   UNL     1      40.290 -16.303   2.938  1.00  0.00    -0.307 N 
HETATM    2  C   UNL     1      39.819 -15.630   1.855  1.00  0.00     0.321 C 
HETATM    3  N   UNL     1      40.711 -15.341   0.867  1.00  0.00    -0.338 N 
HETATM    4  O   UNL     1      38.643 -15.275   1.820  1.00  0.00    -0.247 OA
HETATM    5  H   UNL     1      39.653 -16.268   3.733  1.00  0.00     0.170 HD
HETATM    6  H   UNL     1      41.645 -15.182   1.216  1.00  0.00     0.164 HD
ENDROOT
BRANCH   1   7
HETATM    7  C   UNL     1      41.469 -17.042   3.197  1.00  0.00     0.066 A 
HETATM    8  C   UNL     1      41.886 -18.130   2.422  1.00  0.00     0.038 A 
HETATM    9  C   UNL     1      43.062 -18.822   2.737  1.00  0.00    -0.059 A 
HETATM   10  C   UNL     1      43.532 -19.964   1.885  1.00  0.00     0.048 C 
HETATM   11  C   UNL     1      43.814 -18.411   3.839  1.00  0.00     0.020 A 
HETATM   12  C   UNL     1      43.383 -17.345   4.646  1.00  0.00    -0.005 A 
HETATM   13  C   UNL     1      42.194 -16.652   4.338  1.00  0.00     0.093 A 
HETATM   14  C   UNL     1      44.114 -16.943   5.772  1.00  0.00     0.015 A 
HETATM   15  N   UNL     1      41.753 -15.626   5.105  1.00  0.00    -0.258 NA
HETATM   16  C   UNL     1      42.484 -15.270   6.184  1.00  0.00     0.117 A 
HETATM   17  C   UNL     1      43.660 -15.890   6.556  1.00  0.00     0.020 A 
ENDBRANCH   1   7
BRANCH   3  18
HETATM   18  C   UNL     1      40.330 -14.530  -0.275  1.00  0.00     0.167 C 
BRANCH  18  19
HETATM   19  C   UNL     1      41.350 -13.502  -0.690  1.00  0.00     0.012 A 
HETATM   20  C   UNL     1      41.773 -12.534   0.225  1.00  0.00     0.171 A 
HETATM   21  N   UNL     1      42.659 -11.552  -0.059  1.00  0.00    -0.237 NA
HETATM   22  C   UNL     1      43.136 -11.508  -1.319  1.00  0.00     0.119 A 
HETATM   23  C   UNL     1      42.775 -12.403  -2.309  1.00  0.00     0.020 A 
HETATM   24  C   UNL     1      41.868 -13.410  -1.988  1.00  0.00     0.014 A 
BRANCH  20  25
HETATM   25  O   UNL     1      41.246 -12.607   1.502  1.00  0.00    -0.339 OA
HETATM   26  C   UNL     1      42.236 -12.786   2.511  1.00  0.00     0.211 C 
ENDBRANCH  20  25
ENDBRANCH  18  19
ENDBRANCH   3  18
TORSDOF 4
ENDMDL
MODEL 9
REMARK VINA RESULT:      -7.9      1.961      7.350
REMARK  4 active torsions:
REMARK  status: ('A' for Active; 'I' for Inactive)
REMARK    1  A    between atoms: C_4  and  N_5 
REMARK       I    between atoms: N_5  and  C_6 
REMARK       I    between atoms: C_6  and  N_7 
REMARK    2  A    between atoms: N_7  and  C_8 
REMARK    3  A    between atoms: C_8  and  C_9 
REMARK    4  A    between atoms: C_10  and  O_11 
ROOT
HETATM    1  N   UNL     1      40.683 -16.899   3.595  1.00  0.00    -0.307 N 
HETATM    2  C   UNL     1      41.731 -17.541   4.174  1.00  0.00     0.321 C 
HETATM    3  N   UNL     1      42.924 -17.496   3.518  1.00  0.00    -0.338 N 
HETATM    4  O   UNL     1      41.565 -18.161   5.221  1.00  0.00    -0.247 OA
HETATM    5  H   UNL     1      39.784 -17.174   3.990  1.00  0.00     0.170 HD
HETATM    6  H   UNL     1      42.820 -17.464   2.515  1.00  0.00     0.164 HD
ENDROOT
BRANCH   1   7
HETATM    7  C   UNL     1      40.570 -15.933   2.567  1.00  0.00     0.066 A 
HETATM    8  C   UNL     1      40.880 -16.189   1.226  1.00  0.00     0.038 A 
HETATM    9  C   UNL     1      40.751 -15.186   0.258  1.00  0.00    -0.059 A 
HETATM   10  C   UNL     1      41.045 -15.469  -1.185  1.00  0.00     0.048 C 
HETATM   11  C   UNL     1      40.307 -13.921   0.650  1.00  0.00     0.020 A 
HETATM   12  C   UNL     1      40.031 -13.643   1.999  1.00  0.00    -0.005 A 
HETATM   13  C   UNL     1      40.170 -14.649   2.979  1.00  0.00     0.093 A 
HETATM   14  C   UNL     1      39.615 -12.369   2.409  1.00  0.00     0.015 A 
HETATM   15  N   UNL     1      39.917 -14.402   4.286  1.00  0.00    -0.258 NA
HETATM   16  C   UNL     1      39.521 -13.161   4.643  1.00  0.00     0.117 A 
HETATM   17  C   UNL     1      39.355 -12.121   3.751  1.00  0.00     0.020 A 
ENDBRANCH   1   7
BRANCH   3  18
HETATM   18  C   UNL     1      44.074 -18.243   3.998  1.00  0.00     0.167 C 
BRANCH  18  19
HETATM   19  C   UNL     1      44.145 -19.670   3.520  1.00  0.00     0.012 A 
HETATM   20  C   UNL     1      44.533 -20.680   4.406  1.00  0.00     0.171 A 
HETATM   21  N   UNL     1      44.658 -21.984   4.066  1.00  0.00    -0.237 NA
HETATM   22  C   UNL     1      44.409 -22.306   2.781  1.00  0.00     0.119 A 
HETATM   23  C   UNL     1      44.035 -21.387   1.818  1.00  0.00     0.020 A 
HETATM   24  C   UNL     1      43.906 -20.053   2.195  1.00  0.00     0.014 A 
BRANCH  20  25
HETATM   25  O   UNL     1      44.794 -20.304   5.711  1.00  0.00    -0.339 OA
HETATM   26  C   UNL     1      43.823 -20.778   6.639  1.00  0.00     0.211 C 
ENDBRANCH  20  25
ENDBRANCH  18  19
ENDBRANCH   3  18
TORSDOF 4
ENDMDL
MODEL 10
REMARK VINA RESULT:      -7.9      1.780      3.636
REMARK  4 active torsions:
REMARK  status: ('A' for Active; 'I' for Inactive)
REMARK    1  A    between atoms: C_4  and  N_5 
REMARK       I    between atoms: N_5  and  C_6 
REMARK       I    between atoms: C_6  and  N_7 
REMARK    2  A    between atoms: N_7  and  C_8 
REMARK    3  A    between atoms: C_8  and  C_9 
REMARK    4  A    between atoms: C_10  and  O_11 
ROOT
HETATM    1  N   UNL     1      43.245 -17.013   1.467  1.00  0.00    -0.307 N 
HETATM    2  C   UNL     1      42.149 -16.210   1.458  1.00  0.00     0.321 C 
HETATM    3  N   UNL     1      41.043 -16.663   2.113  1.00  0.00    -0.338 N 
HETATM    4  O   UNL     1      42.174 -15.148   0.841  1.00  0.00    -0.247 OA
HETATM    5  H   UNL     1      43.937 -16.745   0.768  1.00  0.00     0.170 HD
HETATM    6  H   UNL     1      40.956 -17.668   2.086  1.00  0.00     0.164 HD
ENDROOT
BRANCH   1   7
HETATM    7  C   UNL     1      43.634 -18.135   2.236  1.00  0.00     0.066 A 
HETATM    8  C   UNL     1      43.751 -19.429   1.713  1.00  0.00     0.038 A 
HETATM    9  C   UNL     1      44.136 -20.498   2.531  1.00  0.00    -0.059 A 
HETATM   10  C   UNL     1      44.299 -21.877   1.965  1.00  0.00     0.048 C 
HETATM   11  C   UNL     1      44.401 -20.255   3.880  1.00  0.00     0.020 A 
HETATM   12  C   UNL     1      44.249 -18.969   4.423  1.00  0.00    -0.005 A 
HETATM   13  C   UNL     1      43.851 -17.891   3.604  1.00  0.00     0.093 A 
HETATM   14  C   UNL     1      44.483 -18.720   5.782  1.00  0.00     0.015 A 
HETATM   15  N   UNL     1      43.690 -16.643   4.106  1.00  0.00    -0.258 NA
HETATM   16  C   UNL     1      43.922 -16.443   5.421  1.00  0.00     0.117 A 
HETATM   17  C   UNL     1      44.317 -17.439   6.292  1.00  0.00     0.020 A 
ENDBRANCH   1   7
BRANCH   3  18
HETATM   18  C   UNL     1      39.790 -15.931   2.066  1.00  0.00     0.167 C 
BRANCH  18  19
HETATM   19  C   UNL     1      39.769 -14.659   2.872  1.00  0.00     0.012 A 
HETATM   20  C   UNL     1      40.118 -14.688   4.225  1.00  0.00     0.171 A 
HETATM   21  N   UNL     1      40.101 -13.608   5.040  1.00  0.00    -0.237 NA
HETATM   22  C   UNL     1      39.698 -12.441   4.497  1.00  0.00     0.119 A 
HETATM   23  C   UNL     1      39.316 -12.301   3.176  1.00  0.00     0.020 A 
HETATM   24  C   UNL     1      39.350 -13.426   2.356  1.00  0.00     0.014 A 
BRANCH  20  25
HETATM   25  O   UNL     1      40.511 -15.908   4.745  1.00  0.00    -0.339 OA
HETATM   26  C   UNL     1      40.544 -15.930   6.169  1.00  0.00     0.211 C 
ENDBRANCH  20  25
ENDBRANCH  18  19
ENDBRANCH   3  18
TORSDOF 4
ENDMDL
