MODEL 1
REMARK VINA RESULT:      -9.4      0.000      0.000
REMARK  3 active torsions:
REMARK  status: ('A' for Active; 'I' for Inactive)
REMARK    1  A    between atoms: C_2  and  C_3 
REMARK    2  A    between atoms: C_18  and  C_19 
REMARK    3  A    between atoms: C_22  and  O_23 
ROOT
HETATM    1  C   UNL     1      40.299 -14.635   4.768  1.00  0.00     0.060 C 
HETATM    2  C   UNL     1      41.775 -14.948   4.367  1.00  0.00     0.210 C 
HETATM    3  N   UNL     1      42.487 -13.698   3.992  1.00  0.00     0.110 N 
HETATM    4  C   UNL     1      41.863 -12.781   3.029  1.00  0.00     0.367 C 
HETATM    5  C   UNL     1      41.776 -13.415   1.646  1.00  0.00     0.230 C 
HETATM    6  O   UNL     1      42.566 -13.157   0.742  1.00  0.00    -0.278 OA
HETATM    7  N   UNL     1      40.803 -14.406   1.554  1.00  0.00    -0.227 NA
HETATM    8  C   UNL     1      41.294 -15.687   1.908  1.00  0.00     0.024 A 
HETATM    9  C   UNL     1      41.834 -15.968   3.185  1.00  0.00     0.007 A 
HETATM   10  C   UNL     1      41.313 -16.626   0.874  1.00  0.00     0.025 A 
HETATM   11  C   UNL     1      41.904 -17.870   1.066  1.00  0.00     0.014 A 
HETATM   12  C   UNL     1      42.526 -18.184   2.280  1.00  0.00    -0.025 A 
HETATM   13  C   UNL     1      42.488 -17.219   3.312  1.00  0.00     0.024 A 
HETATM   14  H   UNL     1      43.404 -13.966   3.627  1.00  0.00     0.318 HD
HETATM   15  H   UNL     1      40.027 -14.166   2.155  1.00  0.00     0.136 HD
ENDROOT
BRANCH  12  16
HETATM   16  C   UNL     1      43.207 -19.483   2.464  1.00  0.00    -0.026 A 
HETATM   17  C   UNL     1      42.977 -20.554   1.580  1.00  0.00     0.015 A 
HETATM   18  C   UNL     1      43.599 -21.795   1.758  1.00  0.00     0.037 A 
HETATM   19  C   UNL     1      44.466 -21.974   2.828  1.00  0.00     0.065 A 
HETATM   20  C   UNL     1      44.722 -20.936   3.713  1.00  0.00     0.037 A 
HETATM   21  C   UNL     1      44.095 -19.699   3.532  1.00  0.00     0.015 A 
BRANCH  19  22
HETATM   22  O   UNL     1      45.091 -23.166   3.044  1.00  0.00    -0.361 OA
HETATM   23  H   UNL     1      44.776 -23.804   2.384  1.00  0.00     0.217 HD
ENDBRANCH  19  22
ENDBRANCH  12  16
BRANCH   2  24
HETATM   24  C   UNL     1      42.407 -15.494   5.702  1.00  0.00    -0.016 A 
HETATM   25  C   UNL     1      43.575 -14.907   6.245  1.00  0.00     0.010 A 
HETATM   26  C   UNL     1      44.173 -15.402   7.408  1.00  0.00     0.001 A 
HETATM   27  C   UNL     1      43.627 -16.504   8.056  1.00  0.00     0.000 A 
HETATM   28  C   UNL     1      42.482 -17.106   7.546  1.00  0.00     0.001 A 
HETATM   29  C   UNL     1      41.880 -16.608   6.386  1.00  0.00     0.010 A 
ENDBRANCH   2  24
TORSDOF 3
ENDMDL
MODEL 2
REMARK VINA RESULT:      -8.5      1.838      4.457
REMARK  3 active torsions:
REMARK  status: ('A' for Active; 'I' for Inactive)
REMARK    1  A    between atoms: C_2  and  C_3 
REMARK    2  A    between atoms: C_18  and  C_19 
REMARK    3  A    between atoms: C_22  and  O_23 
ROOT
HETATM    1  C   UNL     1      42.470 -12.957   2.726  1.00  0.00     0.060 C 
HETATM    2  C   UNL     1      41.609 -14.254   2.828  1.00  0.00     0.210 C 
HETATM    3  N   UNL     1      40.241 -13.932   3.314  1.00  0.00     0.110 N 
HETATM    4  C   UNL     1      40.087 -13.101   4.516  1.00  0.00     0.367 C 
HETATM    5  C   UNL     1      40.601 -13.827   5.753  1.00  0.00     0.230 C 
HETATM    6  O   UNL     1      39.859 -14.385   6.556  1.00  0.00    -0.278 OA
HETATM    7  N   UNL     1      41.990 -13.904   5.809  1.00  0.00    -0.227 NA
HETATM    8  C   UNL     1      42.497 -15.053   5.151  1.00  0.00     0.024 A 
HETATM    9  C   UNL     1      42.276 -15.301   3.776  1.00  0.00     0.007 A 
HETATM   10  C   UNL     1      43.137 -15.980   5.977  1.00  0.00     0.025 A 
HETATM   11  C   UNL     1      43.548 -17.207   5.468  1.00  0.00     0.014 A 
HETATM   12  C   UNL     1      43.291 -17.549   4.136  1.00  0.00    -0.025 A 
HETATM   13  C   UNL     1      42.647 -16.591   3.320  1.00  0.00     0.024 A 
HETATM   14  H   UNL     1      39.757 -14.818   3.477  1.00  0.00     0.318 HD
HETATM   15  H   UNL     1      42.386 -13.075   5.390  1.00  0.00     0.136 HD
ENDROOT
BRANCH  12  16
HETATM   16  C   UNL     1      43.674 -18.876   3.610  1.00  0.00    -0.026 A 
HETATM   17  C   UNL     1      43.223 -19.314   2.349  1.00  0.00     0.015 A 
HETATM   18  C   UNL     1      43.561 -20.577   1.852  1.00  0.00     0.037 A 
HETATM   19  C   UNL     1      44.362 -21.417   2.614  1.00  0.00     0.065 A 
HETATM   20  C   UNL     1      44.830 -21.013   3.856  1.00  0.00     0.037 A 
HETATM   21  C   UNL     1      44.487 -19.751   4.351  1.00  0.00     0.015 A 
BRANCH  19  22
HETATM   22  O   UNL     1      44.713 -22.658   2.172  1.00  0.00    -0.361 OA
HETATM   23  H   UNL     1      45.383 -22.560   1.476  1.00  0.00     0.217 HD
ENDBRANCH  19  22
ENDBRANCH  12  16
BRANCH   2  24
HETATM   24  C   UNL     1      41.500 -14.738   1.333  1.00  0.00    -0.016 A 
HETATM   25  C   UNL     1      41.629 -13.821   0.263  1.00  0.00     0.010 A 
HETATM   26  C   UNL     1      41.497 -14.225  -1.069  1.00  0.00     0.001 A 
HETATM   27  C   UNL     1      41.221 -15.553  -1.370  1.00  0.00     0.000 A 
HETATM   28  C   UNL     1      41.084 -16.478  -0.341  1.00  0.00     0.001 A 
HETATM   29  C   UNL     1      41.222 -16.077   0.992  1.00  0.00     0.010 A 
ENDBRANCH   2  24
TORSDOF 3
ENDMDL
MODEL 3
REMARK VINA RESULT:      -8.3      2.638      6.090
REMARK  3 active torsions:
REMARK  status: ('A' for Active; 'I' for Inactive)
REMARK    1  A    between atoms: C_2  and  C_3 
REMARK    2  A    between atoms: C_18  and  C_19 
REMARK    3  A    between atoms: C_22  and  O_23 
ROOT
HETATM    1  C   UNL     1      42.405 -18.497   6.040  1.00  0.00     0.060 C 
HETATM    2  C   UNL     1      43.384 -17.796   5.046  1.00  0.00     0.210 C 
HETATM    3  N   UNL     1      44.695 -17.544   5.701  1.00  0.00     0.110 N 
HETATM    4  C   UNL     1      44.723 -16.891   7.016  1.00  0.00     0.367 C 
HETATM    5  C   UNL     1      44.236 -15.450   6.923  1.00  0.00     0.230 C 
HETATM    6  O   UNL     1      44.998 -14.488   6.896  1.00  0.00    -0.278 OA
HETATM    7  N   UNL     1      42.860 -15.344   6.739  1.00  0.00    -0.227 NA
HETATM    8  C   UNL     1      42.491 -15.363   5.370  1.00  0.00     0.024 A 
HETATM    9  C   UNL     1      42.786 -16.453   4.518  1.00  0.00     0.007 A 
HETATM   10  C   UNL     1      41.914 -14.184   4.892  1.00  0.00     0.025 A 
HETATM   11  C   UNL     1      41.643 -14.036   3.535  1.00  0.00     0.014 A 
HETATM   12  C   UNL     1      41.982 -15.045   2.626  1.00  0.00    -0.025 A 
HETATM   13  C   UNL     1      42.560 -16.229   3.137  1.00  0.00     0.024 A 
HETATM   14  H   UNL     1      45.256 -16.983   5.055  1.00  0.00     0.318 HD
HETATM   15  H   UNL     1      42.401 -16.104   7.221  1.00  0.00     0.136 HD
ENDROOT
BRANCH  12  16
HETATM   16  C   UNL     1      41.749 -14.864   1.178  1.00  0.00    -0.026 A 
HETATM   17  C   UNL     1      41.769 -13.582   0.595  1.00  0.00     0.015 A 
HETATM   18  C   UNL     1      41.527 -13.397  -0.770  1.00  0.00     0.037 A 
HETATM   19  C   UNL     1      41.267 -14.501  -1.571  1.00  0.00     0.065 A 
HETATM   20  C   UNL     1      41.249 -15.779  -1.030  1.00  0.00     0.037 A 
HETATM   21  C   UNL     1      41.487 -15.959   0.336  1.00  0.00     0.015 A 
BRANCH  19  22
HETATM   22  O   UNL     1      41.022 -14.369  -2.906  1.00  0.00    -0.361 OA
HETATM   23  H   UNL     1      40.688 -13.473  -3.072  1.00  0.00     0.217 HD
ENDBRANCH  19  22
ENDBRANCH  12  16
BRANCH   2  24
HETATM   24  C   UNL     1      43.595 -18.877   3.920  1.00  0.00    -0.016 A 
HETATM   25  C   UNL     1      42.785 -18.883   2.759  1.00  0.00     0.010 A 
HETATM   26  C   UNL     1      42.931 -19.857   1.767  1.00  0.00     0.001 A 
HETATM   27  C   UNL     1      43.883 -20.859   1.911  1.00  0.00     0.000 A 
HETATM   28  C   UNL     1      44.692 -20.884   3.042  1.00  0.00     0.001 A 
HETATM   29  C   UNL     1      44.550 -19.907   4.033  1.00  0.00     0.010 A 
ENDBRANCH   2  24
TORSDOF 3
ENDMDL
MODEL 4
REMARK VINA RESULT:      -8.2      3.350      5.935
REMARK  3 active torsions:
REMARK  status: ('A' for Active; 'I' for Inactive)
REMARK    1  A    between atoms: C_2  and  C_3 
REMARK    2  A    between atoms: C_18  and  C_19 
REMARK    3  A    between atoms: C_22  and  O_23 
ROOT
HETATM    1  C   UNL     1      40.963 -15.928   5.090  1.00  0.00     0.060 C 
HETATM    2  C   UNL     1      41.751 -15.222   3.941  1.00  0.00     0.210 C 
HETATM    3  N   UNL     1      42.762 -14.288   4.504  1.00  0.00     0.110 N 
HETATM    4  C   UNL     1      42.350 -13.322   5.530  1.00  0.00     0.367 C 
HETATM    5  C   UNL     1      41.385 -12.292   4.957  1.00  0.00     0.230 C 
HETATM    6  O   UNL     1      41.732 -11.160   4.631  1.00  0.00    -0.278 OA
HETATM    7  N   UNL     1      40.112 -12.802   4.719  1.00  0.00    -0.227 NA
HETATM    8  C   UNL     1      39.985 -13.368   3.427  1.00  0.00     0.024 A 
HETATM    9  C   UNL     1      40.786 -14.448   2.988  1.00  0.00     0.007 A 
HETATM   10  C   UNL     1      39.091 -12.715   2.574  1.00  0.00     0.025 A 
HETATM   11  C   UNL     1      38.991 -13.094   1.239  1.00  0.00     0.014 A 
HETATM   12  C   UNL     1      39.810 -14.103   0.721  1.00  0.00    -0.025 A 
HETATM   13  C   UNL     1      40.702 -14.751   1.606  1.00  0.00     0.024 A 
HETATM   14  H   UNL     1      43.166 -13.768   3.721  1.00  0.00     0.318 HD
HETATM   15  H   UNL     1      39.899 -13.502   5.416  1.00  0.00     0.136 HD
ENDROOT
BRANCH  12  16
HETATM   16  C   UNL     1      39.746 -14.465  -0.711  1.00  0.00    -0.026 A 
HETATM   17  C   UNL     1      38.647 -14.087  -1.506  1.00  0.00     0.015 A 
HETATM   18  C   UNL     1      38.566 -14.444  -2.856  1.00  0.00     0.037 A 
HETATM   19  C   UNL     1      39.593 -15.183  -3.428  1.00  0.00     0.065 A 
HETATM   20  C   UNL     1      40.695 -15.564  -2.675  1.00  0.00     0.037 A 
HETATM   21  C   UNL     1      40.770 -15.208  -1.325  1.00  0.00     0.015 A 
BRANCH  19  22
HETATM   22  O   UNL     1      39.555 -15.557  -4.738  1.00  0.00    -0.361 OA
HETATM   23  H   UNL     1      40.147 -14.977  -5.243  1.00  0.00     0.217 HD
ENDBRANCH  19  22
ENDBRANCH  12  16
BRANCH   2  24
HETATM   24  C   UNL     1      42.512 -16.409   3.239  1.00  0.00    -0.016 A 
HETATM   25  C   UNL     1      43.560 -16.157   2.321  1.00  0.00     0.010 A 
HETATM   26  C   UNL     1      44.221 -17.196   1.659  1.00  0.00     0.001 A 
HETATM   27  C   UNL     1      43.849 -18.515   1.887  1.00  0.00     0.000 A 
HETATM   28  C   UNL     1      42.821 -18.796   2.780  1.00  0.00     0.001 A 
HETATM   29  C   UNL     1      42.162 -17.758   3.447  1.00  0.00     0.010 A 
ENDBRANCH   2  24
TORSDOF 3
ENDMDL
MODEL 5
REMARK VINA RESULT:      -7.9      1.975      2.403
REMARK  3 active torsions:
REMARK  status: ('A' for Active; 'I' for Inactive)
REMARK    1  A    between atoms: C_2  and  C_3 
REMARK    2  A    between atoms: C_18  and  C_19 
REMARK    3  A    between atoms: C_22  and  O_23 
ROOT
HETATM    1  C   UNL     1      40.204 -12.897   2.669  1.00  0.00     0.060 C 
HETATM    2  C   UNL     1      41.696 -13.302   2.455  1.00  0.00     0.210 C 
HETATM    3  N   UNL     1      42.398 -12.282   1.631  1.00  0.00     0.110 N 
HETATM    4  C   UNL     1      41.787 -11.838   0.372  1.00  0.00     0.367 C 
HETATM    5  C   UNL     1      41.753 -12.969  -0.650  1.00  0.00     0.230 C 
HETATM    6  O   UNL     1      42.565 -13.066  -1.565  1.00  0.00    -0.278 OA
HETATM    7  N   UNL     1      40.800 -13.941  -0.362  1.00  0.00    -0.227 NA
HETATM    8  C   UNL     1      41.303 -14.964   0.480  1.00  0.00     0.024 A 
HETATM    9  C   UNL     1      41.808 -14.704   1.774  1.00  0.00     0.007 A 
HETATM   10  C   UNL     1      41.368 -16.235  -0.099  1.00  0.00     0.025 A 
HETATM   11  C   UNL     1      41.976 -17.285   0.582  1.00  0.00     0.014 A 
HETATM   12  C   UNL     1      42.565 -17.077   1.833  1.00  0.00    -0.025 A 
HETATM   13  C   UNL     1      42.480 -15.784   2.399  1.00  0.00     0.024 A 
HETATM   14  H   UNL     1      43.330 -12.648   1.422  1.00  0.00     0.318 HD
HETATM   15  H   UNL     1      40.002 -13.505   0.078  1.00  0.00     0.136 HD
ENDROOT
BRANCH  12  16
HETATM   16  C   UNL     1      43.263 -18.178   2.531  1.00  0.00    -0.026 A 
HETATM   17  C   UNL     1      43.524 -19.399   1.879  1.00  0.00     0.015 A 
HETATM   18  C   UNL     1      44.163 -20.456   2.536  1.00  0.00     0.037 A 
HETATM   19  C   UNL     1      44.554 -20.297   3.859  1.00  0.00     0.065 A 
HETATM   20  C   UNL     1      44.320 -19.104   4.528  1.00  0.00     0.037 A 
HETATM   21  C   UNL     1      43.678 -18.052   3.868  1.00  0.00     0.015 A 
BRANCH  19  22
HETATM   22  O   UNL     1      45.176 -21.300   4.541  1.00  0.00    -0.361 OA
HETATM   23  H   UNL     1      44.505 -21.805   5.029  1.00  0.00     0.217 HD
ENDBRANCH  19  22
ENDBRANCH  12  16
BRANCH   2  24
HETATM   24  C   UNL     1      42.297 -13.259   3.910  1.00  0.00    -0.016 A 
HETATM   25  C   UNL     1      43.545 -13.861   4.198  1.00  0.00     0.010 A 
HETATM   26  C   UNL     1      44.077 -13.867   5.491  1.00  0.00     0.001 A 
HETATM   27  C   UNL     1      43.372 -13.281   6.536  1.00  0.00     0.000 A 
HETATM   28  C   UNL     1      42.141 -12.684   6.287  1.00  0.00     0.001 A 
HETATM   29  C   UNL     1      41.611 -12.673   4.993  1.00  0.00     0.010 A 
ENDBRANCH   2  24
TORSDOF 3
ENDMDL
MODEL 6
REMARK VINA RESULT:      -7.8      2.430      5.502
REMARK  3 active torsions:
REMARK  status: ('A' for Active; 'I' for Inactive)
REMARK    1  A    between atoms: C_2  and  C_3 
REMARK    2  A    between atoms: C_18  and  C_19 
REMARK    3  A    between atoms: C_22  and  O_23 
ROOT
HETATM    1  C   UNL     1      42.300 -11.439   0.192  1.00  0.00     0.060 C 
HETATM    2  C   UNL     1      41.418 -12.655   0.615  1.00  0.00     0.210 C 
HETATM    3  N   UNL     1      40.029 -12.213   0.909  1.00  0.00     0.110 N 
HETATM    4  C   UNL     1      39.819 -11.071   1.809  1.00  0.00     0.367 C 
HETATM    5  C   UNL     1      40.254 -11.406   3.231  1.00  0.00     0.230 C 
HETATM    6  O   UNL     1      39.462 -11.713   4.117  1.00  0.00    -0.278 OA
HETATM    7  N   UNL     1      41.636 -11.459   3.385  1.00  0.00    -0.227 NA
HETATM    8  C   UNL     1      42.166 -12.745   3.116  1.00  0.00     0.024 A 
HETATM    9  C   UNL     1      42.019 -13.381   1.861  1.00  0.00     0.007 A 
HETATM   10  C   UNL     1      42.748 -13.392   4.210  1.00  0.00     0.025 A 
HETATM   11  C   UNL     1      43.172 -14.712   4.100  1.00  0.00     0.014 A 
HETATM   12  C   UNL     1      42.985 -15.425   2.911  1.00  0.00    -0.025 A 
HETATM   13  C   UNL     1      42.399 -14.746   1.818  1.00  0.00     0.024 A 
HETATM   14  H   UNL     1      39.527 -13.017   1.293  1.00  0.00     0.318 HD
HETATM   15  H   UNL     1      42.066 -10.783   2.768  1.00  0.00     0.136 HD
ENDROOT
BRANCH  12  16
HETATM   16  C   UNL     1      43.381 -16.845   2.813  1.00  0.00    -0.026 A 
HETATM   17  C   UNL     1      43.613 -17.615   3.969  1.00  0.00     0.015 A 
HETATM   18  C   UNL     1      44.010 -18.954   3.887  1.00  0.00     0.037 A 
HETATM   19  C   UNL     1      44.174 -19.540   2.640  1.00  0.00     0.065 A 
HETATM   20  C   UNL     1      43.945 -18.813   1.480  1.00  0.00     0.037 A 
HETATM   21  C   UNL     1      43.552 -17.474   1.567  1.00  0.00     0.015 A 
BRANCH  19  22
HETATM   22  O   UNL     1      44.564 -20.840   2.511  1.00  0.00    -0.361 OA
HETATM   23  H   UNL     1      45.534 -20.877   2.549  1.00  0.00     0.217 HD
ENDBRANCH  19  22
ENDBRANCH  12  16
BRANCH   2  24
HETATM   24  C   UNL     1      41.387 -13.550  -0.680  1.00  0.00    -0.016 A 
HETATM   25  C   UNL     1      42.055 -13.143  -1.860  1.00  0.00     0.010 A 
HETATM   26  C   UNL     1      42.006 -13.905  -3.031  1.00  0.00     0.001 A 
HETATM   27  C   UNL     1      41.281 -15.090  -3.061  1.00  0.00     0.000 A 
HETATM   28  C   UNL     1      40.609 -15.516  -1.920  1.00  0.00     0.001 A 
HETATM   29  C   UNL     1      40.662 -14.757  -0.746  1.00  0.00     0.010 A 
ENDBRANCH   2  24
TORSDOF 3
ENDMDL
MODEL 7
REMARK VINA RESULT:      -7.8      7.021      9.917
REMARK  3 active torsions:
REMARK  status: ('A' for Active; 'I' for Inactive)
REMARK    1  A    between atoms: C_2  and  C_3 
REMARK    2  A    between atoms: C_18  and  C_19 
REMARK    3  A    between atoms: C_22  and  O_23 
ROOT
HETATM    1  C   UNL     1      40.773  -8.310  11.109  1.00  0.00     0.060 C 
HETATM    2  C   UNL     1      40.734  -9.681  10.364  1.00  0.00     0.210 C 
HETATM    3  N   UNL     1      39.489 -10.420  10.701  1.00  0.00     0.110 N 
HETATM    4  C   UNL     1      39.112 -10.577  12.112  1.00  0.00     0.367 C 
HETATM    5  C   UNL     1      40.107 -11.462  12.851  1.00  0.00     0.230 C 
HETATM    6  O   UNL     1      39.893 -12.645  13.099  1.00  0.00    -0.278 OA
HETATM    7  N   UNL     1      41.325 -10.835  13.097  1.00  0.00    -0.227 NA
HETATM    8  C   UNL     1      42.247 -11.001  12.034  1.00  0.00     0.024 A 
HETATM    9  C   UNL     1      41.982 -10.551  10.720  1.00  0.00     0.007 A 
HETATM   10  C   UNL     1      43.392 -11.740  12.346  1.00  0.00     0.025 A 
HETATM   11  C   UNL     1      44.296 -12.088  11.349  1.00  0.00     0.014 A 
HETATM   12  C   UNL     1      44.055 -11.742  10.015  1.00  0.00    -0.025 A 
HETATM   13  C   UNL     1      42.893 -10.990   9.726  1.00  0.00     0.024 A 
HETATM   14  H   UNL     1      39.566 -11.352  10.287  1.00  0.00     0.318 HD
HETATM   15  H   UNL     1      41.166  -9.849  13.253  1.00  0.00     0.136 HD
ENDROOT
BRANCH  12  16
HETATM   16  C   UNL     1      44.984 -12.163   8.946  1.00  0.00    -0.026 A 
HETATM   17  C   UNL     1      46.232 -11.531   8.780  1.00  0.00     0.015 A 
HETATM   18  C   UNL     1      47.110 -11.907   7.758  1.00  0.00     0.037 A 
HETATM   19  C   UNL     1      46.748 -12.928   6.889  1.00  0.00     0.065 A 
HETATM   20  C   UNL     1      45.529 -13.577   7.030  1.00  0.00     0.037 A 
HETATM   21  C   UNL     1      44.654 -13.196   8.052  1.00  0.00     0.015 A 
BRANCH  19  22
HETATM   22  O   UNL     1      47.569 -13.324   5.876  1.00  0.00    -0.361 OA
HETATM   23  H   UNL     1      47.059 -13.878   5.263  1.00  0.00     0.217 HD
ENDBRANCH  19  22
ENDBRANCH  12  16
BRANCH   2  24
HETATM   24  C   UNL     1      40.667  -9.268   8.846  1.00  0.00    -0.016 A 
HETATM   25  C   UNL     1      39.989 -10.078   7.903  1.00  0.00     0.010 A 
HETATM   26  C   UNL     1      39.951  -9.749   6.545  1.00  0.00     0.001 A 
HETATM   27  C   UNL     1      40.597  -8.607   6.087  1.00  0.00     0.000 A 
HETATM   28  C   UNL     1      41.276  -7.792   6.987  1.00  0.00     0.001 A 
HETATM   29  C   UNL     1      41.310  -8.117   8.347  1.00  0.00     0.010 A 
ENDBRANCH   2  24
TORSDOF 3
ENDMDL
MODEL 8
REMARK VINA RESULT:      -7.5      2.769      5.758
REMARK  3 active torsions:
REMARK  status: ('A' for Active; 'I' for Inactive)
REMARK    1  A    between atoms: C_2  and  C_3 
REMARK    2  A    between atoms: C_18  and  C_19 
REMARK    3  A    between atoms: C_22  and  O_23 
ROOT
HETATM    1  C   UNL     1      43.922 -14.530   6.134  1.00  0.00     0.060 C 
HETATM    2  C   UNL     1      42.573 -15.135   5.632  1.00  0.00     0.210 C 
HETATM    3  N   UNL     1      42.052 -16.125   6.611  1.00  0.00     0.110 N 
HETATM    4  C   UNL     1      42.948 -17.177   7.109  1.00  0.00     0.367 C 
HETATM    5  C   UNL     1      43.333 -18.142   5.994  1.00  0.00     0.230 C 
HETATM    6  O   UNL     1      42.806 -19.242   5.852  1.00  0.00    -0.278 OA
HETATM    7  N   UNL     1      44.237 -17.601   5.085  1.00  0.00    -0.227 NA
HETATM    8  C   UNL     1      43.596 -16.918   4.021  1.00  0.00     0.024 A 
HETATM    9  C   UNL     1      42.744 -15.810   4.233  1.00  0.00     0.007 A 
HETATM   10  C   UNL     1      43.775 -17.483   2.755  1.00  0.00     0.025 A 
HETATM   11  C   UNL     1      43.079 -16.983   1.659  1.00  0.00     0.014 A 
HETATM   12  C   UNL     1      42.161 -15.939   1.813  1.00  0.00    -0.025 A 
HETATM   13  C   UNL     1      42.003 -15.381   3.103  1.00  0.00     0.024 A 
HETATM   14  H   UNL     1      41.238 -16.576   6.186  1.00  0.00     0.318 HD
HETATM   15  H   UNL     1      44.855 -16.965   5.569  1.00  0.00     0.136 HD
ENDROOT
BRANCH  12  16
HETATM   16  C   UNL     1      41.378 -15.447   0.661  1.00  0.00    -0.026 A 
HETATM   17  C   UNL     1      41.646 -15.901  -0.645  1.00  0.00     0.015 A 
HETATM   18  C   UNL     1      40.926 -15.425  -1.746  1.00  0.00     0.037 A 
HETATM   19  C   UNL     1      39.921 -14.488  -1.548  1.00  0.00     0.065 A 
HETATM   20  C   UNL     1      39.625 -14.026  -0.274  1.00  0.00     0.037 A 
HETATM   21  C   UNL     1      40.349 -14.502   0.823  1.00  0.00     0.015 A 
BRANCH  19  22
HETATM   22  O   UNL     1      39.196 -13.993  -2.591  1.00  0.00    -0.361 OA
HETATM   23  H   UNL     1      39.671 -13.233  -2.965  1.00  0.00     0.217 HD
ENDBRANCH  19  22
ENDBRANCH  12  16
BRANCH   2  24
HETATM   24  C   UNL     1      41.601 -13.896   5.618  1.00  0.00    -0.016 A 
HETATM   25  C   UNL     1      42.096 -12.587   5.405  1.00  0.00     0.010 A 
HETATM   26  C   UNL     1      41.254 -11.471   5.428  1.00  0.00     0.001 A 
HETATM   27  C   UNL     1      39.896 -11.629   5.675  1.00  0.00     0.000 A 
HETATM   28  C   UNL     1      39.378 -12.901   5.892  1.00  0.00     0.001 A 
HETATM   29  C   UNL     1      40.219 -14.019   5.864  1.00  0.00     0.010 A 
ENDBRANCH   2  24
TORSDOF 3
ENDMDL
MODEL 9
REMARK VINA RESULT:      -7.4      3.654      7.274
REMARK  3 active torsions:
REMARK  status: ('A' for Active; 'I' for Inactive)
REMARK    1  A    between atoms: C_2  and  C_3 
REMARK    2  A    between atoms: C_18  and  C_19 
REMARK    3  A    between atoms: C_22  and  O_23 
ROOT
HETATM    1  C   UNL     1      43.019 -15.519   2.932  1.00  0.00     0.060 C 
HETATM    2  C   UNL     1      41.811 -15.550   3.919  1.00  0.00     0.210 C 
HETATM    3  N   UNL     1      40.788 -16.526   3.458  1.00  0.00     0.110 N 
HETATM    4  C   UNL     1      40.328 -16.473   2.064  1.00  0.00     0.367 C 
HETATM    5  C   UNL     1      39.554 -15.189   1.791  1.00  0.00     0.230 C 
HETATM    6  O   UNL     1      38.328 -15.143   1.756  1.00  0.00    -0.278 OA
HETATM    7  N   UNL     1      40.367 -14.062   1.717  1.00  0.00    -0.227 NA
HETATM    8  C   UNL     1      40.569 -13.453   2.980  1.00  0.00     0.024 A 
HETATM    9  C   UNL     1      41.166 -14.134   4.066  1.00  0.00     0.007 A 
HETATM   10  C   UNL     1      40.037 -12.167   3.115  1.00  0.00     0.025 A 
HETATM   11  C   UNL     1      40.050 -11.529   4.351  1.00  0.00     0.014 A 
HETATM   12  C   UNL     1      40.554 -12.177   5.483  1.00  0.00    -0.025 A 
HETATM   13  C   UNL     1      41.091 -13.475   5.318  1.00  0.00     0.024 A 
HETATM   14  H   UNL     1      39.972 -16.424   4.066  1.00  0.00     0.318 HD
HETATM   15  H   UNL     1      41.260 -14.321   1.322  1.00  0.00     0.136 HD
ENDROOT
BRANCH  12  16
HETATM   16  C   UNL     1      40.513 -11.523   6.808  1.00  0.00    -0.026 A 
HETATM   17  C   UNL     1      41.578 -10.714   7.250  1.00  0.00     0.015 A 
HETATM   18  C   UNL     1      41.559 -10.109   8.511  1.00  0.00     0.037 A 
HETATM   19  C   UNL     1      40.466 -10.305   9.344  1.00  0.00     0.065 A 
HETATM   20  C   UNL     1      39.397 -11.089   8.936  1.00  0.00     0.037 A 
HETATM   21  C   UNL     1      39.421 -11.695   7.676  1.00  0.00     0.015 A 
BRANCH  19  22
HETATM   22  O   UNL     1      40.407  -9.739  10.583  1.00  0.00    -0.361 OA
HETATM   23  H   UNL     1      39.968 -10.361  11.187  1.00  0.00     0.217 HD
ENDBRANCH  19  22
ENDBRANCH  12  16
BRANCH   2  24
HETATM   24  C   UNL     1      42.445 -16.094   5.254  1.00  0.00    -0.016 A 
HETATM   25  C   UNL     1      41.735 -16.997   6.079  1.00  0.00     0.010 A 
HETATM   26  C   UNL     1      42.265 -17.461   7.287  1.00  0.00     0.001 A 
HETATM   27  C   UNL     1      43.516 -17.028   7.710  1.00  0.00     0.000 A 
HETATM   28  C   UNL     1      44.238 -16.137   6.924  1.00  0.00     0.001 A 
HETATM   29  C   UNL     1      43.711 -15.676   5.713  1.00  0.00     0.010 A 
ENDBRANCH   2  24
TORSDOF 3
ENDMDL
MODEL 10
REMARK VINA RESULT:      -7.4      2.434      5.238
REMARK  3 active torsions:
REMARK  status: ('A' for Active; 'I' for Inactive)
REMARK    1  A    between atoms: C_2  and  C_3 
REMARK    2  A    between atoms: C_18  and  C_19 
REMARK    3  A    between atoms: C_22  and  O_23 
ROOT
HETATM    1  C   UNL     1      41.280 -11.181   2.324  1.00  0.00     0.060 C 
HETATM    2  C   UNL     1      40.579 -12.565   2.493  1.00  0.00     0.210 C 
HETATM    3  N   UNL     1      39.165 -12.382   2.916  1.00  0.00     0.110 N 
HETATM    4  C   UNL     1      38.867 -11.498   4.051  1.00  0.00     0.367 C 
HETATM    5  C   UNL     1      39.419 -12.070   5.351  1.00  0.00     0.230 C 
HETATM    6  O   UNL     1      38.721 -12.661   6.170  1.00  0.00    -0.278 OA
HETATM    7  N   UNL     1      40.804 -11.972   5.451  1.00  0.00    -0.227 NA
HETATM    8  C   UNL     1      41.471 -13.090   4.891  1.00  0.00     0.024 A 
HETATM    9  C   UNL     1      41.332 -13.456   3.532  1.00  0.00     0.007 A 
HETATM   10  C   UNL     1      42.187 -13.874   5.800  1.00  0.00     0.025 A 
HETATM   11  C   UNL     1      42.763 -15.072   5.391  1.00  0.00     0.014 A 
HETATM   12  C   UNL     1      42.598 -15.531   4.080  1.00  0.00    -0.025 A 
HETATM   13  C   UNL     1      41.873 -14.717   3.179  1.00  0.00     0.024 A 
HETATM   14  H   UNL     1      38.787 -13.308   3.127  1.00  0.00     0.318 HD
HETATM   15  H   UNL     1      41.112 -11.129   4.987  1.00  0.00     0.136 HD
ENDROOT
BRANCH  12  16
HETATM   16  C   UNL     1      43.158 -16.833   3.660  1.00  0.00    -0.026 A 
HETATM   17  C   UNL     1      43.462 -17.091   2.309  1.00  0.00     0.015 A 
HETATM   18  C   UNL     1      43.971 -18.327   1.899  1.00  0.00     0.037 A 
HETATM   19  C   UNL     1      44.187 -19.322   2.842  1.00  0.00     0.065 A 
HETATM   20  C   UNL     1      43.907 -19.098   4.183  1.00  0.00     0.037 A 
HETATM   21  C   UNL     1      43.395 -17.862   4.589  1.00  0.00     0.015 A 
BRANCH  19  22
HETATM   22  O   UNL     1      44.678 -20.544   2.488  1.00  0.00    -0.361 OA
HETATM   23  H   UNL     1      45.563 -20.645   2.873  1.00  0.00     0.217 HD
ENDBRANCH  19  22
ENDBRANCH  12  16
BRANCH   2  24
HETATM   24  C   UNL     1      40.584 -13.157   1.034  1.00  0.00    -0.016 A 
HETATM   25  C   UNL     1      39.452 -13.835   0.522  1.00  0.00     0.010 A 
HETATM   26  C   UNL     1      39.452 -14.401  -0.756  1.00  0.00     0.001 A 
HETATM   27  C   UNL     1      40.586 -14.316  -1.555  1.00  0.00     0.000 A 
HETATM   28  C   UNL     1      41.716 -13.661  -1.080  1.00  0.00     0.001 A 
HETATM   29  C   UNL     1      41.716 -13.089   0.197  1.00  0.00     0.010 A 
ENDBRANCH   2  24
TORSDOF 3
ENDMDL
