MODEL 1
REMARK VINA RESULT:      -9.1      0.000      0.000
REMARK  5 active torsions:
REMARK  status: ('A' for Active; 'I' for Inactive)
REMARK    1  A    between atoms: C_7  and  C_8 
REMARK    2  A    between atoms: C_16  and  C_17 
REMARK    3  A    between atoms: C_19  and  O_20 
REMARK    4  A    between atoms: C_24  and  C_25 
REMARK       I    between atoms: C_25  and  N_26 
REMARK    5  A    between atoms: N_26  and  C_27 
ROOT
HETATM    1  C   UNL     1      39.411 -14.005  -0.573  1.00  0.00     0.070 C 
HETATM    2  C   UNL     1      40.250 -14.371   0.626  1.00  0.00     0.037 C 
HETATM    3  N   UNL     1      40.196 -15.714   1.011  1.00  0.00    -0.192 N 
HETATM    4  C   UNL     1      41.104 -16.254   1.850  1.00  0.00     0.726 A 
HETATM    5  N   UNL     1      41.907 -15.426   2.577  1.00  0.00    -0.083 N 
HETATM    6  N   UNL     1      42.844 -16.108   3.261  1.00  0.00    -0.135 NA
HETATM    7  C   UNL     1      42.526 -17.378   2.942  1.00  0.00     0.199 A 
HETATM    8  N   UNL     1      41.445 -17.494   2.080  1.00  0.00    -0.041 NA
HETATM    9  C   UNL     1      41.825 -13.967   2.532  1.00  0.00     0.202 C 
HETATM   10  C   UNL     1      41.039 -13.500   1.309  1.00  0.00     0.062 C 
HETATM   11  H   UNL     1      39.719 -16.346   0.372  1.00  0.00     0.184 HD
ENDROOT
BRANCH  10  12
HETATM   12  C   UNL     1      41.349 -12.144   0.754  1.00  0.00     0.256 C 
HETATM   13  N   UNL     1      42.289 -12.130  -0.253  1.00  0.00    -0.323 N 
HETATM   14  H   UNL     1      42.779 -12.987  -0.473  1.00  0.00     0.169 HD
HETATM   15  O   UNL     1      40.726 -11.174   1.173  1.00  0.00    -0.267 OA
BRANCH  13  16
HETATM   16  C   UNL     1      42.660 -11.031  -1.060  1.00  0.00     0.035 A 
HETATM   17  C   UNL     1      43.368  -9.919  -0.598  1.00  0.00     0.029 A 
HETATM   18  C   UNL     1      43.674  -8.863  -1.462  1.00  0.00     0.002 A 
HETATM   19  C   UNL     1      43.269  -8.904  -2.794  1.00  0.00     0.000 A 
HETATM   20  C   UNL     1      42.564 -10.008  -3.266  1.00  0.00     0.002 A 
HETATM   21  C   UNL     1      42.267 -11.068  -2.405  1.00  0.00     0.029 A 
ENDBRANCH  13  16
ENDBRANCH  10  12
BRANCH   9  22
HETATM   22  C   UNL     1      41.245 -13.464   3.857  1.00  0.00    -0.025 A 
HETATM   23  C   UNL     1      42.061 -12.929   4.874  1.00  0.00     0.046 A 
HETATM   24  C   UNL     1      41.494 -12.506   6.074  1.00  0.00     0.066 A 
HETATM   25  C   UNL     1      40.124 -12.587   6.283  1.00  0.00     0.036 A 
HETATM   26  C   UNL     1      39.302 -13.088   5.277  1.00  0.00     0.003 A 
HETATM   27  C   UNL     1      39.856 -13.523   4.071  1.00  0.00     0.010 A 
BRANCH  24  28
HETATM   28  O   UNL     1      42.260 -12.002   7.082  1.00  0.00    -0.361 OA
HETATM   29  H   UNL     1      41.966 -11.098   7.287  1.00  0.00     0.217 HD
ENDBRANCH  24  28
ENDBRANCH   9  22
BRANCH   7  30
HETATM   30  C   UNL     1      43.279 -18.539   3.410  1.00  0.00     0.014 A 
HETATM   31  C   UNL     1      43.685 -19.543   2.517  1.00  0.00     0.017 A 
HETATM   32  C   UNL     1      44.385 -20.664   2.972  1.00  0.00     0.025 A 
HETATM   33  C   UNL     1      44.681 -20.790   4.327  1.00  0.00     0.034 A 
HETATM   34 CL   UNL     1      45.533 -22.174   4.891  1.00  0.00    -0.084 Cl
HETATM   35  C   UNL     1      44.288 -19.804   5.229  1.00  0.00     0.025 A 
HETATM   36  C   UNL     1      43.591 -18.681   4.770  1.00  0.00     0.017 A 
ENDBRANCH   7  30
TORSDOF 5
ENDMDL
MODEL 2
REMARK VINA RESULT:      -9.0      2.920      5.200
REMARK  5 active torsions:
REMARK  status: ('A' for Active; 'I' for Inactive)
REMARK    1  A    between atoms: C_7  and  C_8 
REMARK    2  A    between atoms: C_16  and  C_17 
REMARK    3  A    between atoms: C_19  and  O_20 
REMARK    4  A    between atoms: C_24  and  C_25 
REMARK       I    between atoms: C_25  and  N_26 
REMARK    5  A    between atoms: N_26  and  C_27 
ROOT
HETATM    1  C   UNL     1      38.974 -12.484   3.690  1.00  0.00     0.070 C 
HETATM    2  C   UNL     1      39.674 -13.523   2.850  1.00  0.00     0.037 C 
HETATM    3  N   UNL     1      40.790 -14.122   3.440  1.00  0.00    -0.192 N 
HETATM    4  C   UNL     1      41.329 -15.262   2.958  1.00  0.00     0.726 A 
HETATM    5  N   UNL     1      40.982 -15.679   1.707  1.00  0.00    -0.083 N 
HETATM    6  N   UNL     1      41.493 -16.892   1.422  1.00  0.00    -0.135 NA
HETATM    7  C   UNL     1      42.195 -17.147   2.544  1.00  0.00     0.199 A 
HETATM    8  N   UNL     1      42.119 -16.148   3.503  1.00  0.00    -0.041 NA
HETATM    9  C   UNL     1      40.077 -14.944   0.825  1.00  0.00     0.202 C 
HETATM   10  C   UNL     1      39.277 -13.904   1.607  1.00  0.00     0.062 C 
HETATM   11  H   UNL     1      40.944 -13.915   4.424  1.00  0.00     0.184 HD
ENDROOT
BRANCH  10  12
HETATM   12  C   UNL     1      37.935 -13.507   1.071  1.00  0.00     0.256 C 
HETATM   13  N   UNL     1      37.839 -12.195   0.663  1.00  0.00    -0.323 N 
HETATM   14  H   UNL     1      38.614 -11.571   0.845  1.00  0.00     0.169 HD
HETATM   15  O   UNL     1      37.057 -14.359   0.976  1.00  0.00    -0.267 OA
BRANCH  13  16
HETATM   16  C   UNL     1      36.760 -11.591  -0.020  1.00  0.00     0.035 A 
HETATM   17  C   UNL     1      35.584 -11.155   0.595  1.00  0.00     0.029 A 
HETATM   18  C   UNL     1      34.555 -10.587  -0.162  1.00  0.00     0.002 A 
HETATM   19  C   UNL     1      34.687 -10.454  -1.541  1.00  0.00     0.000 A 
HETATM   20  C   UNL     1      35.855 -10.883  -2.166  1.00  0.00     0.002 A 
HETATM   21  C   UNL     1      36.888 -11.442  -1.408  1.00  0.00     0.029 A 
ENDBRANCH  13  16
ENDBRANCH  10  12
BRANCH   9  22
HETATM   22  C   UNL     1      40.887 -14.348  -0.329  1.00  0.00    -0.025 A 
HETATM   23  C   UNL     1      41.043 -15.022  -1.557  1.00  0.00     0.046 A 
HETATM   24  C   UNL     1      41.810 -14.454  -2.571  1.00  0.00     0.066 A 
HETATM   25  C   UNL     1      42.416 -13.216  -2.401  1.00  0.00     0.036 A 
HETATM   26  C   UNL     1      42.248 -12.526  -1.203  1.00  0.00     0.003 A 
HETATM   27  C   UNL     1      41.487 -13.086  -0.173  1.00  0.00     0.010 A 
BRANCH  24  28
HETATM   28  O   UNL     1      41.995 -15.090  -3.763  1.00  0.00    -0.361 OA
HETATM   29  H   UNL     1      42.892 -15.464  -3.791  1.00  0.00     0.217 HD
ENDBRANCH  24  28
ENDBRANCH   9  22
BRANCH   7  30
HETATM   30  C   UNL     1      42.933 -18.389   2.767  1.00  0.00     0.014 A 
HETATM   31  C   UNL     1      42.939 -19.406   1.799  1.00  0.00     0.017 A 
HETATM   32  C   UNL     1      43.626 -20.603   2.025  1.00  0.00     0.025 A 
HETATM   33  C   UNL     1      44.310 -20.790   3.223  1.00  0.00     0.034 A 
HETATM   34 CL   UNL     1      45.147 -22.266   3.508  1.00  0.00    -0.084 Cl
HETATM   35  C   UNL     1      44.316 -19.793   4.195  1.00  0.00     0.025 A 
HETATM   36  C   UNL     1      43.631 -18.595   3.965  1.00  0.00     0.017 A 
ENDBRANCH   7  30
TORSDOF 5
ENDMDL
MODEL 3
REMARK VINA RESULT:      -8.9      1.618      2.197
REMARK  5 active torsions:
REMARK  status: ('A' for Active; 'I' for Inactive)
REMARK    1  A    between atoms: C_7  and  C_8 
REMARK    2  A    between atoms: C_16  and  C_17 
REMARK    3  A    between atoms: C_19  and  O_20 
REMARK    4  A    between atoms: C_24  and  C_25 
REMARK       I    between atoms: C_25  and  N_26 
REMARK    5  A    between atoms: N_26  and  C_27 
ROOT
HETATM    1  C   UNL     1      40.464 -14.840  -2.817  1.00  0.00     0.070 C 
HETATM    2  C   UNL     1      41.032 -14.970  -1.426  1.00  0.00     0.037 C 
HETATM    3  N   UNL     1      40.835 -16.209  -0.809  1.00  0.00    -0.192 N 
HETATM    4  C   UNL     1      41.532 -16.581   0.285  1.00  0.00     0.726 A 
HETATM    5  N   UNL     1      42.218 -15.635   0.986  1.00  0.00    -0.083 N 
HETATM    6  N   UNL     1      42.966 -16.178   1.965  1.00  0.00    -0.135 NA
HETATM    7  C   UNL     1      42.653 -17.482   1.837  1.00  0.00     0.199 A 
HETATM    8  N   UNL     1      41.758 -17.755   0.813  1.00  0.00    -0.041 NA
HETATM    9  C   UNL     1      42.220 -14.213   0.646  1.00  0.00     0.202 C 
HETATM   10  C   UNL     1      41.715 -13.989  -0.777  1.00  0.00     0.062 C 
HETATM   11  H   UNL     1      40.461 -16.950  -1.397  1.00  0.00     0.184 HD
ENDROOT
BRANCH  10  12
HETATM   12  C   UNL     1      42.196 -12.774  -1.507  1.00  0.00     0.256 C 
HETATM   13  N   UNL     1      41.764 -11.574  -0.985  1.00  0.00    -0.323 N 
HETATM   14  H   UNL     1      41.083 -11.586  -0.238  1.00  0.00     0.169 HD
HETATM   15  O   UNL     1      42.966 -12.914  -2.452  1.00  0.00    -0.267 OA
BRANCH  13  16
HETATM   16  C   UNL     1      42.180 -10.278  -1.365  1.00  0.00     0.035 A 
HETATM   17  C   UNL     1      41.463  -9.442  -2.224  1.00  0.00     0.029 A 
HETATM   18  C   UNL     1      41.961  -8.181  -2.566  1.00  0.00     0.002 A 
HETATM   19  C   UNL     1      43.182  -7.745  -2.059  1.00  0.00     0.000 A 
HETATM   20  C   UNL     1      43.904  -8.569  -1.201  1.00  0.00     0.002 A 
HETATM   21  C   UNL     1      43.403  -9.826  -0.851  1.00  0.00     0.029 A 
ENDBRANCH  13  16
ENDBRANCH  10  12
BRANCH   9  22
HETATM   22  C   UNL     1      41.418 -13.450   1.705  1.00  0.00    -0.025 A 
HETATM   23  C   UNL     1      42.031 -12.561   2.609  1.00  0.00     0.046 A 
HETATM   24  C   UNL     1      41.267 -11.907   3.572  1.00  0.00     0.066 A 
HETATM   25  C   UNL     1      39.895 -12.104   3.648  1.00  0.00     0.036 A 
HETATM   26  C   UNL     1      39.270 -12.959   2.744  1.00  0.00     0.003 A 
HETATM   27  C   UNL     1      40.025 -13.627   1.776  1.00  0.00     0.010 A 
BRANCH  24  28
HETATM   28  O   UNL     1      41.835 -11.056   4.472  1.00  0.00    -0.361 OA
HETATM   29  H   UNL     1      41.783 -11.447   5.360  1.00  0.00     0.217 HD
ENDBRANCH  24  28
ENDBRANCH   9  22
BRANCH   7  30
HETATM   30  C   UNL     1      43.239 -18.535   2.663  1.00  0.00     0.014 A 
HETATM   31  C   UNL     1      43.377 -18.370   4.050  1.00  0.00     0.017 A 
HETATM   32  C   UNL     1      43.961 -19.369   4.834  1.00  0.00     0.025 A 
HETATM   33  C   UNL     1      44.412 -20.542   4.234  1.00  0.00     0.034 A 
HETATM   34 CL   UNL     1      45.140 -21.769   5.196  1.00  0.00    -0.084 Cl
HETATM   35  C   UNL     1      44.283 -20.726   2.860  1.00  0.00     0.025 A 
HETATM   36  C   UNL     1      43.696 -19.725   2.077  1.00  0.00     0.017 A 
ENDBRANCH   7  30
TORSDOF 5
ENDMDL
MODEL 4
REMARK VINA RESULT:      -8.5      3.081      5.147
REMARK  5 active torsions:
REMARK  status: ('A' for Active; 'I' for Inactive)
REMARK    1  A    between atoms: C_7  and  C_8 
REMARK    2  A    between atoms: C_16  and  C_17 
REMARK    3  A    between atoms: C_19  and  O_20 
REMARK    4  A    between atoms: C_24  and  C_25 
REMARK       I    between atoms: C_25  and  N_26 
REMARK    5  A    between atoms: N_26  and  C_27 
ROOT
HETATM    1  C   UNL     1      36.844 -13.234   0.614  1.00  0.00     0.070 C 
HETATM    2  C   UNL     1      38.222 -13.811   0.404  1.00  0.00     0.037 C 
HETATM    3  N   UNL     1      38.879 -14.236   1.562  1.00  0.00    -0.192 N 
HETATM    4  C   UNL     1      39.962 -15.039   1.515  1.00  0.00     0.726 A 
HETATM    5  N   UNL     1      40.616 -15.199   0.329  1.00  0.00    -0.083 N 
HETATM    6  N   UNL     1      41.588 -16.127   0.412  1.00  0.00    -0.135 NA
HETATM    7  C   UNL     1      41.507 -16.472   1.712  1.00  0.00     0.199 A 
HETATM    8  N   UNL     1      40.517 -15.804   2.418  1.00  0.00    -0.041 NA
HETATM    9  C   UNL     1      40.236 -14.518  -0.908  1.00  0.00     0.202 C 
HETATM   10  C   UNL     1      38.822 -13.951  -0.808  1.00  0.00     0.062 C 
HETATM   11  H   UNL     1      38.323 -14.255   2.414  1.00  0.00     0.184 HD
ENDROOT
BRANCH  10  12
HETATM   12  C   UNL     1      38.044 -13.786  -2.077  1.00  0.00     0.256 C 
HETATM   13  N   UNL     1      37.749 -12.482  -2.410  1.00  0.00    -0.323 N 
HETATM   14  H   UNL     1      37.968 -11.749  -1.749  1.00  0.00     0.169 HD
HETATM   15  O   UNL     1      37.780 -14.779  -2.746  1.00  0.00    -0.267 OA
BRANCH  13  16
HETATM   16  C   UNL     1      37.171 -12.019  -3.614  1.00  0.00     0.035 A 
HETATM   17  C   UNL     1      35.965 -12.487  -4.140  1.00  0.00     0.029 A 
HETATM   18  C   UNL     1      35.477 -11.988  -5.351  1.00  0.00     0.002 A 
HETATM   19  C   UNL     1      36.192 -11.021  -6.053  1.00  0.00     0.000 A 
HETATM   20  C   UNL     1      37.395 -10.545  -5.538  1.00  0.00     0.002 A 
HETATM   21  C   UNL     1      37.878 -11.037  -4.322  1.00  0.00     0.029 A 
ENDBRANCH  13  16
ENDBRANCH  10  12
BRANCH   9  22
HETATM   22  C   UNL     1      41.295 -13.462  -1.236  1.00  0.00    -0.025 A 
HETATM   23  C   UNL     1      41.705 -12.497  -0.294  1.00  0.00     0.046 A 
HETATM   24  C   UNL     1      42.653 -11.539  -0.645  1.00  0.00     0.066 A 
HETATM   25  C   UNL     1      43.221 -11.527  -1.911  1.00  0.00     0.036 A 
HETATM   26  C   UNL     1      42.846 -12.491  -2.844  1.00  0.00     0.003 A 
HETATM   27  C   UNL     1      41.891 -13.454  -2.510  1.00  0.00     0.010 A 
BRANCH  24  28
HETATM   28  O   UNL     1      43.055 -10.582   0.239  1.00  0.00    -0.361 OA
HETATM   29  H   UNL     1      42.413  -9.853   0.236  1.00  0.00     0.217 HD
ENDBRANCH  24  28
ENDBRANCH   9  22
BRANCH   7  30
HETATM   30  C   UNL     1      42.345 -17.500   2.326  1.00  0.00     0.014 A 
HETATM   31  C   UNL     1      42.378 -17.664   3.720  1.00  0.00     0.017 A 
HETATM   32  C   UNL     1      43.200 -18.632   4.305  1.00  0.00     0.025 A 
HETATM   33  C   UNL     1      43.996 -19.442   3.499  1.00  0.00     0.034 A 
HETATM   34 CL   UNL     1      45.015 -20.626   4.218  1.00  0.00    -0.084 Cl
HETATM   35  C   UNL     1      43.975 -19.295   2.114  1.00  0.00     0.025 A 
HETATM   36  C   UNL     1      43.150 -18.327   1.530  1.00  0.00     0.017 A 
ENDBRANCH   7  30
TORSDOF 5
ENDMDL
MODEL 5
REMARK VINA RESULT:      -8.3      2.857      5.090
REMARK  5 active torsions:
REMARK  status: ('A' for Active; 'I' for Inactive)
REMARK    1  A    between atoms: C_7  and  C_8 
REMARK    2  A    between atoms: C_16  and  C_17 
REMARK    3  A    between atoms: C_19  and  O_20 
REMARK    4  A    between atoms: C_24  and  C_25 
REMARK       I    between atoms: C_25  and  N_26 
REMARK    5  A    between atoms: N_26  and  C_27 
ROOT
HETATM    1  C   UNL     1      41.440 -10.774   4.840  1.00  0.00     0.070 C 
HETATM    2  C   UNL     1      41.486 -12.101   4.125  1.00  0.00     0.037 C 
HETATM    3  N   UNL     1      42.643 -12.857   4.333  1.00  0.00    -0.192 N 
HETATM    4  C   UNL     1      42.705 -14.169   4.022  1.00  0.00     0.726 A 
HETATM    5  N   UNL     1      41.743 -14.704   3.217  1.00  0.00    -0.083 N 
HETATM    6  N   UNL     1      41.865 -16.040   3.109  1.00  0.00    -0.135 NA
HETATM    7  C   UNL     1      42.970 -16.261   3.848  1.00  0.00     0.199 A 
HETATM    8  N   UNL     1      43.515 -15.117   4.413  1.00  0.00    -0.041 NA
HETATM    9  C   UNL     1      40.650 -13.931   2.631  1.00  0.00     0.202 C 
HETATM   10  C   UNL     1      40.489 -12.587   3.338  1.00  0.00     0.062 C 
HETATM   11  H   UNL     1      43.278 -12.519   5.051  1.00  0.00     0.184 HD
ENDROOT
BRANCH  10  12
HETATM   12  C   UNL     1      39.133 -11.951   3.331  1.00  0.00     0.256 C 
HETATM   13  N   UNL     1      38.723 -11.473   2.106  1.00  0.00    -0.323 N 
HETATM   14  H   UNL     1      39.380 -11.477   1.338  1.00  0.00     0.169 HD
HETATM   15  O   UNL     1      38.472 -11.950   4.364  1.00  0.00    -0.267 OA
BRANCH  13  16
HETATM   16  C   UNL     1      37.445 -10.972   1.770  1.00  0.00     0.035 A 
HETATM   17  C   UNL     1      36.886  -9.813   2.313  1.00  0.00     0.029 A 
HETATM   18  C   UNL     1      35.603  -9.402   1.940  1.00  0.00     0.002 A 
HETATM   19  C   UNL     1      34.863 -10.148   1.026  1.00  0.00     0.000 A 
HETATM   20  C   UNL     1      35.411 -11.304   0.477  1.00  0.00     0.002 A 
HETATM   21  C   UNL     1      36.697 -11.710   0.842  1.00  0.00     0.029 A 
ENDBRANCH  13  16
ENDBRANCH  10  12
BRANCH   9  22
HETATM   22  C   UNL     1      40.889 -13.802   1.124  1.00  0.00    -0.025 A 
HETATM   23  C   UNL     1      40.205 -14.605   0.189  1.00  0.00     0.046 A 
HETATM   24  C   UNL     1      40.472 -14.472  -1.172  1.00  0.00     0.066 A 
HETATM   25  C   UNL     1      41.395 -13.542  -1.630  1.00  0.00     0.036 A 
HETATM   26  C   UNL     1      42.058 -12.723  -0.720  1.00  0.00     0.003 A 
HETATM   27  C   UNL     1      41.807 -12.849   0.648  1.00  0.00     0.010 A 
BRANCH  24  28
HETATM   28  O   UNL     1      39.841 -15.247  -2.098  1.00  0.00    -0.361 OA
HETATM   29  H   UNL     1      40.451 -15.937  -2.408  1.00  0.00     0.217 HD
ENDBRANCH  24  28
ENDBRANCH   9  22
BRANCH   7  30
HETATM   30  C   UNL     1      43.526 -17.591   4.088  1.00  0.00     0.014 A 
HETATM   31  C   UNL     1      43.707 -18.497   3.030  1.00  0.00     0.017 A 
HETATM   32  C   UNL     1      44.217 -19.777   3.266  1.00  0.00     0.025 A 
HETATM   33  C   UNL     1      44.548 -20.160   4.564  1.00  0.00     0.034 A 
HETATM   34 CL   UNL     1      45.165 -21.739   4.858  1.00  0.00    -0.084 Cl
HETATM   35  C   UNL     1      44.377 -19.275   5.625  1.00  0.00     0.025 A 
HETATM   36  C   UNL     1      43.869 -17.993   5.386  1.00  0.00     0.017 A 
ENDBRANCH   7  30
TORSDOF 5
ENDMDL
MODEL 6
REMARK VINA RESULT:      -8.1      2.748      5.373
REMARK  5 active torsions:
REMARK  status: ('A' for Active; 'I' for Inactive)
REMARK    1  A    between atoms: C_7  and  C_8 
REMARK    2  A    between atoms: C_16  and  C_17 
REMARK    3  A    between atoms: C_19  and  O_20 
REMARK    4  A    between atoms: C_24  and  C_25 
REMARK       I    between atoms: C_25  and  N_26 
REMARK    5  A    between atoms: N_26  and  C_27 
ROOT
HETATM    1  C   UNL     1      42.042 -11.530   6.539  1.00  0.00     0.070 C 
HETATM    2  C   UNL     1      41.874 -12.525   5.418  1.00  0.00     0.037 C 
HETATM    3  N   UNL     1      42.930 -13.425   5.249  1.00  0.00    -0.192 N 
HETATM    4  C   UNL     1      42.801 -14.548   4.510  1.00  0.00     0.726 A 
HETATM    5  N   UNL     1      41.736 -14.666   3.667  1.00  0.00    -0.083 N 
HETATM    6  N   UNL     1      41.674 -15.887   3.104  1.00  0.00    -0.135 NA
HETATM    7  C   UNL     1      42.777 -16.466   3.618  1.00  0.00     0.199 A 
HETATM    8  N   UNL     1      43.497 -15.653   4.481  1.00  0.00    -0.041 NA
HETATM    9  C   UNL     1      40.726 -13.625   3.482  1.00  0.00     0.202 C 
HETATM   10  C   UNL     1      40.782 -12.600   4.611  1.00  0.00     0.062 C 
HETATM   11  H   UNL     1      43.641 -13.426   5.976  1.00  0.00     0.184 HD
ENDROOT
BRANCH  10  12
HETATM   12  C   UNL     1      39.524 -11.860   4.948  1.00  0.00     0.256 C 
HETATM   13  N   UNL     1      39.453 -10.578   4.447  1.00  0.00    -0.323 N 
HETATM   14  H   UNL     1      40.269 -10.187   3.995  1.00  0.00     0.169 HD
HETATM   15  O   UNL     1      38.642 -12.440   5.572  1.00  0.00    -0.267 OA
BRANCH  13  16
HETATM   16  C   UNL     1      38.336  -9.713   4.470  1.00  0.00     0.035 A 
HETATM   17  C   UNL     1      37.307  -9.730   3.526  1.00  0.00     0.029 A 
HETATM   18  C   UNL     1      36.249  -8.820   3.613  1.00  0.00     0.002 A 
HETATM   19  C   UNL     1      36.212  -7.880   4.639  1.00  0.00     0.000 A 
HETATM   20  C   UNL     1      37.231  -7.855   5.587  1.00  0.00     0.002 A 
HETATM   21  C   UNL     1      38.284  -8.770   5.507  1.00  0.00     0.029 A 
ENDBRANCH  13  16
ENDBRANCH  10  12
BRANCH   9  22
HETATM   22  C   UNL     1      40.900 -13.010   2.090  1.00  0.00    -0.025 A 
HETATM   23  C   UNL     1      41.937 -12.101   1.801  1.00  0.00     0.046 A 
HETATM   24  C   UNL     1      42.044 -11.546   0.527  1.00  0.00     0.066 A 
HETATM   25  C   UNL     1      41.149 -11.889  -0.477  1.00  0.00     0.036 A 
HETATM   26  C   UNL     1      40.135 -12.807  -0.213  1.00  0.00     0.003 A 
HETATM   27  C   UNL     1      40.011 -13.366   1.061  1.00  0.00     0.010 A 
BRANCH  24  28
HETATM   28  O   UNL     1      43.024 -10.650   0.223  1.00  0.00    -0.361 OA
HETATM   29  H   UNL     1      43.237 -10.126   1.014  1.00  0.00     0.217 HD
ENDBRANCH  24  28
ENDBRANCH   9  22
BRANCH   7  30
HETATM   30  C   UNL     1      43.163 -17.848   3.342  1.00  0.00     0.014 A 
HETATM   31  C   UNL     1      44.005 -18.549   4.220  1.00  0.00     0.017 A 
HETATM   32  C   UNL     1      44.392 -19.863   3.941  1.00  0.00     0.025 A 
HETATM   33  C   UNL     1      43.940 -20.485   2.779  1.00  0.00     0.034 A 
HETATM   34 CL   UNL     1      44.423 -22.098   2.429  1.00  0.00    -0.084 Cl
HETATM   35  C   UNL     1      43.102 -19.806   1.898  1.00  0.00     0.025 A 
HETATM   36  C   UNL     1      42.714 -18.492   2.180  1.00  0.00     0.017 A 
ENDBRANCH   7  30
TORSDOF 5
ENDMDL
MODEL 7
REMARK VINA RESULT:      -8.0      4.264      8.354
REMARK  5 active torsions:
REMARK  status: ('A' for Active; 'I' for Inactive)
REMARK    1  A    between atoms: C_7  and  C_8 
REMARK    2  A    between atoms: C_16  and  C_17 
REMARK    3  A    between atoms: C_19  and  O_20 
REMARK    4  A    between atoms: C_24  and  C_25 
REMARK       I    between atoms: C_25  and  N_26 
REMARK    5  A    between atoms: N_26  and  C_27 
ROOT
HETATM    1  C   UNL     1      43.886 -16.999   1.470  1.00  0.00     0.070 C 
HETATM    2  C   UNL     1      42.631 -16.164   1.407  1.00  0.00     0.037 C 
HETATM    3  N   UNL     1      42.416 -15.490   0.202  1.00  0.00    -0.192 N 
HETATM    4  C   UNL     1      41.216 -14.962  -0.118  1.00  0.00     0.726 A 
HETATM    5  N   UNL     1      40.278 -14.810   0.861  1.00  0.00    -0.083 N 
HETATM    6  N   UNL     1      39.096 -14.400   0.364  1.00  0.00    -0.135 NA
HETATM    7  C   UNL     1      39.394 -14.272  -0.944  1.00  0.00     0.199 A 
HETATM    8  N   UNL     1      40.702 -14.603  -1.264  1.00  0.00    -0.041 NA
HETATM    9  C   UNL     1      40.504 -15.154   2.264  1.00  0.00     0.202 C 
HETATM   10  C   UNL     1      41.727 -16.055   2.417  1.00  0.00     0.062 C 
HETATM   11  H   UNL     1      43.037 -15.733  -0.566  1.00  0.00     0.184 HD
ENDROOT
BRANCH  10  12
HETATM   12  C   UNL     1      41.770 -16.982   3.593  1.00  0.00     0.256 C 
HETATM   13  N   UNL     1      42.918 -16.905   4.350  1.00  0.00    -0.323 N 
HETATM   14  H   UNL     1      43.682 -16.332   4.018  1.00  0.00     0.169 HD
HETATM   15  O   UNL     1      40.792 -17.682   3.834  1.00  0.00    -0.267 OA
BRANCH  13  16
HETATM   16  C   UNL     1      43.167 -17.537   5.589  1.00  0.00     0.035 A 
HETATM   17  C   UNL     1      43.025 -16.916   6.832  1.00  0.00     0.029 A 
HETATM   18  C   UNL     1      43.316 -17.611   8.010  1.00  0.00     0.002 A 
HETATM   19  C   UNL     1      43.759 -18.930   7.958  1.00  0.00     0.000 A 
HETATM   20  C   UNL     1      43.903 -19.559   6.725  1.00  0.00     0.002 A 
HETATM   21  C   UNL     1      43.602 -18.869   5.548  1.00  0.00     0.029 A 
ENDBRANCH  13  16
ENDBRANCH  10  12
BRANCH   9  22
HETATM   22  C   UNL     1      40.591 -13.863   3.081  1.00  0.00    -0.025 A 
HETATM   23  C   UNL     1      39.459 -13.288   3.693  1.00  0.00     0.046 A 
HETATM   24  C   UNL     1      39.581 -12.098   4.407  1.00  0.00     0.066 A 
HETATM   25  C   UNL     1      40.811 -11.470   4.543  1.00  0.00     0.036 A 
HETATM   26  C   UNL     1      41.943 -12.041   3.967  1.00  0.00     0.003 A 
HETATM   27  C   UNL     1      41.837 -13.230   3.242  1.00  0.00     0.010 A 
BRANCH  24  28
HETATM   28  O   UNL     1      38.500 -11.509   4.993  1.00  0.00    -0.361 OA
HETATM   29  H   UNL     1      38.774 -10.669   5.399  1.00  0.00     0.217 HD
ENDBRANCH  24  28
ENDBRANCH   9  22
BRANCH   7  30
HETATM   30  C   UNL     1      38.418 -13.874  -1.956  1.00  0.00     0.014 A 
HETATM   31  C   UNL     1      38.003 -14.775  -2.949  1.00  0.00     0.017 A 
HETATM   32  C   UNL     1      37.088 -14.384  -3.931  1.00  0.00     0.025 A 
HETATM   33  C   UNL     1      36.582 -13.086  -3.926  1.00  0.00     0.034 A 
HETATM   34 CL   UNL     1      35.464 -12.600  -5.139  1.00  0.00    -0.084 Cl
HETATM   35  C   UNL     1      36.981 -12.179  -2.948  1.00  0.00     0.025 A 
HETATM   36  C   UNL     1      37.895 -12.573  -1.965  1.00  0.00     0.017 A 
ENDBRANCH   7  30
TORSDOF 5
ENDMDL
MODEL 8
REMARK VINA RESULT:      -8.0      3.216      5.477
REMARK  5 active torsions:
REMARK  status: ('A' for Active; 'I' for Inactive)
REMARK    1  A    between atoms: C_7  and  C_8 
REMARK    2  A    between atoms: C_16  and  C_17 
REMARK    3  A    between atoms: C_19  and  O_20 
REMARK    4  A    between atoms: C_24  and  C_25 
REMARK       I    between atoms: C_25  and  N_26 
REMARK    5  A    between atoms: N_26  and  C_27 
ROOT
HETATM    1  C   UNL     1      40.968 -10.092   1.703  1.00  0.00     0.070 C 
HETATM    2  C   UNL     1      40.917 -11.570   1.405  1.00  0.00     0.037 C 
HETATM    3  N   UNL     1      42.093 -12.278   1.669  1.00  0.00    -0.192 N 
HETATM    4  C   UNL     1      42.113 -13.625   1.748  1.00  0.00     0.726 A 
HETATM    5  N   UNL     1      41.051 -14.332   1.269  1.00  0.00    -0.083 N 
HETATM    6  N   UNL     1      41.159 -15.646   1.538  1.00  0.00    -0.135 NA
HETATM    7  C   UNL     1      42.355 -15.687   2.157  1.00  0.00     0.199 A 
HETATM    8  N   UNL     1      42.970 -14.451   2.288  1.00  0.00    -0.041 NA
HETATM    9  C   UNL     1      39.886 -13.718   0.632  1.00  0.00     0.202 C 
HETATM   10  C   UNL     1      39.822 -12.223   0.932  1.00  0.00     0.062 C 
HETATM   11  H   UNL     1      42.820 -11.771   2.168  1.00  0.00     0.184 HD
ENDROOT
BRANCH  10  12
HETATM   12  C   UNL     1      38.478 -11.564   0.920  1.00  0.00     0.256 C 
HETATM   13  N   UNL     1      38.198 -10.836  -0.216  1.00  0.00    -0.323 N 
HETATM   14  H   UNL     1      38.932 -10.701  -0.900  1.00  0.00     0.169 HD
HETATM   15  O   UNL     1      37.713 -11.756   1.860  1.00  0.00    -0.267 OA
BRANCH  13  16
HETATM   16  C   UNL     1      36.965 -10.245  -0.570  1.00  0.00     0.035 A 
HETATM   17  C   UNL     1      36.669  -8.889  -0.415  1.00  0.00     0.029 A 
HETATM   18  C   UNL     1      35.412  -8.391  -0.771  1.00  0.00     0.002 A 
HETATM   19  C   UNL     1      34.435  -9.244  -1.277  1.00  0.00     0.000 A 
HETATM   20  C   UNL     1      34.719 -10.597  -1.437  1.00  0.00     0.002 A 
HETATM   21  C   UNL     1      35.979 -11.093  -1.091  1.00  0.00     0.029 A 
ENDBRANCH  13  16
ENDBRANCH  10  12
BRANCH   9  22
HETATM   22  C   UNL     1      39.915 -14.039  -0.865  1.00  0.00    -0.025 A 
HETATM   23  C   UNL     1      41.118 -14.312  -1.547  1.00  0.00     0.046 A 
HETATM   24  C   UNL     1      41.100 -14.575  -2.915  1.00  0.00     0.066 A 
HETATM   25  C   UNL     1      39.906 -14.590  -3.623  1.00  0.00     0.036 A 
HETATM   26  C   UNL     1      38.707 -14.350  -2.957  1.00  0.00     0.003 A 
HETATM   27  C   UNL     1      38.709 -14.078  -1.587  1.00  0.00     0.010 A 
BRANCH  24  28
HETATM   28  O   UNL     1      42.249 -14.823  -3.605  1.00  0.00    -0.361 OA
HETATM   29  H   UNL     1      42.029 -15.039  -4.526  1.00  0.00     0.217 HD
ENDBRANCH  24  28
ENDBRANCH   9  22
BRANCH   7  30
HETATM   30  C   UNL     1      42.941 -16.911   2.698  1.00  0.00     0.014 A 
HETATM   31  C   UNL     1      43.027 -17.118   4.084  1.00  0.00     0.017 A 
HETATM   32  C   UNL     1      43.609 -18.280   4.598  1.00  0.00     0.025 A 
HETATM   33  C   UNL     1      44.112 -19.244   3.728  1.00  0.00     0.034 A 
HETATM   34 CL   UNL     1      44.838 -20.670   4.359  1.00  0.00    -0.084 Cl
HETATM   35  C   UNL     1      44.034 -19.058   2.350  1.00  0.00     0.025 A 
HETATM   36  C   UNL     1      43.448 -17.896   1.837  1.00  0.00     0.017 A 
ENDBRANCH   7  30
TORSDOF 5
ENDMDL
MODEL 9
REMARK VINA RESULT:      -7.5      4.515      8.947
REMARK  5 active torsions:
REMARK  status: ('A' for Active; 'I' for Inactive)
REMARK    1  A    between atoms: C_7  and  C_8 
REMARK    2  A    between atoms: C_16  and  C_17 
REMARK    3  A    between atoms: C_19  and  O_20 
REMARK    4  A    between atoms: C_24  and  C_25 
REMARK       I    between atoms: C_25  and  N_26 
REMARK    5  A    between atoms: N_26  and  C_27 
ROOT
HETATM    1  C   UNL     1      42.293 -16.905   0.050  1.00  0.00     0.070 C 
HETATM    2  C   UNL     1      41.541 -15.663  -0.361  1.00  0.00     0.037 C 
HETATM    3  N   UNL     1      41.034 -15.670  -1.663  1.00  0.00    -0.192 N 
HETATM    4  C   UNL     1      40.097 -14.788  -2.070  1.00  0.00     0.726 A 
HETATM    5  N   UNL     1      39.855 -13.683  -1.309  1.00  0.00    -0.083 N 
HETATM    6  N   UNL     1      38.808 -12.974  -1.772  1.00  0.00    -0.135 NA
HETATM    7  C   UNL     1      38.476 -13.686  -2.866  1.00  0.00     0.199 A 
HETATM    8  N   UNL     1      39.266 -14.805  -3.078  1.00  0.00    -0.041 NA
HETATM    9  C   UNL     1      40.579 -13.367  -0.078  1.00  0.00     0.202 C 
HETATM   10  C   UNL     1      41.325 -14.591   0.447  1.00  0.00     0.062 C 
HETATM   11  H   UNL     1      41.088 -16.555  -2.162  1.00  0.00     0.184 HD
ENDROOT
BRANCH  10  12
HETATM   12  C   UNL     1      41.590 -14.670   1.919  1.00  0.00     0.256 C 
HETATM   13  N   UNL     1      40.830 -15.598   2.597  1.00  0.00    -0.323 N 
HETATM   14  H   UNL     1      40.087 -16.073   2.102  1.00  0.00     0.169 HD
HETATM   15  O   UNL     1      42.477 -13.973   2.401  1.00  0.00    -0.267 OA
BRANCH  13  16
HETATM   16  C   UNL     1      40.972 -15.997   3.945  1.00  0.00     0.035 A 
HETATM   17  C   UNL     1      40.569 -15.229   5.039  1.00  0.00     0.029 A 
HETATM   18  C   UNL     1      40.769 -15.692   6.344  1.00  0.00     0.002 A 
HETATM   19  C   UNL     1      41.379 -16.924   6.567  1.00  0.00     0.000 A 
HETATM   20  C   UNL     1      41.783 -17.699   5.484  1.00  0.00     0.002 A 
HETATM   21  C   UNL     1      41.574 -17.240   4.180  1.00  0.00     0.029 A 
ENDBRANCH  13  16
ENDBRANCH  10  12
BRANCH   9  22
HETATM   22  C   UNL     1      41.489 -12.163  -0.336  1.00  0.00    -0.025 A 
HETATM   23  C   UNL     1      41.446 -11.008   0.471  1.00  0.00     0.046 A 
HETATM   24  C   UNL     1      42.274  -9.926   0.185  1.00  0.00     0.066 A 
HETATM   25  C   UNL     1      43.163  -9.970  -0.880  1.00  0.00     0.036 A 
HETATM   26  C   UNL     1      43.236 -11.114  -1.670  1.00  0.00     0.003 A 
HETATM   27  C   UNL     1      42.407 -12.206  -1.400  1.00  0.00     0.010 A 
BRANCH  24  28
HETATM   28  O   UNL     1      42.241  -8.789   0.936  1.00  0.00    -0.361 OA
HETATM   29  H   UNL     1      41.808  -8.978   1.785  1.00  0.00     0.217 HD
ENDBRANCH  24  28
ENDBRANCH   9  22
BRANCH   7  30
HETATM   30  C   UNL     1      37.348 -13.351  -3.733  1.00  0.00     0.014 A 
HETATM   31  C   UNL     1      37.017 -12.012  -3.998  1.00  0.00     0.017 A 
HETATM   32  C   UNL     1      35.923 -11.695  -4.808  1.00  0.00     0.025 A 
HETATM   33  C   UNL     1      35.150 -12.715  -5.357  1.00  0.00     0.034 A 
HETATM   34 CL   UNL     1      33.797 -12.326  -6.346  1.00  0.00    -0.084 Cl
HETATM   35  C   UNL     1      35.464 -14.049  -5.107  1.00  0.00     0.025 A 
HETATM   36  C   UNL     1      36.561 -14.365  -4.298  1.00  0.00     0.017 A 
ENDBRANCH   7  30
TORSDOF 5
ENDMDL
MODEL 10
REMARK VINA RESULT:      -7.5      3.902      6.929
REMARK  5 active torsions:
REMARK  status: ('A' for Active; 'I' for Inactive)
REMARK    1  A    between atoms: C_7  and  C_8 
REMARK    2  A    between atoms: C_16  and  C_17 
REMARK    3  A    between atoms: C_19  and  O_20 
REMARK    4  A    between atoms: C_24  and  C_25 
REMARK       I    between atoms: C_25  and  N_26 
REMARK    5  A    between atoms: N_26  and  C_27 
ROOT
HETATM    1  C   UNL     1      40.854 -11.007   0.059  1.00  0.00     0.070 C 
HETATM    2  C   UNL     1      40.822 -11.724   1.386  1.00  0.00     0.037 C 
HETATM    3  N   UNL     1      41.386 -11.029   2.459  1.00  0.00    -0.192 N 
HETATM    4  C   UNL     1      41.164 -11.390   3.741  1.00  0.00     0.726 A 
HETATM    5  N   UNL     1      40.637 -12.621   3.999  1.00  0.00    -0.083 N 
HETATM    6  N   UNL     1      40.352 -12.781   5.305  1.00  0.00    -0.135 NA
HETATM    7  C   UNL     1      40.778 -11.606   5.810  1.00  0.00     0.199 A 
HETATM    8  N   UNL     1      41.295 -10.735   4.863  1.00  0.00    -0.041 NA
HETATM    9  C   UNL     1      40.324 -13.605   2.964  1.00  0.00     0.202 C 
HETATM   10  C   UNL     1      40.275 -12.953   1.585  1.00  0.00     0.062 C 
HETATM   11  H   UNL     1      41.633 -10.057   2.286  1.00  0.00     0.184 HD
ENDROOT
BRANCH  10  12
HETATM   12  C   UNL     1      39.410 -13.589   0.541  1.00  0.00     0.256 C 
HETATM   13  N   UNL     1      39.988 -13.693  -0.706  1.00  0.00    -0.323 N 
HETATM   14  H   UNL     1      40.882 -13.249  -0.866  1.00  0.00     0.169 HD
HETATM   15  O   UNL     1      38.307 -14.018   0.863  1.00  0.00    -0.267 OA
BRANCH  13  16
HETATM   16  C   UNL     1      39.476 -14.381  -1.829  1.00  0.00     0.035 A 
HETATM   17  C   UNL     1      38.191 -14.200  -2.345  1.00  0.00     0.029 A 
HETATM   18  C   UNL     1      37.758 -14.941  -3.449  1.00  0.00     0.002 A 
HETATM   19  C   UNL     1      38.602 -15.875  -4.044  1.00  0.00     0.000 A 
HETATM   20  C   UNL     1      39.885 -16.063  -3.539  1.00  0.00     0.002 A 
HETATM   21  C   UNL     1      40.322 -15.315  -2.442  1.00  0.00     0.029 A 
ENDBRANCH  13  16
ENDBRANCH  10  12
BRANCH   9  22
HETATM   22  C   UNL     1      41.327 -14.757   3.059  1.00  0.00    -0.025 A 
HETATM   23  C   UNL     1      41.027 -15.955   3.738  1.00  0.00     0.046 A 
HETATM   24  C   UNL     1      41.980 -16.968   3.821  1.00  0.00     0.066 A 
HETATM   25  C   UNL     1      43.225 -16.826   3.225  1.00  0.00     0.036 A 
HETATM   26  C   UNL     1      43.527 -15.659   2.528  1.00  0.00     0.003 A 
HETATM   27  C   UNL     1      42.585 -14.631   2.442  1.00  0.00     0.010 A 
BRANCH  24  28
HETATM   28  O   UNL     1      41.725 -18.130   4.487  1.00  0.00    -0.361 OA
HETATM   29  H   UNL     1      42.128 -18.871   4.005  1.00  0.00     0.217 HD
ENDBRANCH  24  28
ENDBRANCH   9  22
BRANCH   7  30
HETATM   30  C   UNL     1      40.660 -11.247   7.221  1.00  0.00     0.014 A 
HETATM   31  C   UNL     1      41.736 -10.662   7.907  1.00  0.00     0.017 A 
HETATM   32  C   UNL     1      41.629 -10.342   9.264  1.00  0.00     0.025 A 
HETATM   33  C   UNL     1      40.442 -10.606   9.944  1.00  0.00     0.034 A 
HETATM   34 CL   UNL     1      40.312 -10.221  11.616  1.00  0.00    -0.084 Cl
HETATM   35  C   UNL     1      39.363 -11.183   9.280  1.00  0.00     0.025 A 
HETATM   36  C   UNL     1      39.472 -11.501   7.922  1.00  0.00     0.017 A 
ENDBRANCH   7  30
TORSDOF 5
ENDMDL
