MODEL 1
REMARK VINA RESULT:      -8.0      0.000      0.000
REMARK  9 active torsions:
REMARK  status: ('A' for Active; 'I' for Inactive)
REMARK    1  A    between atoms: C_2  and  C_3 
REMARK    2  A    between atoms: C_7  and  C_8 
REMARK    3  A    between atoms: C_8  and  C_9 
REMARK       I    between atoms: C_9  and  N_10 
REMARK    4  A    between atoms: N_10  and  C_11 
REMARK    5  A    between atoms: C_11  and  C_12 
REMARK    6  A    between atoms: C_12  and  N_13 
REMARK    7  A    between atoms: C_21  and  C_22 
REMARK    8  A    between atoms: C_32  and  C_33 
REMARK    9  A    between atoms: C_33  and  O_34 
ROOT
HETATM    1  C   UNL     1      43.225 -18.536   3.119  1.00  0.00     0.051 C 
HETATM    2  N   UNL     1      43.504 -19.067   4.382  1.00  0.00    -0.228 NA
HETATM    3  C   UNL     1      43.573 -18.220   5.354  1.00  0.00     0.170 C 
HETATM    4  N   UNL     1      43.146 -16.731   5.204  1.00  0.00    -0.318 N 
HETATM    5  C   UNL     1      43.921 -15.977   5.914  1.00  0.00     0.011 C 
HETATM    6  C   UNL     1      42.070 -16.669   4.195  1.00  0.00     0.166 C 
HETATM    7  S   UNL     1      44.335 -18.497   6.874  1.00  0.00    -0.086 SA
HETATM    8  C   UNL     1      44.732 -16.714   6.973  1.00  0.00     0.135 C 
HETATM    9  C   UNL     1      42.586 -17.348   2.971  1.00  0.00     0.069 C 
ENDROOT
BRANCH   5  10
HETATM   10  C   UNL     1      44.045 -14.501   5.667  1.00  0.00     0.156 C 
BRANCH  10  11
HETATM   11  C   UNL     1      44.865 -13.800   6.734  1.00  0.00     0.223 C 
HETATM   12  N   UNL     1      44.179 -13.320   7.819  1.00  0.00    -0.359 N 
HETATM   13  H   UNL     1      43.176 -13.483   7.898  1.00  0.00     0.162 HD
HETATM   14  O   UNL     1      46.074 -13.619   6.605  1.00  0.00    -0.273 OA
BRANCH  12  15
HETATM   15  C   UNL     1      44.756 -12.393   8.802  1.00  0.00     0.150 C 
BRANCH  15  16
HETATM   16  C   UNL     1      44.399 -12.671  10.282  1.00  0.00     0.254 C 
BRANCH  16  17
HETATM   17  N   UNL     1      43.165 -11.912  10.731  1.00  0.00    -0.070 N 
HETATM   18  H   UNL     1      42.350 -12.527  10.540  1.00  0.00     0.279 HD
HETATM   19  C   UNL     1      43.136 -11.634  12.218  1.00  0.00     0.235 C 
HETATM   20  C   UNL     1      41.784 -11.044  12.594  1.00  0.00     0.028 C 
HETATM   21  C   UNL     1      41.473  -9.789  11.788  1.00  0.00     0.003 C 
HETATM   22  C   UNL     1      41.602 -10.045  10.290  1.00  0.00     0.028 C 
HETATM   23  C   UNL     1      42.951 -10.647   9.933  1.00  0.00     0.235 C 
ENDBRANCH  16  17
ENDBRANCH  15  16
ENDBRANCH  12  15
ENDBRANCH  10  11
ENDBRANCH   5  10
BRANCH   6  24
HETATM   24  C   UNL     1      41.209 -15.409   4.233  1.00  0.00    -0.024 A 
HETATM   25  C   UNL     1      40.355 -15.165   5.351  1.00  0.00    -0.053 A 
HETATM   26  C   UNL     1      40.201 -16.123   6.511  1.00  0.00     0.049 C 
HETATM   27  C   UNL     1      39.553 -14.011   5.384  1.00  0.00     0.008 A 
HETATM   28  C   UNL     1      39.584 -13.088   4.347  1.00  0.00     0.007 A 
HETATM   29  C   UNL     1      40.409 -13.301   3.247  1.00  0.00    -0.061 A 
HETATM   30  C   UNL     1      40.445 -12.291   2.134  1.00  0.00     0.048 C 
HETATM   31  C   UNL     1      41.225 -14.443   3.208  1.00  0.00     0.017 A 
ENDBRANCH   6  24
BRANCH   9  32
HETATM   32  C   UNL     1      42.700 -16.621   1.714  1.00  0.00     0.293 C 
HETATM   33  O   UNL     1      43.626 -15.842   1.542  1.00  0.00    -0.259 OA
BRANCH  32  34
HETATM   34  O   UNL     1      41.658 -16.890   0.914  1.00  0.00    -0.323 OA
HETATM   35  C   UNL     1      41.413 -15.934  -0.127  1.00  0.00     0.213 C 
ENDBRANCH  32  34
ENDBRANCH   9  32
BRANCH   1  36
HETATM   36  C   UNL     1      43.811 -19.343   1.972  1.00  0.00     0.056 C 
HETATM   37  C   UNL     1      43.747 -20.840   2.238  1.00  0.00     0.011 C 
ENDBRANCH   1  36
TORSDOF 9
ENDMDL
MODEL 2
REMARK VINA RESULT:      -7.8      3.593      7.000
REMARK  9 active torsions:
REMARK  status: ('A' for Active; 'I' for Inactive)
REMARK    1  A    between atoms: C_2  and  C_3 
REMARK    2  A    between atoms: C_7  and  C_8 
REMARK    3  A    between atoms: C_8  and  C_9 
REMARK       I    between atoms: C_9  and  N_10 
REMARK    4  A    between atoms: N_10  and  C_11 
REMARK    5  A    between atoms: C_11  and  C_12 
REMARK    6  A    between atoms: C_12  and  N_13 
REMARK    7  A    between atoms: C_21  and  C_22 
REMARK    8  A    between atoms: C_32  and  C_33 
REMARK    9  A    between atoms: C_33  and  O_34 
ROOT
HETATM    1  C   UNL     1      40.100 -11.119   2.166  1.00  0.00     0.051 C 
HETATM    2  N   UNL     1      40.592 -10.495   3.316  1.00  0.00    -0.228 NA
HETATM    3  C   UNL     1      40.884 -11.271   4.306  1.00  0.00     0.170 C 
HETATM    4  N   UNL     1      40.921 -12.822   4.177  1.00  0.00    -0.318 N 
HETATM    5  C   UNL     1      40.498 -13.364   5.272  1.00  0.00     0.011 C 
HETATM    6  C   UNL     1      41.310 -13.151   2.791  1.00  0.00     0.166 C 
HETATM    7  S   UNL     1      41.055 -10.782   5.948  1.00  0.00    -0.086 SA
HETATM    8  C   UNL     1      40.470 -12.432   6.477  1.00  0.00     0.135 C 
HETATM    9  C   UNL     1      40.367 -12.422   1.893  1.00  0.00     0.069 C 
ENDROOT
BRANCH   5  10
HETATM   10  C   UNL     1      40.021 -14.787   5.326  1.00  0.00     0.156 C 
BRANCH  10  11
HETATM   11  C   UNL     1      41.118 -15.753   5.732  1.00  0.00     0.223 C 
HETATM   12  N   UNL     1      42.122 -15.247   6.517  1.00  0.00    -0.359 N 
HETATM   13  H   UNL     1      42.079 -14.280   6.834  1.00  0.00     0.162 HD
HETATM   14  O   UNL     1      41.139 -16.914   5.329  1.00  0.00    -0.273 OA
BRANCH  12  15
HETATM   15  C   UNL     1      43.385 -15.951   6.777  1.00  0.00     0.150 C 
BRANCH  15  16
HETATM   16  C   UNL     1      43.280 -17.226   7.647  1.00  0.00     0.254 C 
BRANCH  16  17
HETATM   17  N   UNL     1      43.399 -18.498   6.826  1.00  0.00    -0.070 N 
HETATM   18  H   UNL     1      42.458 -18.685   6.428  1.00  0.00     0.279 HD
HETATM   19  C   UNL     1      44.333 -18.365   5.644  1.00  0.00     0.235 C 
HETATM   20  C   UNL     1      44.238 -19.619   4.785  1.00  0.00     0.028 C 
HETATM   21  C   UNL     1      44.536 -20.878   5.591  1.00  0.00     0.003 C 
HETATM   22  C   UNL     1      43.663 -20.958   6.838  1.00  0.00     0.028 C 
HETATM   23  C   UNL     1      43.757 -19.693   7.678  1.00  0.00     0.235 C 
ENDBRANCH  16  17
ENDBRANCH  15  16
ENDBRANCH  12  15
ENDBRANCH  10  11
ENDBRANCH   5  10
BRANCH   6  24
HETATM   24  C   UNL     1      41.847 -14.564   2.580  1.00  0.00    -0.024 A 
HETATM   25  C   UNL     1      43.158 -14.900   3.032  1.00  0.00    -0.053 A 
HETATM   26  C   UNL     1      44.101 -13.910   3.677  1.00  0.00     0.049 C 
HETATM   27  C   UNL     1      43.659 -16.198   2.829  1.00  0.00     0.008 A 
HETATM   28  C   UNL     1      42.893 -17.173   2.204  1.00  0.00     0.007 A 
HETATM   29  C   UNL     1      41.610 -16.871   1.757  1.00  0.00    -0.061 A 
HETATM   30  C   UNL     1      40.782 -17.934   1.091  1.00  0.00     0.048 C 
HETATM   31  C   UNL     1      41.093 -15.583   1.965  1.00  0.00     0.017 A 
ENDBRANCH   6  24
BRANCH   9  32
HETATM   32  C   UNL     1      39.513 -13.152   0.967  1.00  0.00     0.293 C 
HETATM   33  O   UNL     1      39.835 -13.255  -0.208  1.00  0.00    -0.259 OA
BRANCH  32  34
HETATM   34  O   UNL     1      38.395 -13.567   1.579  1.00  0.00    -0.323 OA
HETATM   35  C   UNL     1      37.368 -14.076   0.717  1.00  0.00     0.213 C 
ENDBRANCH  32  34
ENDBRANCH   9  32
BRANCH   1  36
HETATM   36  C   UNL     1      39.160 -10.248   1.351  1.00  0.00     0.056 C 
HETATM   37  C   UNL     1      37.828 -10.032   2.057  1.00  0.00     0.011 C 
ENDBRANCH   1  36
TORSDOF 9
ENDMDL
MODEL 3
REMARK VINA RESULT:      -7.7      4.620      7.792
REMARK  9 active torsions:
REMARK  status: ('A' for Active; 'I' for Inactive)
REMARK    1  A    between atoms: C_2  and  C_3 
REMARK    2  A    between atoms: C_7  and  C_8 
REMARK    3  A    between atoms: C_8  and  C_9 
REMARK       I    between atoms: C_9  and  N_10 
REMARK    4  A    between atoms: N_10  and  C_11 
REMARK    5  A    between atoms: C_11  and  C_12 
REMARK    6  A    between atoms: C_12  and  N_13 
REMARK    7  A    between atoms: C_21  and  C_22 
REMARK    8  A    between atoms: C_32  and  C_33 
REMARK    9  A    between atoms: C_33  and  O_34 
ROOT
HETATM    1  C   UNL     1      39.970 -12.384   2.868  1.00  0.00     0.051 C 
HETATM    2  N   UNL     1      41.181 -12.328   3.564  1.00  0.00    -0.228 NA
HETATM    3  C   UNL     1      42.115 -13.117   3.148  1.00  0.00     0.170 C 
HETATM    4  N   UNL     1      42.009 -13.918   1.818  1.00  0.00    -0.318 N 
HETATM    5  C   UNL     1      42.572 -15.074   1.954  1.00  0.00     0.011 C 
HETATM    6  C   UNL     1      41.183 -13.130   0.880  1.00  0.00     0.166 C 
HETATM    7  S   UNL     1      43.498 -13.599   4.053  1.00  0.00    -0.086 SA
HETATM    8  C   UNL     1      43.501 -15.193   3.156  1.00  0.00     0.135 C 
HETATM    9  C   UNL     1      39.905 -12.822   1.585  1.00  0.00     0.069 C 
ENDROOT
BRANCH   5  10
HETATM   10  C   UNL     1      42.282 -16.219   1.026  1.00  0.00     0.156 C 
BRANCH  10  11
HETATM   11  C   UNL     1      42.369 -17.565   1.719  1.00  0.00     0.223 C 
HETATM   12  N   UNL     1      43.467 -18.334   1.432  1.00  0.00    -0.359 N 
HETATM   13  H   UNL     1      44.194 -17.971   0.818  1.00  0.00     0.162 HD
HETATM   14  O   UNL     1      41.472 -17.972   2.454  1.00  0.00    -0.273 OA
BRANCH  12  15
HETATM   15  C   UNL     1      43.583 -19.753   1.793  1.00  0.00     0.150 C 
BRANCH  15  16
HETATM   16  C   UNL     1      44.617 -20.087   2.895  1.00  0.00     0.254 C 
BRANCH  16  17
HETATM   17  N   UNL     1      44.038 -19.954   4.291  1.00  0.00    -0.070 N 
HETATM   18  H   UNL     1      43.025 -20.170   4.215  1.00  0.00     0.279 HD
HETATM   19  C   UNL     1      44.604 -20.953   5.275  1.00  0.00     0.235 C 
HETATM   20  C   UNL     1      43.831 -20.864   6.584  1.00  0.00     0.028 C 
HETATM   21  C   UNL     1      43.847 -19.451   7.154  1.00  0.00     0.003 C 
HETATM   22  C   UNL     1      43.371 -18.432   6.124  1.00  0.00     0.028 C 
HETATM   23  C   UNL     1      44.143 -18.543   4.819  1.00  0.00     0.235 C 
ENDBRANCH  16  17
ENDBRANCH  15  16
ENDBRANCH  12  15
ENDBRANCH  10  11
ENDBRANCH   5  10
BRANCH   6  24
HETATM   24  C   UNL     1      41.336 -13.497  -0.593  1.00  0.00    -0.024 A 
HETATM   25  C   UNL     1      42.163 -12.700  -1.441  1.00  0.00    -0.053 A 
HETATM   26  C   UNL     1      42.878 -11.451  -0.980  1.00  0.00     0.049 C 
HETATM   27  C   UNL     1      42.296 -13.029  -2.802  1.00  0.00     0.008 A 
HETATM   28  C   UNL     1      41.644 -14.131  -3.340  1.00  0.00     0.007 A 
HETATM   29  C   UNL     1      40.834 -14.925  -2.534  1.00  0.00    -0.061 A 
HETATM   30  C   UNL     1      40.141 -16.123  -3.121  1.00  0.00     0.048 C 
HETATM   31  C   UNL     1      40.703 -14.615  -1.171  1.00  0.00     0.017 A 
ENDBRANCH   6  24
BRANCH   9  32
HETATM   32  C   UNL     1      38.633 -13.284   1.047  1.00  0.00     0.293 C 
HETATM   33  O   UNL     1      38.247 -14.420   1.282  1.00  0.00    -0.259 OA
BRANCH  32  34
HETATM   34  O   UNL     1      38.079 -12.346   0.265  1.00  0.00    -0.323 OA
HETATM   35  C   UNL     1      36.718 -12.011   0.566  1.00  0.00     0.213 C 
ENDBRANCH  32  34
ENDBRANCH   9  32
BRANCH   1  36
HETATM   36  C   UNL     1      38.759 -12.037   3.718  1.00  0.00     0.056 C 
HETATM   37  C   UNL     1      38.409 -10.558   3.634  1.00  0.00     0.011 C 
ENDBRANCH   1  36
TORSDOF 9
ENDMDL
MODEL 4
REMARK VINA RESULT:      -7.6      4.482      8.233
REMARK  9 active torsions:
REMARK  status: ('A' for Active; 'I' for Inactive)
REMARK    1  A    between atoms: C_2  and  C_3 
REMARK    2  A    between atoms: C_7  and  C_8 
REMARK    3  A    between atoms: C_8  and  C_9 
REMARK       I    between atoms: C_9  and  N_10 
REMARK    4  A    between atoms: N_10  and  C_11 
REMARK    5  A    between atoms: C_11  and  C_12 
REMARK    6  A    between atoms: C_12  and  N_13 
REMARK    7  A    between atoms: C_21  and  C_22 
REMARK    8  A    between atoms: C_32  and  C_33 
REMARK    9  A    between atoms: C_33  and  O_34 
ROOT
HETATM    1  C   UNL     1      40.955 -16.346   3.662  1.00  0.00     0.051 C 
HETATM    2  N   UNL     1      40.535 -15.357   4.557  1.00  0.00    -0.228 NA
HETATM    3  C   UNL     1      40.524 -14.147   4.107  1.00  0.00     0.170 C 
HETATM    4  N   UNL     1      40.733 -13.808   2.602  1.00  0.00    -0.318 N 
HETATM    5  C   UNL     1      41.395 -12.702   2.488  1.00  0.00     0.011 C 
HETATM    6  C   UNL     1      40.209 -14.937   1.807  1.00  0.00     0.166 C 
HETATM    7  S   UNL     1      40.511 -12.718   5.068  1.00  0.00    -0.086 SA
HETATM    8  C   UNL     1      41.437 -11.851   3.751  1.00  0.00     0.135 C 
HETATM    9  C   UNL     1      40.876 -16.170   2.319  1.00  0.00     0.069 C 
ENDROOT
BRANCH   5  10
HETATM   10  C   UNL     1      42.109 -12.326   1.221  1.00  0.00     0.156 C 
BRANCH  10  11
HETATM   11  C   UNL     1      41.562 -11.053   0.603  1.00  0.00     0.223 C 
HETATM   12  N   UNL     1      42.454 -10.027   0.421  1.00  0.00    -0.359 N 
HETATM   13  H   UNL     1      43.436 -10.161   0.655  1.00  0.00     0.162 HD
HETATM   14  O   UNL     1      40.371 -10.925   0.333  1.00  0.00    -0.273 OA
BRANCH  12  15
HETATM   15  C   UNL     1      42.055  -8.651   0.093  1.00  0.00     0.150 C 
BRANCH  15  16
HETATM   16  C   UNL     1      41.951  -8.320  -1.414  1.00  0.00     0.254 C 
BRANCH  16  17
HETATM   17  N   UNL     1      41.540  -9.523  -2.244  1.00  0.00    -0.070 N 
HETATM   18  H   UNL     1      41.373 -10.301  -1.577  1.00  0.00     0.279 HD
HETATM   19  C   UNL     1      40.239  -9.325  -2.988  1.00  0.00     0.235 C 
HETATM   20  C   UNL     1      39.822 -10.641  -3.631  1.00  0.00     0.028 C 
HETATM   21  C   UNL     1      40.909 -11.190  -4.547  1.00  0.00     0.003 C 
HETATM   22  C   UNL     1      42.246 -11.293  -3.822  1.00  0.00     0.028 C 
HETATM   23  C   UNL     1      42.642  -9.976  -3.174  1.00  0.00     0.235 C 
ENDBRANCH  16  17
ENDBRANCH  15  16
ENDBRANCH  12  15
ENDBRANCH  10  11
ENDBRANCH   5  10
BRANCH   6  24
HETATM   24  C   UNL     1      39.895 -14.620   0.348  1.00  0.00    -0.024 A 
HETATM   25  C   UNL     1      38.635 -14.046   0.002  1.00  0.00    -0.053 A 
HETATM   26  C   UNL     1      37.537 -13.770   1.003  1.00  0.00     0.049 C 
HETATM   27  C   UNL     1      38.338 -13.763  -1.343  1.00  0.00     0.008 A 
HETATM   28  C   UNL     1      39.260 -14.021  -2.350  1.00  0.00     0.007 A 
HETATM   29  C   UNL     1      40.496 -14.578  -2.038  1.00  0.00    -0.061 A 
HETATM   30  C   UNL     1      41.493 -14.844  -3.132  1.00  0.00     0.048 C 
HETATM   31  C   UNL     1      40.810 -14.853  -0.698  1.00  0.00     0.017 A 
ENDBRANCH   6  24
BRANCH   9  32
HETATM   32  C   UNL     1      41.699 -16.986   1.437  1.00  0.00     0.293 C 
HETATM   33  O   UNL     1      41.240 -18.006   0.945  1.00  0.00    -0.259 OA
BRANCH  32  34
HETATM   34  O   UNL     1      42.942 -16.490   1.354  1.00  0.00    -0.323 OA
HETATM   35  C   UNL     1      43.997 -17.460   1.332  1.00  0.00     0.213 C 
ENDBRANCH  32  34
ENDBRANCH   9  32
BRANCH   1  36
HETATM   36  C   UNL     1      41.608 -17.542   4.333  1.00  0.00     0.056 C 
HETATM   37  C   UNL     1      42.948 -17.183   4.960  1.00  0.00     0.011 C 
ENDBRANCH   1  36
TORSDOF 9
ENDMDL
MODEL 5
REMARK VINA RESULT:      -7.4      3.782      7.772
REMARK  9 active torsions:
REMARK  status: ('A' for Active; 'I' for Inactive)
REMARK    1  A    between atoms: C_2  and  C_3 
REMARK    2  A    between atoms: C_7  and  C_8 
REMARK    3  A    between atoms: C_8  and  C_9 
REMARK       I    between atoms: C_9  and  N_10 
REMARK    4  A    between atoms: N_10  and  C_11 
REMARK    5  A    between atoms: C_11  and  C_12 
REMARK    6  A    between atoms: C_12  and  N_13 
REMARK    7  A    between atoms: C_21  and  C_22 
REMARK    8  A    between atoms: C_32  and  C_33 
REMARK    9  A    between atoms: C_33  and  O_34 
ROOT
HETATM    1  C   UNL     1      43.405 -18.382   5.131  1.00  0.00     0.051 C 
HETATM    2  N   UNL     1      43.908 -18.533   3.835  1.00  0.00    -0.228 NA
HETATM    3  C   UNL     1      43.332 -17.837   2.913  1.00  0.00     0.170 C 
HETATM    4  N   UNL     1      42.298 -16.716   3.229  1.00  0.00    -0.318 N 
HETATM    5  C   UNL     1      41.379 -16.697   2.319  1.00  0.00     0.011 C 
HETATM    6  C   UNL     1      42.651 -16.132   4.538  1.00  0.00     0.166 C 
HETATM    7  S   UNL     1      43.410 -18.150   1.222  1.00  0.00    -0.086 SA
HETATM    8  C   UNL     1      41.736 -17.437   1.036  1.00  0.00     0.135 C 
HETATM    9  C   UNL     1      42.734 -17.263   5.507  1.00  0.00     0.069 C 
ENDROOT
BRANCH   5  10
HETATM   10  C   UNL     1      40.047 -16.042   2.544  1.00  0.00     0.156 C 
BRANCH  10  11
HETATM   11  C   UNL     1      39.856 -14.805   1.686  1.00  0.00     0.223 C 
HETATM   12  N   UNL     1      39.521 -15.015   0.373  1.00  0.00    -0.359 N 
HETATM   13  H   UNL     1      39.369 -15.963   0.033  1.00  0.00     0.162 HD
HETATM   14  O   UNL     1      40.049 -13.675   2.128  1.00  0.00    -0.273 OA
BRANCH  12  15
HETATM   15  C   UNL     1      39.561 -13.965  -0.655  1.00  0.00     0.150 C 
BRANCH  15  16
HETATM   16  C   UNL     1      40.296 -14.332  -1.966  1.00  0.00     0.254 C 
BRANCH  16  17
HETATM   17  N   UNL     1      41.369 -13.322  -2.329  1.00  0.00    -0.070 N 
HETATM   18  H   UNL     1      42.233 -13.863  -2.527  1.00  0.00     0.279 HD
HETATM   19  C   UNL     1      41.065 -12.548  -3.592  1.00  0.00     0.235 C 
HETATM   20  C   UNL     1      42.276 -11.707  -3.971  1.00  0.00     0.028 C 
HETATM   21  C   UNL     1      42.695 -10.778  -2.838  1.00  0.00     0.003 C 
HETATM   22  C   UNL     1      42.903 -11.548  -1.538  1.00  0.00     0.028 C 
HETATM   23  C   UNL     1      41.691 -12.394  -1.181  1.00  0.00     0.235 C 
ENDBRANCH  16  17
ENDBRANCH  15  16
ENDBRANCH  12  15
ENDBRANCH  10  11
ENDBRANCH   5  10
BRANCH   6  24
HETATM   24  C   UNL     1      42.070 -14.748   4.814  1.00  0.00    -0.024 A 
HETATM   25  C   UNL     1      42.712 -13.589   4.283  1.00  0.00    -0.053 A 
HETATM   26  C   UNL     1      43.995 -13.635   3.484  1.00  0.00     0.049 C 
HETATM   27  C   UNL     1      42.185 -12.312   4.545  1.00  0.00     0.008 A 
HETATM   28  C   UNL     1      41.035 -12.154   5.307  1.00  0.00     0.007 A 
HETATM   29  C   UNL     1      40.389 -13.268   5.835  1.00  0.00    -0.061 A 
HETATM   30  C   UNL     1      39.139 -13.089   6.650  1.00  0.00     0.048 C 
HETATM   31  C   UNL     1      40.897 -14.549   5.570  1.00  0.00     0.017 A 
ENDBRANCH   6  24
BRANCH   9  32
HETATM   32  C   UNL     1      41.860 -17.307   6.672  1.00  0.00     0.293 C 
HETATM   33  O   UNL     1      40.648 -17.353   6.522  1.00  0.00    -0.259 OA
BRANCH  32  34
HETATM   34  O   UNL     1      42.572 -17.212   7.804  1.00  0.00    -0.323 OA
HETATM   35  C   UNL     1      43.597 -16.209   7.811  1.00  0.00     0.213 C 
ENDBRANCH  32  34
ENDBRANCH   9  32
BRANCH   1  36
HETATM   36  C   UNL     1      43.571 -19.616   6.001  1.00  0.00     0.056 C 
HETATM   37  C   UNL     1      44.537 -20.620   5.387  1.00  0.00     0.011 C 
ENDBRANCH   1  36
TORSDOF 9
ENDMDL
MODEL 6
REMARK VINA RESULT:      -7.2      6.820      9.398
REMARK  9 active torsions:
REMARK  status: ('A' for Active; 'I' for Inactive)
REMARK    1  A    between atoms: C_2  and  C_3 
REMARK    2  A    between atoms: C_7  and  C_8 
REMARK    3  A    between atoms: C_8  and  C_9 
REMARK       I    between atoms: C_9  and  N_10 
REMARK    4  A    between atoms: N_10  and  C_11 
REMARK    5  A    between atoms: C_11  and  C_12 
REMARK    6  A    between atoms: C_12  and  N_13 
REMARK    7  A    between atoms: C_21  and  C_22 
REMARK    8  A    between atoms: C_32  and  C_33 
REMARK    9  A    between atoms: C_33  and  O_34 
ROOT
HETATM    1  C   UNL     1      41.948 -11.586  -0.461  1.00  0.00     0.051 C 
HETATM    2  N   UNL     1      42.454 -12.619   0.334  1.00  0.00    -0.228 NA
HETATM    3  C   UNL     1      41.632 -13.572   0.624  1.00  0.00     0.170 C 
HETATM    4  N   UNL     1      40.234 -13.709  -0.047  1.00  0.00    -0.318 N 
HETATM    5  C   UNL     1      39.377 -14.160   0.811  1.00  0.00     0.011 C 
HETATM    6  C   UNL     1      40.331 -13.156  -1.412  1.00  0.00     0.166 C 
HETATM    7  S   UNL     1      41.812 -14.694   1.918  1.00  0.00    -0.086 SA
HETATM    8  C   UNL     1      39.991 -14.796   2.052  1.00  0.00     0.135 C 
HETATM    9  C   UNL     1      40.882 -11.775  -1.280  1.00  0.00     0.069 C 
ENDROOT
BRANCH   5  10
HETATM   10  C   UNL     1      37.896 -14.010   0.614  1.00  0.00     0.156 C 
BRANCH  10  11
HETATM   11  C   UNL     1      37.385 -12.652   1.058  1.00  0.00     0.223 C 
HETATM   12  N   UNL     1      36.204 -12.230   0.506  1.00  0.00    -0.359 N 
HETATM   13  H   UNL     1      35.695 -12.841  -0.131  1.00  0.00     0.162 HD
HETATM   14  O   UNL     1      38.027 -11.941   1.827  1.00  0.00    -0.273 OA
BRANCH  12  15
HETATM   15  C   UNL     1      35.704 -10.852   0.608  1.00  0.00     0.150 C 
BRANCH  15  16
HETATM   16  C   UNL     1      34.169 -10.698   0.727  1.00  0.00     0.254 C 
BRANCH  16  17
HETATM   17  N   UNL     1      33.714 -10.534   2.166  1.00  0.00    -0.070 N 
HETATM   18  H   UNL     1      34.293 -11.180   2.737  1.00  0.00     0.279 HD
HETATM   19  C   UNL     1      33.963  -9.150   2.722  1.00  0.00     0.235 C 
HETATM   20  C   UNL     1      33.651  -9.143   4.212  1.00  0.00     0.028 C 
HETATM   21  C   UNL     1      32.227  -9.607   4.492  1.00  0.00     0.003 C 
HETATM   22  C   UNL     1      31.946 -10.958   3.844  1.00  0.00     0.028 C 
HETATM   23  C   UNL     1      32.276 -10.954   2.359  1.00  0.00     0.235 C 
ENDBRANCH  16  17
ENDBRANCH  15  16
ENDBRANCH  12  15
ENDBRANCH  10  11
ENDBRANCH   5  10
BRANCH   6  24
HETATM   24  C   UNL     1      39.238 -13.603  -2.378  1.00  0.00    -0.024 A 
HETATM   25  C   UNL     1      39.343 -14.866  -3.035  1.00  0.00    -0.053 A 
HETATM   26  C   UNL     1      40.523 -15.797  -2.874  1.00  0.00     0.049 C 
HETATM   27  C   UNL     1      38.343 -15.276  -3.934  1.00  0.00     0.008 A 
HETATM   28  C   UNL     1      37.237 -14.474  -4.190  1.00  0.00     0.007 A 
HETATM   29  C   UNL     1      37.110 -13.239  -3.561  1.00  0.00    -0.061 A 
HETATM   30  C   UNL     1      35.905 -12.383  -3.835  1.00  0.00     0.048 C 
HETATM   31  C   UNL     1      38.095 -12.825  -2.651  1.00  0.00     0.017 A 
ENDBRANCH   6  24
BRANCH   9  32
HETATM   32  C   UNL     1      40.116 -10.626  -1.741  1.00  0.00     0.293 C 
HETATM   33  O   UNL     1      40.364 -10.123  -2.827  1.00  0.00    -0.259 OA
BRANCH  32  34
HETATM   34  O   UNL     1      39.244 -10.229  -0.803  1.00  0.00    -0.323 OA
HETATM   35  C   UNL     1      38.798  -8.871  -0.905  1.00  0.00     0.213 C 
ENDBRANCH  32  34
ENDBRANCH   9  32
BRANCH   1  36
HETATM   36  C   UNL     1      42.614 -10.243  -0.218  1.00  0.00     0.056 C 
HETATM   37  C   UNL     1      43.708  -9.957  -1.237  1.00  0.00     0.011 C 
ENDBRANCH   1  36
TORSDOF 9
ENDMDL
MODEL 7
REMARK VINA RESULT:      -7.1      5.509      8.545
REMARK  9 active torsions:
REMARK  status: ('A' for Active; 'I' for Inactive)
REMARK    1  A    between atoms: C_2  and  C_3 
REMARK    2  A    between atoms: C_7  and  C_8 
REMARK    3  A    between atoms: C_8  and  C_9 
REMARK       I    between atoms: C_9  and  N_10 
REMARK    4  A    between atoms: N_10  and  C_11 
REMARK    5  A    between atoms: C_11  and  C_12 
REMARK    6  A    between atoms: C_12  and  N_13 
REMARK    7  A    between atoms: C_21  and  C_22 
REMARK    8  A    between atoms: C_32  and  C_33 
REMARK    9  A    between atoms: C_33  and  O_34 
ROOT
HETATM    1  C   UNL     1      39.323 -13.759  -2.664  1.00  0.00     0.051 C 
HETATM    2  N   UNL     1      38.293 -14.017  -1.755  1.00  0.00    -0.228 NA
HETATM    3  C   UNL     1      38.451 -13.546  -0.564  1.00  0.00     0.170 C 
HETATM    4  N   UNL     1      39.590 -12.551  -0.198  1.00  0.00    -0.318 N 
HETATM    5  C   UNL     1      40.015 -12.790   1.001  1.00  0.00     0.011 C 
HETATM    6  C   UNL     1      39.890 -11.745  -1.398  1.00  0.00     0.166 C 
HETATM    7  S   UNL     1      37.615 -14.078   0.845  1.00  0.00    -0.086 SA
HETATM    8  C   UNL     1      39.081 -13.644   1.849  1.00  0.00     0.135 C 
HETATM    9  C   UNL     1      40.165 -12.706  -2.506  1.00  0.00     0.069 C 
ENDROOT
BRANCH   5  10
HETATM   10  C   UNL     1      41.351 -12.306   1.486  1.00  0.00     0.156 C 
BRANCH  10  11
HETATM   11  C   UNL     1      42.287 -13.446   1.842  1.00  0.00     0.223 C 
HETATM   12  N   UNL     1      42.092 -14.631   1.180  1.00  0.00    -0.359 N 
HETATM   13  H   UNL     1      41.377 -14.696   0.457  1.00  0.00     0.162 HD
HETATM   14  O   UNL     1      43.138 -13.333   2.721  1.00  0.00    -0.273 OA
BRANCH  12  15
HETATM   15  C   UNL     1      42.714 -15.900   1.582  1.00  0.00     0.150 C 
BRANCH  15  16
HETATM   16  C   UNL     1      42.056 -16.626   2.778  1.00  0.00     0.254 C 
BRANCH  16  17
HETATM   17  N   UNL     1      42.638 -18.008   3.008  1.00  0.00    -0.070 N 
HETATM   18  H   UNL     1      41.874 -18.592   3.401  1.00  0.00     0.279 HD
HETATM   19  C   UNL     1      43.072 -18.698   1.733  1.00  0.00     0.235 C 
HETATM   20  C   UNL     1      43.461 -20.136   2.046  1.00  0.00     0.028 C 
HETATM   21  C   UNL     1      44.544 -20.208   3.115  1.00  0.00     0.003 C 
HETATM   22  C   UNL     1      44.146 -19.426   4.362  1.00  0.00     0.028 C 
HETATM   23  C   UNL     1      43.748 -17.996   4.032  1.00  0.00     0.235 C 
ENDBRANCH  16  17
ENDBRANCH  15  16
ENDBRANCH  12  15
ENDBRANCH  10  11
ENDBRANCH   5  10
BRANCH   6  24
HETATM   24  C   UNL     1      40.625 -10.433  -1.138  1.00  0.00    -0.024 A 
HETATM   25  C   UNL     1      39.890  -9.271  -0.753  1.00  0.00    -0.053 A 
HETATM   26  C   UNL     1      38.384  -9.236  -0.630  1.00  0.00     0.049 C 
HETATM   27  C   UNL     1      40.563  -8.059  -0.523  1.00  0.00     0.008 A 
HETATM   28  C   UNL     1      41.944  -7.969  -0.653  1.00  0.00     0.007 A 
HETATM   29  C   UNL     1      42.683  -9.088  -1.026  1.00  0.00    -0.061 A 
HETATM   30  C   UNL     1      44.177  -8.986  -1.153  1.00  0.00     0.048 C 
HETATM   31  C   UNL     1      42.025 -10.308  -1.245  1.00  0.00     0.017 A 
ENDBRANCH   6  24
BRANCH   9  32
HETATM   32  C   UNL     1      41.456 -12.710  -3.178  1.00  0.00     0.293 C 
HETATM   33  O   UNL     1      42.417 -13.250  -2.650  1.00  0.00    -0.259 OA
BRANCH  32  34
HETATM   34  O   UNL     1      41.400 -12.011  -4.321  1.00  0.00    -0.323 OA
HETATM   35  C   UNL     1      42.524 -11.162  -4.585  1.00  0.00     0.213 C 
ENDBRANCH  32  34
ENDBRANCH   9  32
BRANCH   1  36
HETATM   36  C   UNL     1      39.474 -14.823  -3.738  1.00  0.00     0.056 C 
HETATM   37  C   UNL     1      40.148 -16.080  -3.203  1.00  0.00     0.011 C 
ENDBRANCH   1  36
TORSDOF 9
ENDMDL
MODEL 8
REMARK VINA RESULT:      -7.0      4.974      8.810
REMARK  9 active torsions:
REMARK  status: ('A' for Active; 'I' for Inactive)
REMARK    1  A    between atoms: C_2  and  C_3 
REMARK    2  A    between atoms: C_7  and  C_8 
REMARK    3  A    between atoms: C_8  and  C_9 
REMARK       I    between atoms: C_9  and  N_10 
REMARK    4  A    between atoms: N_10  and  C_11 
REMARK    5  A    between atoms: C_11  and  C_12 
REMARK    6  A    between atoms: C_12  and  N_13 
REMARK    7  A    between atoms: C_21  and  C_22 
REMARK    8  A    between atoms: C_32  and  C_33 
REMARK    9  A    between atoms: C_33  and  O_34 
ROOT
HETATM    1  C   UNL     1      40.858 -11.321  -2.521  1.00  0.00     0.051 C 
HETATM    2  N   UNL     1      40.068 -12.267  -3.182  1.00  0.00    -0.228 NA
HETATM    3  C   UNL     1      40.012 -13.440  -2.644  1.00  0.00     0.170 C 
HETATM    4  N   UNL     1      40.583 -13.744  -1.229  1.00  0.00    -0.318 N 
HETATM    5  C   UNL     1      41.086 -14.935  -1.204  1.00  0.00     0.011 C 
HETATM    6  C   UNL     1      40.469 -12.513  -0.421  1.00  0.00     0.166 C 
HETATM    7  S   UNL     1      39.527 -14.887  -3.441  1.00  0.00    -0.086 SA
HETATM    8  C   UNL     1      40.652 -15.835  -2.354  1.00  0.00     0.135 C 
HETATM    9  C   UNL     1      41.134 -11.425  -1.196  1.00  0.00     0.069 C 
ENDROOT
BRANCH   5  10
HETATM   10  C   UNL     1      42.066 -15.367  -0.150  1.00  0.00     0.156 C 
BRANCH  10  11
HETATM   11  C   UNL     1      41.398 -16.102   0.997  1.00  0.00     0.223 C 
HETATM   12  N   UNL     1      42.222 -16.573   1.986  1.00  0.00    -0.359 N 
HETATM   13  H   UNL     1      43.222 -16.382   1.948  1.00  0.00     0.162 HD
HETATM   14  O   UNL     1      40.189 -16.317   1.010  1.00  0.00    -0.273 OA
BRANCH  12  15
HETATM   15  C   UNL     1      41.791 -17.526   3.018  1.00  0.00     0.150 C 
BRANCH  15  16
HETATM   16  C   UNL     1      42.914 -18.113   3.906  1.00  0.00     0.254 C 
BRANCH  16  17
HETATM   17  N   UNL     1      43.257 -19.544   3.533  1.00  0.00    -0.070 N 
HETATM   18  H   UNL     1      42.510 -20.144   3.935  1.00  0.00     0.279 HD
HETATM   19  C   UNL     1      43.239 -19.799   2.043  1.00  0.00     0.235 C 
HETATM   20  C   UNL     1      43.406 -21.291   1.785  1.00  0.00     0.028 C 
HETATM   21  C   UNL     1      44.677 -21.834   2.427  1.00  0.00     0.003 C 
HETATM   22  C   UNL     1      44.742 -21.487   3.910  1.00  0.00     0.028 C 
HETATM   23  C   UNL     1      44.559 -19.997   4.152  1.00  0.00     0.235 C 
ENDBRANCH  16  17
ENDBRANCH  15  16
ENDBRANCH  12  15
ENDBRANCH  10  11
ENDBRANCH   5  10
BRANCH   6  24
HETATM   24  C   UNL     1      40.535 -12.714   1.090  1.00  0.00    -0.024 A 
HETATM   25  C   UNL     1      39.330 -12.754   1.854  1.00  0.00    -0.053 A 
HETATM   26  C   UNL     1      37.954 -12.554   1.260  1.00  0.00     0.049 C 
HETATM   27  C   UNL     1      39.387 -12.928   3.248  1.00  0.00     0.008 A 
HETATM   28  C   UNL     1      40.604 -13.075   3.903  1.00  0.00     0.007 A 
HETATM   29  C   UNL     1      41.793 -13.042   3.180  1.00  0.00    -0.061 A 
HETATM   30  C   UNL     1      43.105 -13.213   3.894  1.00  0.00     0.048 C 
HETATM   31  C   UNL     1      41.748 -12.882   1.786  1.00  0.00     0.017 A 
ENDBRANCH   6  24
BRANCH   9  32
HETATM   32  C   UNL     1      42.279 -10.715  -0.643  1.00  0.00     0.293 C 
HETATM   33  O   UNL     1      43.407 -11.156  -0.805  1.00  0.00    -0.259 OA
BRANCH  32  34
HETATM   34  O   UNL     1      41.879  -9.650   0.068  1.00  0.00    -0.323 OA
HETATM   35  C   UNL     1      42.397  -8.386  -0.365  1.00  0.00     0.213 C 
ENDBRANCH  32  34
ENDBRANCH   9  32
BRANCH   1  36
HETATM   36  C   UNL     1      41.459 -10.274  -3.443  1.00  0.00     0.056 C 
HETATM   37  C   UNL     1      42.410 -10.889  -4.460  1.00  0.00     0.011 C 
ENDBRANCH   1  36
TORSDOF 9
ENDMDL
MODEL 9
REMARK VINA RESULT:      -6.9      4.528      7.602
REMARK  9 active torsions:
REMARK  status: ('A' for Active; 'I' for Inactive)
REMARK    1  A    between atoms: C_2  and  C_3 
REMARK    2  A    between atoms: C_7  and  C_8 
REMARK    3  A    between atoms: C_8  and  C_9 
REMARK       I    between atoms: C_9  and  N_10 
REMARK    4  A    between atoms: N_10  and  C_11 
REMARK    5  A    between atoms: C_11  and  C_12 
REMARK    6  A    between atoms: C_12  and  N_13 
REMARK    7  A    between atoms: C_21  and  C_22 
REMARK    8  A    between atoms: C_32  and  C_33 
REMARK    9  A    between atoms: C_33  and  O_34 
ROOT
HETATM    1  C   UNL     1      40.906 -16.236   3.667  1.00  0.00     0.051 C 
HETATM    2  N   UNL     1      40.480 -15.237   4.547  1.00  0.00    -0.228 NA
HETATM    3  C   UNL     1      40.457 -14.034   4.077  1.00  0.00     0.170 C 
HETATM    4  N   UNL     1      40.657 -13.718   2.567  1.00  0.00    -0.318 N 
HETATM    5  C   UNL     1      41.309 -12.609   2.432  1.00  0.00     0.011 C 
HETATM    6  C   UNL     1      40.142 -14.865   1.792  1.00  0.00     0.166 C 
HETATM    7  S   UNL     1      40.434 -12.591   5.015  1.00  0.00    -0.086 SA
HETATM    8  C   UNL     1      41.347 -11.737   3.681  1.00  0.00     0.135 C 
HETATM    9  C   UNL     1      40.821 -16.083   2.321  1.00  0.00     0.069 C 
ENDROOT
BRANCH   5  10
HETATM   10  C   UNL     1      42.015 -12.247   1.157  1.00  0.00     0.156 C 
BRANCH  10  11
HETATM   11  C   UNL     1      41.245 -11.231   0.335  1.00  0.00     0.223 C 
HETATM   12  N   UNL     1      40.747 -10.146   1.009  1.00  0.00    -0.359 N 
HETATM   13  H   UNL     1      40.942 -10.033   2.002  1.00  0.00     0.162 HD
HETATM   14  O   UNL     1      41.027 -11.401  -0.862  1.00  0.00    -0.273 OA
BRANCH  12  15
HETATM   15  C   UNL     1      39.763  -9.216   0.439  1.00  0.00     0.150 C 
BRANCH  15  16
HETATM   16  C   UNL     1      38.566  -8.856   1.352  1.00  0.00     0.254 C 
BRANCH  16  17
HETATM   17  N   UNL     1      37.244  -9.345   0.790  1.00  0.00    -0.070 N 
HETATM   18  H   UNL     1      36.720  -8.502   0.485  1.00  0.00     0.279 HD
HETATM   19  C   UNL     1      37.395 -10.209  -0.441  1.00  0.00     0.235 C 
HETATM   20  C   UNL     1      36.020 -10.488  -1.032  1.00  0.00     0.028 C 
HETATM   21  C   UNL     1      35.087 -11.131  -0.012  1.00  0.00     0.003 C 
HETATM   22  C   UNL     1      35.016 -10.309   1.270  1.00  0.00     0.028 C 
HETATM   23  C   UNL     1      36.397 -10.027   1.839  1.00  0.00     0.235 C 
ENDBRANCH  16  17
ENDBRANCH  15  16
ENDBRANCH  12  15
ENDBRANCH  10  11
ENDBRANCH   5  10
BRANCH   6  24
HETATM   24  C   UNL     1      39.820 -14.574   0.329  1.00  0.00    -0.024 A 
HETATM   25  C   UNL     1      38.567 -13.986  -0.020  1.00  0.00    -0.053 A 
HETATM   26  C   UNL     1      37.483 -13.669   0.985  1.00  0.00     0.049 C 
HETATM   27  C   UNL     1      38.263 -13.727  -1.368  1.00  0.00     0.008 A 
HETATM   28  C   UNL     1      39.171 -14.024  -2.377  1.00  0.00     0.007 A 
HETATM   29  C   UNL     1      40.401 -14.596  -2.063  1.00  0.00    -0.061 A 
HETATM   30  C   UNL     1      41.382 -14.903  -3.159  1.00  0.00     0.048 C 
HETATM   31  C   UNL     1      40.721 -14.847  -0.720  1.00  0.00     0.017 A 
ENDBRANCH   6  24
BRANCH   9  32
HETATM   32  C   UNL     1      41.649 -16.906   1.450  1.00  0.00     0.293 C 
HETATM   33  O   UNL     1      41.194 -17.934   0.969  1.00  0.00    -0.259 OA
BRANCH  32  34
HETATM   34  O   UNL     1      42.890 -16.407   1.364  1.00  0.00    -0.323 OA
HETATM   35  C   UNL     1      43.946 -17.375   1.312  1.00  0.00     0.213 C 
ENDBRANCH  32  34
ENDBRANCH   9  32
BRANCH   1  36
HETATM   36  C   UNL     1      41.571 -17.416   4.356  1.00  0.00     0.056 C 
HETATM   37  C   UNL     1      41.757 -17.175   5.847  1.00  0.00     0.011 C 
ENDBRANCH   1  36
TORSDOF 9
ENDMDL
MODEL 10
REMARK VINA RESULT:      -6.9      3.534      7.919
REMARK  9 active torsions:
REMARK  status: ('A' for Active; 'I' for Inactive)
REMARK    1  A    between atoms: C_2  and  C_3 
REMARK    2  A    between atoms: C_7  and  C_8 
REMARK    3  A    between atoms: C_8  and  C_9 
REMARK       I    between atoms: C_9  and  N_10 
REMARK    4  A    between atoms: N_10  and  C_11 
REMARK    5  A    between atoms: C_11  and  C_12 
REMARK    6  A    between atoms: C_12  and  N_13 
REMARK    7  A    between atoms: C_21  and  C_22 
REMARK    8  A    between atoms: C_32  and  C_33 
REMARK    9  A    between atoms: C_33  and  O_34 
ROOT
HETATM    1  C   UNL     1      43.676 -18.133   4.875  1.00  0.00     0.051 C 
HETATM    2  N   UNL     1      44.118 -18.103   3.549  1.00  0.00    -0.228 NA
HETATM    3  C   UNL     1      43.514 -17.274   2.764  1.00  0.00     0.170 C 
HETATM    4  N   UNL     1      42.517 -16.198   3.284  1.00  0.00    -0.318 N 
HETATM    5  C   UNL     1      41.559 -16.037   2.430  1.00  0.00     0.011 C 
HETATM    6  C   UNL     1      42.938 -15.812   4.646  1.00  0.00     0.166 C 
HETATM    7  S   UNL     1      43.512 -17.341   1.044  1.00  0.00    -0.086 SA
HETATM    8  C   UNL     1      41.845 -16.590   1.040  1.00  0.00     0.135 C 
HETATM    9  C   UNL     1      43.044 -17.072   5.439  1.00  0.00     0.069 C 
ENDROOT
BRANCH   5  10
HETATM   10  C   UNL     1      40.250 -15.404   2.809  1.00  0.00     0.156 C 
BRANCH  10  11
HETATM   11  C   UNL     1      39.683 -14.537   1.700  1.00  0.00     0.223 C 
HETATM   12  N   UNL     1      40.386 -13.402   1.388  1.00  0.00    -0.359 N 
HETATM   13  H   UNL     1      41.265 -13.204   1.862  1.00  0.00     0.162 HD
HETATM   14  O   UNL     1      38.617 -14.806   1.151  1.00  0.00    -0.273 OA
BRANCH  12  15
HETATM   15  C   UNL     1      39.854 -12.322   0.545  1.00  0.00     0.150 C 
BRANCH  15  16
HETATM   16  C   UNL     1      40.298 -12.343  -0.937  1.00  0.00     0.254 C 
BRANCH  16  17
HETATM   17  N   UNL     1      39.912 -13.631  -1.639  1.00  0.00    -0.070 N 
HETATM   18  H   UNL     1      39.496 -14.251  -0.917  1.00  0.00     0.279 HD
HETATM   19  C   UNL     1      38.843 -13.445  -2.693  1.00  0.00     0.235 C 
HETATM   20  C   UNL     1      38.394 -14.808  -3.200  1.00  0.00     0.028 C 
HETATM   21  C   UNL     1      39.564 -15.626  -3.733  1.00  0.00     0.003 C 
HETATM   22  C   UNL     1      40.685 -15.727  -2.704  1.00  0.00     0.028 C 
HETATM   23  C   UNL     1      41.113 -14.358  -2.197  1.00  0.00     0.235 C 
ENDBRANCH  16  17
ENDBRANCH  15  16
ENDBRANCH  12  15
ENDBRANCH  10  11
ENDBRANCH   5  10
BRANCH   6  24
HETATM   24  C   UNL     1      42.396 -14.475   5.144  1.00  0.00    -0.024 A 
HETATM   25  C   UNL     1      43.237 -13.607   5.904  1.00  0.00    -0.053 A 
HETATM   26  C   UNL     1      44.653 -13.953   6.306  1.00  0.00     0.049 C 
HETATM   27  C   UNL     1      42.737 -12.380   6.374  1.00  0.00     0.008 A 
HETATM   28  C   UNL     1      41.434 -11.985   6.100  1.00  0.00     0.007 A 
HETATM   29  C   UNL     1      40.595 -12.812   5.360  1.00  0.00    -0.061 A 
HETATM   30  C   UNL     1      39.189 -12.373   5.058  1.00  0.00     0.048 C 
HETATM   31  C   UNL     1      41.086 -14.034   4.874  1.00  0.00     0.017 A 
ENDBRANCH   6  24
BRANCH   9  32
HETATM   32  C   UNL     1      42.222 -17.271   6.624  1.00  0.00     0.293 C 
HETATM   33  O   UNL     1      41.112 -17.773   6.519  1.00  0.00    -0.259 OA
BRANCH  32  34
HETATM   34  O   UNL     1      42.828 -16.774   7.712  1.00  0.00    -0.323 OA
HETATM   35  C   UNL     1      43.570 -17.719   8.495  1.00  0.00     0.213 C 
ENDBRANCH  32  34
ENDBRANCH   9  32
BRANCH   1  36
HETATM   36  C   UNL     1      43.857 -19.481   5.551  1.00  0.00     0.056 C 
HETATM   37  C   UNL     1      44.748 -20.411   4.738  1.00  0.00     0.011 C 
ENDBRANCH   1  36
TORSDOF 9
ENDMDL
