MODEL 1
REMARK VINA RESULT:     -10.3      0.000      0.000
REMARK  7 active torsions:
REMARK  status: ('A' for Active; 'I' for Inactive)
REMARK    1  A    between atoms: C_2  and  C_3 
REMARK    2  A    between atoms: N_10  and  C_11 
REMARK    3  A    between atoms: C_11  and  C_12 
REMARK       I    between atoms: C_12  and  N_13 
REMARK    4  A    between atoms: N_13  and  C_14 
REMARK    5  A    between atoms: C_17  and  C_18 
REMARK       I    between atoms: C_18  and  N_19 
REMARK    6  A    between atoms: N_19  and  C_20 
REMARK    7  A    between atoms: C_21  and  O_22 
ROOT
HETATM    1  C   UNL     1      45.210 -12.673   8.100  1.00  0.00     0.240 C 
HETATM    2  N   UNL     1      44.048 -13.373   7.846  1.00  0.00    -0.326 N 
HETATM    3  O   UNL     1      46.299 -12.877   7.562  1.00  0.00    -0.271 OA
HETATM    4  H   UNL     1      43.230 -13.113   8.384  1.00  0.00     0.169 HD
ENDROOT
BRANCH   2   5
HETATM    5  C   UNL     1      43.876 -14.405   6.891  1.00  0.00     0.034 A 
HETATM    6  C   UNL     1      43.465 -14.190   5.571  1.00  0.00     0.030 A 
HETATM    7  C   UNL     1      43.271 -15.260   4.686  1.00  0.00     0.019 A 
HETATM    8  C   UNL     1      43.494 -16.571   5.110  1.00  0.00     0.032 A 
HETATM    9  C   UNL     1      43.914 -16.796   6.428  1.00  0.00     0.019 A 
HETATM   10  C   UNL     1      44.111 -15.721   7.307  1.00  0.00     0.030 A 
BRANCH   8  11
HETATM   11  C   UNL     1      43.210 -17.743   4.230  1.00  0.00     0.256 C 
HETATM   12  N   UNL     1      44.060 -18.823   4.381  1.00  0.00    -0.321 N 
HETATM   13  H   UNL     1      44.680 -18.847   5.182  1.00  0.00     0.169 HD
HETATM   14  O   UNL     1      42.254 -17.670   3.465  1.00  0.00    -0.267 OA
BRANCH  12  15
HETATM   15  C   UNL     1      44.135 -19.984   3.574  1.00  0.00     0.068 A 
HETATM   16  C   UNL     1      44.585 -21.173   4.190  1.00  0.00     0.095 A 
HETATM   17  C   UNL     1      44.714 -22.342   3.432  1.00  0.00     0.039 A 
HETATM   18  C   UNL     1      44.397 -22.335   2.072  1.00  0.00     0.003 A 
HETATM   19  C   UNL     1      43.954 -21.164   1.465  1.00  0.00     0.002 A 
HETATM   20  C   UNL     1      43.823 -19.992   2.212  1.00  0.00     0.032 A 
BRANCH  16  21
HETATM   21  O   UNL     1      44.880 -21.075   5.532  1.00  0.00    -0.354 OA
HETATM   22  C   UNL     1      43.843 -21.433   6.441  1.00  0.00     0.210 C 
ENDBRANCH  16  21
ENDBRANCH  12  15
ENDBRANCH   8  11
ENDBRANCH   2   5
BRANCH   1  23
HETATM   23  C   UNL     1      45.136 -11.605   9.190  1.00  0.00     0.240 C 
BRANCH  23  24
HETATM   24  N   UNL     1      44.030 -11.612  10.124  1.00  0.00    -0.259 N 
HETATM   25  C   UNL     1      44.028 -12.304  11.293  1.00  0.00     0.326 C 
HETATM   26  N   UNL     1      42.977 -11.859  12.062  1.00  0.00    -0.324 N 
HETATM   27  O   UNL     1      44.815 -13.165  11.641  1.00  0.00    -0.247 OA
HETATM   28  C   UNL     1      42.427 -10.614  11.553  1.00  0.00     0.116 C 
HETATM   29  H   UNL     1      42.920 -12.155  13.029  1.00  0.00     0.165 HD
HETATM   30  C   UNL     1      43.058  -9.423  12.297  1.00  0.00     0.041 C 
HETATM   31  C   UNL     1      43.029 -10.676  10.129  1.00  0.00     0.256 C 
HETATM   32  C   UNL     1      40.903 -10.604  11.608  1.00  0.00     0.041 C 
HETATM   33  C   UNL     1      42.437  -8.086  11.893  1.00  0.00     0.007 C 
HETATM   34  C   UNL     1      40.910  -8.065  12.047  1.00  0.00    -0.015 C 
HETATM   35  C   UNL     1      40.286  -9.242  11.277  1.00  0.00     0.007 C 
HETATM   36  O   UNL     1      42.756  -9.925   9.203  1.00  0.00    -0.270 OA
BRANCH  34  37
HETATM   37  C   UNL     1      40.515  -8.015  13.538  1.00  0.00     0.000 C 
HETATM   38  C   UNL     1      39.025  -7.801  13.760  1.00  0.00     0.005 C 
ENDBRANCH  34  37
ENDBRANCH  23  24
ENDBRANCH   1  23
TORSDOF 7
ENDMDL
MODEL 2
REMARK VINA RESULT:      -9.9      2.396      2.944
REMARK  7 active torsions:
REMARK  status: ('A' for Active; 'I' for Inactive)
REMARK    1  A    between atoms: C_2  and  C_3 
REMARK    2  A    between atoms: N_10  and  C_11 
REMARK    3  A    between atoms: C_11  and  C_12 
REMARK       I    between atoms: C_12  and  N_13 
REMARK    4  A    between atoms: N_13  and  C_14 
REMARK    5  A    between atoms: C_17  and  C_18 
REMARK       I    between atoms: C_18  and  N_19 
REMARK    6  A    between atoms: N_19  and  C_20 
REMARK    7  A    between atoms: C_21  and  O_22 
ROOT
HETATM    1  C   UNL     1      41.470 -11.543   6.595  1.00  0.00     0.240 C 
HETATM    2  N   UNL     1      40.987 -12.331   5.570  1.00  0.00    -0.326 N 
HETATM    3  O   UNL     1      42.554 -11.692   7.162  1.00  0.00    -0.271 OA
HETATM    4  H   UNL     1      40.065 -12.108   5.217  1.00  0.00     0.169 HD
ENDROOT
BRANCH   2   5
HETATM    5  C   UNL     1      41.662 -13.408   4.944  1.00  0.00     0.034 A 
HETATM    6  C   UNL     1      42.628 -13.251   3.944  1.00  0.00     0.030 A 
HETATM    7  C   UNL     1      43.228 -14.361   3.332  1.00  0.00     0.019 A 
HETATM    8  C   UNL     1      42.872 -15.654   3.720  1.00  0.00     0.032 A 
HETATM    9  C   UNL     1      41.912 -15.821   4.726  1.00  0.00     0.019 A 
HETATM   10  C   UNL     1      41.319 -14.707   5.338  1.00  0.00     0.030 A 
BRANCH   8  11
HETATM   11  C   UNL     1      43.417 -16.861   3.031  1.00  0.00     0.256 C 
HETATM   12  N   UNL     1      42.999 -18.078   3.537  1.00  0.00    -0.321 N 
HETATM   13  H   UNL     1      42.224 -18.094   4.190  1.00  0.00     0.169 HD
HETATM   14  O   UNL     1      44.167 -16.690   2.075  1.00  0.00    -0.267 OA
BRANCH  12  15
HETATM   15  C   UNL     1      43.479 -19.367   3.200  1.00  0.00     0.068 A 
HETATM   16  C   UNL     1      44.325 -20.008   4.132  1.00  0.00     0.095 A 
HETATM   17  C   UNL     1      44.857 -21.267   3.835  1.00  0.00     0.039 A 
HETATM   18  C   UNL     1      44.552 -21.890   2.623  1.00  0.00     0.003 A 
HETATM   19  C   UNL     1      43.718 -21.259   1.705  1.00  0.00     0.002 A 
HETATM   20  C   UNL     1      43.183 -20.002   1.991  1.00  0.00     0.032 A 
BRANCH  16  21
HETATM   21  O   UNL     1      44.571 -19.308   5.293  1.00  0.00    -0.354 OA
HETATM   22  C   UNL     1      43.973 -19.813   6.482  1.00  0.00     0.210 C 
ENDBRANCH  16  21
ENDBRANCH  12  15
ENDBRANCH   8  11
ENDBRANCH   2   5
BRANCH   1  23
HETATM   23  C   UNL     1      40.541 -10.442   7.103  1.00  0.00     0.240 C 
BRANCH  23  24
HETATM   24  N   UNL     1      40.229 -10.365   8.515  1.00  0.00    -0.259 N 
HETATM   25  C   UNL     1      39.461 -11.271   9.174  1.00  0.00     0.326 C 
HETATM   26  N   UNL     1      39.616 -11.072  10.527  1.00  0.00    -0.324 N 
HETATM   27  O   UNL     1      38.757 -12.136   8.684  1.00  0.00    -0.247 OA
HETATM   28  C   UNL     1      40.756 -10.220  10.819  1.00  0.00     0.116 C 
HETATM   29  H   UNL     1      39.238 -11.760  11.167  1.00  0.00     0.165 HD
HETATM   30  C   UNL     1      41.989 -11.088  11.131  1.00  0.00     0.041 C 
HETATM   31  C   UNL     1      40.934  -9.604   9.411  1.00  0.00     0.256 C 
HETATM   32  C   UNL     1      40.444  -9.218  11.926  1.00  0.00     0.041 C 
HETATM   33  C   UNL     1      43.195 -10.255  11.563  1.00  0.00     0.007 C 
HETATM   34  C   UNL     1      42.887  -9.323  12.743  1.00  0.00    -0.015 C 
HETATM   35  C   UNL     1      41.671  -8.440  12.411  1.00  0.00     0.007 C 
HETATM   36  O   UNL     1      41.683  -8.682   9.123  1.00  0.00    -0.270 OA
BRANCH  34  37
HETATM   37  C   UNL     1      42.734 -10.129  14.048  1.00  0.00     0.000 C 
HETATM   38  C   UNL     1      42.294  -9.282  15.234  1.00  0.00     0.005 C 
ENDBRANCH  34  37
ENDBRANCH  23  24
ENDBRANCH   1  23
TORSDOF 7
ENDMDL
MODEL 3
REMARK VINA RESULT:      -9.5      1.711      2.294
REMARK  7 active torsions:
REMARK  status: ('A' for Active; 'I' for Inactive)
REMARK    1  A    between atoms: C_2  and  C_3 
REMARK    2  A    between atoms: N_10  and  C_11 
REMARK    3  A    between atoms: C_11  and  C_12 
REMARK       I    between atoms: C_12  and  N_13 
REMARK    4  A    between atoms: N_13  and  C_14 
REMARK    5  A    between atoms: C_17  and  C_18 
REMARK       I    between atoms: C_18  and  N_19 
REMARK    6  A    between atoms: N_19  and  C_20 
REMARK    7  A    between atoms: C_21  and  O_22 
ROOT
HETATM    1  C   UNL     1      41.597 -11.755   6.813  1.00  0.00     0.240 C 
HETATM    2  N   UNL     1      42.656 -12.626   6.660  1.00  0.00    -0.326 N 
HETATM    3  O   UNL     1      40.531 -11.810   6.199  1.00  0.00    -0.271 OA
HETATM    4  H   UNL     1      43.484 -12.444   7.214  1.00  0.00     0.169 HD
ENDROOT
BRANCH   2   5
HETATM    5  C   UNL     1      42.696 -13.768   5.821  1.00  0.00     0.034 A 
HETATM    6  C   UNL     1      41.965 -14.937   6.057  1.00  0.00     0.030 A 
HETATM    7  C   UNL     1      42.081 -16.050   5.212  1.00  0.00     0.019 A 
HETATM    8  C   UNL     1      42.932 -16.006   4.106  1.00  0.00     0.032 A 
HETATM    9  C   UNL     1      43.661 -14.835   3.856  1.00  0.00     0.019 A 
HETATM   10  C   UNL     1      43.536 -13.724   4.703  1.00  0.00     0.030 A 
BRANCH   8  11
HETATM   11  C   UNL     1      43.155 -17.198   3.235  1.00  0.00     0.256 C 
HETATM   12  N   UNL     1      43.265 -18.408   3.895  1.00  0.00    -0.321 N 
HETATM   13  H   UNL     1      43.002 -18.455   4.872  1.00  0.00     0.169 HD
HETATM   14  O   UNL     1      43.206 -17.023   2.022  1.00  0.00    -0.267 OA
BRANCH  12  15
HETATM   15  C   UNL     1      43.644 -19.659   3.351  1.00  0.00     0.068 A 
HETATM   16  C   UNL     1      44.371 -20.535   4.186  1.00  0.00     0.095 A 
HETATM   17  C   UNL     1      44.802 -21.770   3.689  1.00  0.00     0.039 A 
HETATM   18  C   UNL     1      44.513 -22.137   2.373  1.00  0.00     0.003 A 
HETATM   19  C   UNL     1      43.796 -21.274   1.550  1.00  0.00     0.002 A 
HETATM   20  C   UNL     1      43.362 -20.039   2.036  1.00  0.00     0.032 A 
BRANCH  16  21
HETATM   21  O   UNL     1      44.612 -20.079   5.464  1.00  0.00    -0.354 OA
HETATM   22  C   UNL     1      43.910 -20.730   6.518  1.00  0.00     0.210 C 
ENDBRANCH  16  21
ENDBRANCH  12  15
ENDBRANCH   8  11
ENDBRANCH   2   5
BRANCH   1  23
HETATM   23  C   UNL     1      41.809 -10.591   7.780  1.00  0.00     0.240 C 
BRANCH  23  24
HETATM   24  N   UNL     1      42.274 -10.855   9.125  1.00  0.00    -0.259 N 
HETATM   25  C   UNL     1      43.584 -10.978   9.465  1.00  0.00     0.326 C 
HETATM   26  N   UNL     1      43.686 -10.922  10.836  1.00  0.00    -0.324 N 
HETATM   27  O   UNL     1      44.533 -11.101   8.711  1.00  0.00    -0.247 OA
HETATM   28  C   UNL     1      42.462 -10.433  11.448  1.00  0.00     0.116 C 
HETATM   29  H   UNL     1      44.606 -10.840  11.254  1.00  0.00     0.165 HD
HETATM   30  C   UNL     1      42.573  -8.919  11.699  1.00  0.00     0.041 C 
HETATM   31  C   UNL     1      41.512 -10.664  10.248  1.00  0.00     0.256 C 
HETATM   32  C   UNL     1      42.108 -11.216  12.709  1.00  0.00     0.041 C 
HETATM   33  C   UNL     1      41.364  -8.360  12.449  1.00  0.00     0.007 C 
HETATM   34  C   UNL     1      41.083  -9.100  13.764  1.00  0.00    -0.015 C 
HETATM   35  C   UNL     1      40.946 -10.610  13.500  1.00  0.00     0.007 C 
HETATM   36  O   UNL     1      40.295 -10.555  10.269  1.00  0.00    -0.270 OA
BRANCH  34  37
HETATM   37  C   UNL     1      42.146  -8.747  14.825  1.00  0.00     0.000 C 
HETATM   38  C   UNL     1      41.871  -9.371  16.186  1.00  0.00     0.005 C 
ENDBRANCH  34  37
ENDBRANCH  23  24
ENDBRANCH   1  23
TORSDOF 7
ENDMDL
MODEL 4
REMARK VINA RESULT:      -9.2      2.412      3.687
REMARK  7 active torsions:
REMARK  status: ('A' for Active; 'I' for Inactive)
REMARK    1  A    between atoms: C_2  and  C_3 
REMARK    2  A    between atoms: N_10  and  C_11 
REMARK    3  A    between atoms: C_11  and  C_12 
REMARK       I    between atoms: C_12  and  N_13 
REMARK    4  A    between atoms: N_13  and  C_14 
REMARK    5  A    between atoms: C_17  and  C_18 
REMARK       I    between atoms: C_18  and  N_19 
REMARK    6  A    between atoms: N_19  and  C_20 
REMARK    7  A    between atoms: C_21  and  O_22 
ROOT
HETATM    1  C   UNL     1      40.695 -11.462   6.807  1.00  0.00     0.240 C 
HETATM    2  N   UNL     1      41.751 -12.044   6.137  1.00  0.00    -0.326 N 
HETATM    3  O   UNL     1      39.718 -12.061   7.260  1.00  0.00    -0.271 OA
HETATM    4  H   UNL     1      42.475 -11.423   5.796  1.00  0.00     0.169 HD
ENDROOT
BRANCH   2   5
HETATM    5  C   UNL     1      41.941 -13.427   5.899  1.00  0.00     0.034 A 
HETATM    6  C   UNL     1      43.182 -14.070   5.962  1.00  0.00     0.030 A 
HETATM    7  C   UNL     1      43.309 -15.436   5.672  1.00  0.00     0.019 A 
HETATM    8  C   UNL     1      42.186 -16.186   5.319  1.00  0.00     0.032 A 
HETATM    9  C   UNL     1      40.937 -15.554   5.261  1.00  0.00     0.019 A 
HETATM   10  C   UNL     1      40.816 -14.188   5.557  1.00  0.00     0.030 A 
BRANCH   8  11
HETATM   11  C   UNL     1      42.292 -17.619   4.913  1.00  0.00     0.256 C 
HETATM   12  N   UNL     1      43.515 -18.006   4.399  1.00  0.00    -0.321 N 
HETATM   13  H   UNL     1      44.307 -17.382   4.502  1.00  0.00     0.169 HD
HETATM   14  O   UNL     1      41.312 -18.338   5.078  1.00  0.00    -0.267 OA
BRANCH  12  15
HETATM   15  C   UNL     1      43.845 -19.238   3.784  1.00  0.00     0.068 A 
HETATM   16  C   UNL     1      43.404 -19.439   2.457  1.00  0.00     0.095 A 
HETATM   17  C   UNL     1      43.671 -20.652   1.813  1.00  0.00     0.039 A 
HETATM   18  C   UNL     1      44.373 -21.660   2.477  1.00  0.00     0.003 A 
HETATM   19  C   UNL     1      44.808 -21.462   3.784  1.00  0.00     0.002 A 
HETATM   20  C   UNL     1      44.545 -20.256   4.436  1.00  0.00     0.032 A 
BRANCH  16  21
HETATM   21  O   UNL     1      42.715 -18.388   1.892  1.00  0.00    -0.354 OA
HETATM   22  C   UNL     1      43.436 -17.570   0.976  1.00  0.00     0.210 C 
ENDBRANCH  16  21
ENDBRANCH  12  15
ENDBRANCH   8  11
ENDBRANCH   2   5
BRANCH   1  23
HETATM   23  C   UNL     1      40.721  -9.939   6.927  1.00  0.00     0.240 C 
BRANCH  23  24
HETATM   24  N   UNL     1      40.768  -9.326   8.237  1.00  0.00    -0.259 N 
HETATM   25  C   UNL     1      39.702  -8.737   8.838  1.00  0.00     0.326 C 
HETATM   26  N   UNL     1      40.005  -8.534  10.165  1.00  0.00    -0.324 N 
HETATM   27  O   UNL     1      38.637  -8.440   8.326  1.00  0.00    -0.247 OA
HETATM   28  C   UNL     1      41.183  -9.283  10.568  1.00  0.00     0.116 C 
HETATM   29  H   UNL     1      39.266  -8.249  10.797  1.00  0.00     0.165 HD
HETATM   30  C   UNL     1      40.760 -10.621  11.201  1.00  0.00     0.041 C 
HETATM   31  C   UNL     1      41.754  -9.567   9.158  1.00  0.00     0.256 C 
HETATM   32  C   UNL     1      42.093  -8.462  11.477  1.00  0.00     0.041 C 
HETATM   33  C   UNL     1      41.947 -11.408  11.755  1.00  0.00     0.007 C 
HETATM   34  C   UNL     1      42.794 -10.594  12.743  1.00  0.00    -0.015 C 
HETATM   35  C   UNL     1      43.237  -9.272  12.093  1.00  0.00     0.007 C 
HETATM   36  O   UNL     1      42.848 -10.054   8.914  1.00  0.00    -0.270 OA
BRANCH  34  37
HETATM   37  C   UNL     1      42.046 -10.412  14.080  1.00  0.00     0.000 C 
HETATM   38  C   UNL     1      42.661  -9.347  14.976  1.00  0.00     0.005 C 
ENDBRANCH  34  37
ENDBRANCH  23  24
ENDBRANCH   1  23
TORSDOF 7
ENDMDL
MODEL 5
REMARK VINA RESULT:      -9.1      2.793      3.679
REMARK  7 active torsions:
REMARK  status: ('A' for Active; 'I' for Inactive)
REMARK    1  A    between atoms: C_2  and  C_3 
REMARK    2  A    between atoms: N_10  and  C_11 
REMARK    3  A    between atoms: C_11  and  C_12 
REMARK       I    between atoms: C_12  and  N_13 
REMARK    4  A    between atoms: N_13  and  C_14 
REMARK    5  A    between atoms: C_17  and  C_18 
REMARK       I    between atoms: C_18  and  N_19 
REMARK    6  A    between atoms: N_19  and  C_20 
REMARK    7  A    between atoms: C_21  and  O_22 
ROOT
HETATM    1  C   UNL     1      41.165 -10.084   7.330  1.00  0.00     0.240 C 
HETATM    2  N   UNL     1      40.424 -10.939   6.540  1.00  0.00    -0.326 N 
HETATM    3  O   UNL     1      42.367 -10.196   7.572  1.00  0.00    -0.271 OA
HETATM    4  H   UNL     1      39.435 -10.738   6.450  1.00  0.00     0.169 HD
ENDROOT
BRANCH   2   5
HETATM    5  C   UNL     1      40.910 -12.058   5.820  1.00  0.00     0.034 A 
HETATM    6  C   UNL     1      40.634 -13.387   6.159  1.00  0.00     0.030 A 
HETATM    7  C   UNL     1      41.182 -14.452   5.431  1.00  0.00     0.019 A 
HETATM    8  C   UNL     1      42.016 -14.201   4.340  1.00  0.00     0.032 A 
HETATM    9  C   UNL     1      42.291 -12.873   3.987  1.00  0.00     0.019 A 
HETATM   10  C   UNL     1      41.735 -11.812   4.717  1.00  0.00     0.030 A 
BRANCH   8  11
HETATM   11  C   UNL     1      42.693 -15.304   3.596  1.00  0.00     0.256 C 
HETATM   12  N   UNL     1      42.318 -16.585   3.954  1.00  0.00    -0.321 N 
HETATM   13  H   UNL     1      41.496 -16.708   4.533  1.00  0.00     0.169 HD
HETATM   14  O   UNL     1      43.504 -14.999   2.727  1.00  0.00    -0.267 OA
BRANCH  12  15
HETATM   15  C   UNL     1      42.908 -17.806   3.545  1.00  0.00     0.068 A 
HETATM   16  C   UNL     1      43.803 -18.426   4.445  1.00  0.00     0.095 A 
HETATM   17  C   UNL     1      44.442 -19.615   4.079  1.00  0.00     0.039 A 
HETATM   18  C   UNL     1      44.196 -20.190   2.830  1.00  0.00     0.003 A 
HETATM   19  C   UNL     1      43.314 -19.579   1.944  1.00  0.00     0.002 A 
HETATM   20  C   UNL     1      42.672 -18.391   2.299  1.00  0.00     0.032 A 
BRANCH  16  21
HETATM   21  O   UNL     1      43.985 -17.778   5.647  1.00  0.00    -0.354 OA
HETATM   22  C   UNL     1      45.157 -18.113   6.383  1.00  0.00     0.210 C 
ENDBRANCH  16  21
ENDBRANCH  12  15
ENDBRANCH   8  11
ENDBRANCH   2   5
BRANCH   1  23
HETATM   23  C   UNL     1      40.399  -8.949   8.008  1.00  0.00     0.240 C 
BRANCH  23  24
HETATM   24  N   UNL     1      39.994  -9.086   9.391  1.00  0.00    -0.259 N 
HETATM   25  C   UNL     1      39.133 -10.036   9.839  1.00  0.00     0.326 C 
HETATM   26  N   UNL     1      39.203 -10.076  11.213  1.00  0.00    -0.324 N 
HETATM   27  O   UNL     1      38.419 -10.760   9.168  1.00  0.00    -0.247 OA
HETATM   28  C   UNL     1      40.364  -9.361  11.714  1.00  0.00     0.116 C 
HETATM   29  H   UNL     1      38.743 -10.834  11.703  1.00  0.00     0.165 HD
HETATM   30  C   UNL     1      41.523 -10.347  11.947  1.00  0.00     0.041 C 
HETATM   31  C   UNL     1      40.674  -8.532  10.444  1.00  0.00     0.256 C 
HETATM   32  C   UNL     1      40.030  -8.538  12.954  1.00  0.00     0.041 C 
HETATM   33  C   UNL     1      42.739  -9.679  12.586  1.00  0.00     0.007 C 
HETATM   34  C   UNL     1      42.400  -8.937  13.887  1.00  0.00    -0.015 C 
HETATM   35  C   UNL     1      41.260  -7.933  13.637  1.00  0.00     0.007 C 
HETATM   36  O   UNL     1      41.491  -7.626  10.363  1.00  0.00    -0.270 OA
BRANCH  34  37
HETATM   37  C   UNL     1      42.112  -9.937  15.025  1.00  0.00     0.000 C 
HETATM   38  C   UNL     1      41.798  -9.266  16.354  1.00  0.00     0.005 C 
ENDBRANCH  34  37
ENDBRANCH  23  24
ENDBRANCH   1  23
TORSDOF 7
ENDMDL
MODEL 6
REMARK VINA RESULT:      -9.1      2.969     11.610
REMARK  7 active torsions:
REMARK  status: ('A' for Active; 'I' for Inactive)
REMARK    1  A    between atoms: C_2  and  C_3 
REMARK    2  A    between atoms: N_10  and  C_11 
REMARK    3  A    between atoms: C_11  and  C_12 
REMARK       I    between atoms: C_12  and  N_13 
REMARK    4  A    between atoms: N_13  and  C_14 
REMARK    5  A    between atoms: C_17  and  C_18 
REMARK       I    between atoms: C_18  and  N_19 
REMARK    6  A    between atoms: N_19  and  C_20 
REMARK    7  A    between atoms: C_21  and  O_22 
ROOT
HETATM    1  C   UNL     1      40.184 -13.688   4.484  1.00  0.00     0.240 C 
HETATM    2  N   UNL     1      40.690 -12.427   4.724  1.00  0.00    -0.326 N 
HETATM    3  O   UNL     1      39.796 -14.479   5.345  1.00  0.00    -0.271 OA
HETATM    4  H   UNL     1      40.997 -11.896   3.918  1.00  0.00     0.169 HD
ENDROOT
BRANCH   2   5
HETATM    5  C   UNL     1      40.804 -11.789   5.983  1.00  0.00     0.034 A 
HETATM    6  C   UNL     1      39.766 -11.080   6.598  1.00  0.00     0.030 A 
HETATM    7  C   UNL     1      39.955 -10.433   7.827  1.00  0.00     0.019 A 
HETATM    8  C   UNL     1      41.194 -10.491   8.468  1.00  0.00     0.032 A 
HETATM    9  C   UNL     1      42.237 -11.206   7.864  1.00  0.00     0.019 A 
HETATM   10  C   UNL     1      42.040 -11.856   6.637  1.00  0.00     0.030 A 
BRANCH   8  11
HETATM   11  C   UNL     1      41.465  -9.740   9.729  1.00  0.00     0.256 C 
HETATM   12  N   UNL     1      41.946 -10.495  10.782  1.00  0.00    -0.321 N 
HETATM   13  H   UNL     1      42.267 -11.439  10.599  1.00  0.00     0.169 HD
HETATM   14  O   UNL     1      41.262  -8.530   9.734  1.00  0.00    -0.267 OA
BRANCH  12  15
HETATM   15  C   UNL     1      42.126 -10.090  12.127  1.00  0.00     0.068 A 
HETATM   16  C   UNL     1      40.991 -10.112  12.968  1.00  0.00     0.095 A 
HETATM   17  C   UNL     1      41.103  -9.687  14.296  1.00  0.00     0.039 A 
HETATM   18  C   UNL     1      42.332  -9.245  14.791  1.00  0.00     0.003 A 
HETATM   19  C   UNL     1      43.450  -9.224  13.963  1.00  0.00     0.002 A 
HETATM   20  C   UNL     1      43.348  -9.644  12.636  1.00  0.00     0.032 A 
BRANCH  16  21
HETATM   21  O   UNL     1      39.825 -10.556  12.384  1.00  0.00    -0.354 OA
HETATM   22  C   UNL     1      38.818  -9.579  12.143  1.00  0.00     0.210 C 
ENDBRANCH  16  21
ENDBRANCH  12  15
ENDBRANCH   8  11
ENDBRANCH   2   5
BRANCH   1  23
HETATM   23  C   UNL     1      40.175 -14.152   3.028  1.00  0.00     0.240 C 
BRANCH  23  24
HETATM   24  N   UNL     1      41.321 -14.859   2.497  1.00  0.00    -0.259 N 
HETATM   25  C   UNL     1      42.561 -14.317   2.383  1.00  0.00     0.326 C 
HETATM   26  N   UNL     1      43.459 -15.329   2.134  1.00  0.00    -0.324 N 
HETATM   27  O   UNL     1      42.866 -13.143   2.494  1.00  0.00    -0.247 OA
HETATM   28  C   UNL     1      42.881 -16.637   2.392  1.00  0.00     0.116 C 
HETATM   29  H   UNL     1      44.451 -15.124   2.177  1.00  0.00     0.165 HD
HETATM   30  C   UNL     1      43.249 -17.097   3.815  1.00  0.00     0.041 C 
HETATM   31  C   UNL     1      41.391 -16.223   2.380  1.00  0.00     0.256 C 
HETATM   32  C   UNL     1      43.276 -17.652   1.323  1.00  0.00     0.041 C 
HETATM   33  C   UNL     1      42.771 -18.519   4.111  1.00  0.00     0.007 C 
HETATM   34  C   UNL     1      43.260 -19.541   3.076  1.00  0.00    -0.015 C 
HETATM   35  C   UNL     1      42.864 -19.088   1.660  1.00  0.00     0.007 C 
HETATM   36  O   UNL     1      40.436 -16.986   2.404  1.00  0.00    -0.270 OA
BRANCH  34  37
HETATM   37  C   UNL     1      44.770 -19.808   3.247  1.00  0.00     0.000 C 
HETATM   38  C   UNL     1      45.126 -20.418   4.595  1.00  0.00     0.005 C 
ENDBRANCH  34  37
ENDBRANCH  23  24
ENDBRANCH   1  23
TORSDOF 7
ENDMDL
MODEL 7
REMARK VINA RESULT:      -9.1      3.150      4.134
REMARK  7 active torsions:
REMARK  status: ('A' for Active; 'I' for Inactive)
REMARK    1  A    between atoms: C_2  and  C_3 
REMARK    2  A    between atoms: N_10  and  C_11 
REMARK    3  A    between atoms: C_11  and  C_12 
REMARK       I    between atoms: C_12  and  N_13 
REMARK    4  A    between atoms: N_13  and  C_14 
REMARK    5  A    between atoms: C_17  and  C_18 
REMARK       I    between atoms: C_18  and  N_19 
REMARK    6  A    between atoms: N_19  and  C_20 
REMARK    7  A    between atoms: C_21  and  O_22 
ROOT
HETATM    1  C   UNL     1      40.730 -10.904   4.349  1.00  0.00     0.240 C 
HETATM    2  N   UNL     1      41.710 -11.634   4.989  1.00  0.00    -0.326 N 
HETATM    3  O   UNL     1      39.942 -11.345   3.512  1.00  0.00    -0.271 OA
HETATM    4  H   UNL     1      42.306 -11.132   5.636  1.00  0.00     0.169 HD
ENDROOT
BRANCH   2   5
HETATM    5  C   UNL     1      41.954 -13.023   4.852  1.00  0.00     0.034 A 
HETATM    6  C   UNL     1      42.884 -13.570   3.961  1.00  0.00     0.030 A 
HETATM    7  C   UNL     1      43.047 -14.957   3.841  1.00  0.00     0.019 A 
HETATM    8  C   UNL     1      42.281 -15.824   4.623  1.00  0.00     0.032 A 
HETATM    9  C   UNL     1      41.354 -15.286   5.524  1.00  0.00     0.019 A 
HETATM   10  C   UNL     1      41.199 -13.896   5.643  1.00  0.00     0.030 A 
BRANCH   8  11
HETATM   11  C   UNL     1      42.358 -17.306   4.461  1.00  0.00     0.256 C 
HETATM   12  N   UNL     1      43.502 -17.782   3.848  1.00  0.00    -0.321 N 
HETATM   13  H   UNL     1      44.287 -17.153   3.725  1.00  0.00     0.169 HD
HETATM   14  O   UNL     1      41.427 -17.981   4.889  1.00  0.00    -0.267 OA
BRANCH  12  15
HETATM   15  C   UNL     1      43.766 -19.104   3.415  1.00  0.00     0.068 A 
HETATM   16  C   UNL     1      44.415 -19.967   4.326  1.00  0.00     0.095 A 
HETATM   17  C   UNL     1      44.733 -21.273   3.937  1.00  0.00     0.039 A 
HETATM   18  C   UNL     1      44.408 -21.724   2.656  1.00  0.00     0.003 A 
HETATM   19  C   UNL     1      43.768 -20.875   1.760  1.00  0.00     0.002 A 
HETATM   20  C   UNL     1      43.448 -19.569   2.136  1.00  0.00     0.032 A 
BRANCH  16  21
HETATM   21  O   UNL     1      44.700 -19.427   5.560  1.00  0.00    -0.354 OA
HETATM   22  C   UNL     1      43.954 -19.928   6.664  1.00  0.00     0.210 C 
ENDBRANCH  16  21
ENDBRANCH  12  15
ENDBRANCH   8  11
ENDBRANCH   2   5
BRANCH   1  23
HETATM   23  C   UNL     1      40.678  -9.410   4.665  1.00  0.00     0.240 C 
BRANCH  23  24
HETATM   24  N   UNL     1      40.148  -8.967   5.937  1.00  0.00    -0.259 N 
HETATM   25  C   UNL     1      38.822  -8.838   6.203  1.00  0.00     0.326 C 
HETATM   26  N   UNL     1      38.661  -8.697   7.562  1.00  0.00    -0.324 N 
HETATM   27  O   UNL     1      37.904  -8.857   5.402  1.00  0.00    -0.247 OA
HETATM   28  C   UNL     1      39.869  -9.051   8.287  1.00  0.00     0.116 C 
HETATM   29  H   UNL     1      37.726  -8.746   7.951  1.00  0.00     0.165 HD
HETATM   30  C   UNL     1      39.786 -10.515   8.754  1.00  0.00     0.041 C 
HETATM   31  C   UNL     1      40.864  -8.968   7.106  1.00  0.00     0.256 C 
HETATM   32  C   UNL     1      40.147  -8.081   9.432  1.00  0.00     0.041 C 
HETATM   33  C   UNL     1      40.975 -10.919   9.626  1.00  0.00     0.007 C 
HETATM   34  C   UNL     1      41.179  -9.986  10.828  1.00  0.00    -0.015 C 
HETATM   35  C   UNL     1      41.289  -8.528  10.350  1.00  0.00     0.007 C 
HETATM   36  O   UNL     1      42.082  -9.033   7.190  1.00  0.00    -0.270 OA
BRANCH  34  37
HETATM   37  C   UNL     1      40.080 -10.215  11.886  1.00  0.00     0.000 C 
HETATM   38  C   UNL     1      40.238 -11.523  12.647  1.00  0.00     0.005 C 
ENDBRANCH  34  37
ENDBRANCH  23  24
ENDBRANCH   1  23
TORSDOF 7
ENDMDL
MODEL 8
REMARK VINA RESULT:      -8.8      4.181     11.326
REMARK  7 active torsions:
REMARK  status: ('A' for Active; 'I' for Inactive)
REMARK    1  A    between atoms: C_2  and  C_3 
REMARK    2  A    between atoms: N_10  and  C_11 
REMARK    3  A    between atoms: C_11  and  C_12 
REMARK       I    between atoms: C_12  and  N_13 
REMARK    4  A    between atoms: N_13  and  C_14 
REMARK    5  A    between atoms: C_17  and  C_18 
REMARK       I    between atoms: C_18  and  N_19 
REMARK    6  A    between atoms: N_19  and  C_20 
REMARK    7  A    between atoms: C_21  and  O_22 
ROOT
HETATM    1  C   UNL     1      38.840 -11.923   2.583  1.00  0.00     0.240 C 
HETATM    2  N   UNL     1      39.564 -12.604   3.540  1.00  0.00    -0.326 N 
HETATM    3  O   UNL     1      38.281 -10.837   2.748  1.00  0.00    -0.271 OA
HETATM    4  H   UNL     1      39.947 -13.502   3.271  1.00  0.00     0.169 HD
ENDROOT
BRANCH   2   5
HETATM    5  C   UNL     1      39.847 -12.164   4.857  1.00  0.00     0.034 A 
HETATM    6  C   UNL     1      39.182 -12.628   5.997  1.00  0.00     0.030 A 
HETATM    7  C   UNL     1      39.479 -12.120   7.269  1.00  0.00     0.019 A 
HETATM    8  C   UNL     1      40.458 -11.137   7.422  1.00  0.00     0.032 A 
HETATM    9  C   UNL     1      41.136 -10.673   6.287  1.00  0.00     0.019 A 
HETATM   10  C   UNL     1      40.838 -11.189   5.017  1.00  0.00     0.030 A 
BRANCH   8  11
HETATM   11  C   UNL     1      40.740 -10.504   8.744  1.00  0.00     0.256 C 
HETATM   12  N   UNL     1      41.631 -11.183   9.554  1.00  0.00    -0.321 N 
HETATM   13  H   UNL     1      42.178 -11.936   9.153  1.00  0.00     0.169 HD
HETATM   14  O   UNL     1      40.186  -9.441   9.003  1.00  0.00    -0.267 OA
BRANCH  12  15
HETATM   15  C   UNL     1      41.950 -10.914  10.907  1.00  0.00     0.068 A 
HETATM   16  C   UNL     1      43.239 -10.405  11.180  1.00  0.00     0.095 A 
HETATM   17  C   UNL     1      43.620 -10.154  12.503  1.00  0.00     0.039 A 
HETATM   18  C   UNL     1      42.730 -10.404  13.550  1.00  0.00     0.003 A 
HETATM   19  C   UNL     1      41.460 -10.905  13.281  1.00  0.00     0.002 A 
HETATM   20  C   UNL     1      41.071 -11.160  11.965  1.00  0.00     0.032 A 
BRANCH  16  21
HETATM   21  O   UNL     1      44.044 -10.200  10.081  1.00  0.00    -0.354 OA
HETATM   22  C   UNL     1      45.309 -10.854  10.085  1.00  0.00     0.210 C 
ENDBRANCH  16  21
ENDBRANCH  12  15
ENDBRANCH   8  11
ENDBRANCH   2   5
BRANCH   1  23
HETATM   23  C   UNL     1      38.671 -12.619   1.234  1.00  0.00     0.240 C 
BRANCH  23  24
HETATM   24  N   UNL     1      39.685 -13.546   0.776  1.00  0.00    -0.259 N 
HETATM   25  C   UNL     1      40.804 -13.175   0.102  1.00  0.00     0.326 C 
HETATM   26  N   UNL     1      41.678 -14.238   0.088  1.00  0.00    -0.324 N 
HETATM   27  O   UNL     1      41.035 -12.091  -0.403  1.00  0.00    -0.247 OA
HETATM   28  C   UNL     1      41.294 -15.263   1.043  1.00  0.00     0.116 C 
HETATM   29  H   UNL     1      42.626 -14.086  -0.236  1.00  0.00     0.165 HD
HETATM   30  C   UNL     1      42.062 -15.062   2.362  1.00  0.00     0.041 C 
HETATM   31  C   UNL     1      39.827 -14.821   1.258  1.00  0.00     0.256 C 
HETATM   32  C   UNL     1      41.466 -16.665   0.467  1.00  0.00     0.041 C 
HETATM   33  C   UNL     1      41.793 -16.178   3.371  1.00  0.00     0.007 C 
HETATM   34  C   UNL     1      42.066 -17.577   2.802  1.00  0.00    -0.015 C 
HETATM   35  C   UNL     1      41.272 -17.780   1.499  1.00  0.00     0.007 C 
HETATM   36  O   UNL     1      38.975 -15.445   1.875  1.00  0.00    -0.270 OA
BRANCH  34  37
HETATM   37  C   UNL     1      43.582 -17.817   2.652  1.00  0.00     0.000 C 
HETATM   38  C   UNL     1      43.919 -19.065   1.849  1.00  0.00     0.005 C 
ENDBRANCH  34  37
ENDBRANCH  23  24
ENDBRANCH   1  23
TORSDOF 7
ENDMDL
MODEL 9
REMARK VINA RESULT:      -8.8      3.123     12.093
REMARK  7 active torsions:
REMARK  status: ('A' for Active; 'I' for Inactive)
REMARK    1  A    between atoms: C_2  and  C_3 
REMARK    2  A    between atoms: N_10  and  C_11 
REMARK    3  A    between atoms: C_11  and  C_12 
REMARK       I    between atoms: C_12  and  N_13 
REMARK    4  A    between atoms: N_13  and  C_14 
REMARK    5  A    between atoms: C_17  and  C_18 
REMARK       I    between atoms: C_18  and  N_19 
REMARK    6  A    between atoms: N_19  and  C_20 
REMARK    7  A    between atoms: C_21  and  O_22 
ROOT
HETATM    1  C   UNL     1      42.060 -12.724   4.444  1.00  0.00     0.240 C 
HETATM    2  N   UNL     1      41.029 -11.859   4.753  1.00  0.00    -0.326 N 
HETATM    3  O   UNL     1      43.130 -12.804   5.049  1.00  0.00    -0.271 OA
HETATM    4  H   UNL     1      40.216 -11.884   4.151  1.00  0.00     0.169 HD
ENDROOT
BRANCH   2   5
HETATM    5  C   UNL     1      40.983 -10.955   5.843  1.00  0.00     0.034 A 
HETATM    6  C   UNL     1      41.359  -9.610   5.760  1.00  0.00     0.030 A 
HETATM    7  C   UNL     1      41.331  -8.777   6.888  1.00  0.00     0.019 A 
HETATM    8  C   UNL     1      40.917  -9.280   8.123  1.00  0.00     0.032 A 
HETATM    9  C   UNL     1      40.530 -10.624   8.213  1.00  0.00     0.019 A 
HETATM   10  C   UNL     1      40.555 -11.451   7.080  1.00  0.00     0.030 A 
BRANCH   8  11
HETATM   11  C   UNL     1      40.961  -8.454   9.365  1.00  0.00     0.256 C 
HETATM   12  N   UNL     1      41.401  -9.106  10.501  1.00  0.00    -0.321 N 
HETATM   13  H   UNL     1      41.842 -10.013  10.403  1.00  0.00     0.169 HD
HETATM   14  O   UNL     1      40.626  -7.276   9.285  1.00  0.00    -0.267 OA
BRANCH  12  15
HETATM   15  C   UNL     1      41.383  -8.630  11.834  1.00  0.00     0.068 A 
HETATM   16  C   UNL     1      40.244  -8.929  12.615  1.00  0.00     0.095 A 
HETATM   17  C   UNL     1      40.158  -8.452  13.927  1.00  0.00     0.039 A 
HETATM   18  C   UNL     1      41.193  -7.686  14.466  1.00  0.00     0.003 A 
HETATM   19  C   UNL     1      42.315  -7.392  13.698  1.00  0.00     0.002 A 
HETATM   20  C   UNL     1      42.411  -7.861  12.387  1.00  0.00     0.032 A 
BRANCH  16  21
HETATM   21  O   UNL     1      39.275  -9.683  11.991  1.00  0.00    -0.354 OA
HETATM   22  C   UNL     1      37.968  -9.122  11.930  1.00  0.00     0.210 C 
ENDBRANCH  16  21
ENDBRANCH  12  15
ENDBRANCH   8  11
ENDBRANCH   2   5
BRANCH   1  23
HETATM   23  C   UNL     1      41.868 -13.597   3.206  1.00  0.00     0.240 C 
BRANCH  23  24
HETATM   24  N   UNL     1      41.620 -15.015   3.362  1.00  0.00    -0.259 N 
HETATM   25  C   UNL     1      40.449 -15.621   3.036  1.00  0.00     0.326 C 
HETATM   26  N   UNL     1      40.651 -16.982   3.022  1.00  0.00    -0.324 N 
HETATM   27  O   UNL     1      39.387 -15.083   2.778  1.00  0.00    -0.247 OA
HETATM   28  C   UNL     1      42.065 -17.316   3.028  1.00  0.00     0.116 C 
HETATM   29  H   UNL     1      39.925 -17.580   2.646  1.00  0.00     0.165 HD
HETATM   30  C   UNL     1      42.551 -17.553   1.587  1.00  0.00     0.041 C 
HETATM   31  C   UNL     1      42.610 -15.951   3.512  1.00  0.00     0.256 C 
HETATM   32  C   UNL     1      42.365 -18.492   3.953  1.00  0.00     0.041 C 
HETATM   33  C   UNL     1      44.004 -18.024   1.530  1.00  0.00     0.007 C 
HETATM   34  C   UNL     1      44.263 -19.268   2.392  1.00  0.00    -0.015 C 
HETATM   35  C   UNL     1      43.801 -19.012   3.837  1.00  0.00     0.007 C 
HETATM   36  O   UNL     1      43.764 -15.716   3.838  1.00  0.00    -0.270 OA
BRANCH  34  37
HETATM   37  C   UNL     1      43.632 -20.518   1.746  1.00  0.00     0.000 C 
HETATM   38  C   UNL     1      44.081 -21.822   2.390  1.00  0.00     0.005 C 
ENDBRANCH  34  37
ENDBRANCH  23  24
ENDBRANCH   1  23
TORSDOF 7
ENDMDL
MODEL 10
REMARK VINA RESULT:      -8.6      2.377      3.469
REMARK  7 active torsions:
REMARK  status: ('A' for Active; 'I' for Inactive)
REMARK    1  A    between atoms: C_2  and  C_3 
REMARK    2  A    between atoms: N_10  and  C_11 
REMARK    3  A    between atoms: C_11  and  C_12 
REMARK       I    between atoms: C_12  and  N_13 
REMARK    4  A    between atoms: N_13  and  C_14 
REMARK    5  A    between atoms: C_17  and  C_18 
REMARK       I    between atoms: C_18  and  N_19 
REMARK    6  A    between atoms: N_19  and  C_20 
REMARK    7  A    between atoms: C_21  and  O_22 
ROOT
HETATM    1  C   UNL     1      40.678 -11.858   6.695  1.00  0.00     0.240 C 
HETATM    2  N   UNL     1      42.014 -12.105   6.453  1.00  0.00    -0.326 N 
HETATM    3  O   UNL     1      39.785 -12.705   6.703  1.00  0.00    -0.271 OA
HETATM    4  H   UNL     1      42.635 -11.305   6.452  1.00  0.00     0.169 HD
ENDROOT
BRANCH   2   5
HETATM    5  C   UNL     1      42.612 -13.370   6.230  1.00  0.00     0.034 A 
HETATM    6  C   UNL     1      42.062 -14.361   5.410  1.00  0.00     0.030 A 
HETATM    7  C   UNL     1      42.681 -15.610   5.265  1.00  0.00     0.019 A 
HETATM    8  C   UNL     1      43.873 -15.886   5.937  1.00  0.00     0.032 A 
HETATM    9  C   UNL     1      44.436 -14.896   6.754  1.00  0.00     0.019 A 
HETATM   10  C   UNL     1      43.814 -13.646   6.891  1.00  0.00     0.030 A 
BRANCH   8  11
HETATM   11  C   UNL     1      44.516 -17.233   5.884  1.00  0.00     0.256 C 
HETATM   12  N   UNL     1      43.838 -18.189   5.151  1.00  0.00    -0.321 N 
HETATM   13  H   UNL     1      43.079 -17.894   4.548  1.00  0.00     0.169 HD
HETATM   14  O   UNL     1      45.584 -17.384   6.466  1.00  0.00    -0.267 OA
BRANCH  12  15
HETATM   15  C   UNL     1      44.117 -19.575   5.069  1.00  0.00     0.068 A 
HETATM   16  C   UNL     1      43.885 -20.352   6.225  1.00  0.00     0.095 A 
HETATM   17  C   UNL     1      44.177 -21.720   6.212  1.00  0.00     0.039 A 
HETATM   18  C   UNL     1      44.694 -22.317   5.060  1.00  0.00     0.003 A 
HETATM   19  C   UNL     1      44.922 -21.552   3.920  1.00  0.00     0.002 A 
HETATM   20  C   UNL     1      44.635 -20.185   3.924  1.00  0.00     0.032 A 
BRANCH  16  21
HETATM   21  O   UNL     1      43.382 -19.670   7.311  1.00  0.00    -0.354 OA
HETATM   22  C   UNL     1      44.109 -19.785   8.530  1.00  0.00     0.210 C 
ENDBRANCH  16  21
ENDBRANCH  12  15
ENDBRANCH   8  11
ENDBRANCH   2   5
BRANCH   1  23
HETATM   23  C   UNL     1      40.283 -10.396   6.900  1.00  0.00     0.240 C 
BRANCH  23  24
HETATM   24  N   UNL     1      40.302  -9.831   8.232  1.00  0.00    -0.259 N 
HETATM   25  C   UNL     1      39.195  -9.669   9.004  1.00  0.00     0.326 C 
HETATM   26  N   UNL     1      39.597  -9.397  10.292  1.00  0.00    -0.324 N 
HETATM   27  O   UNL     1      38.032  -9.759   8.653  1.00  0.00    -0.247 OA
HETATM   28  C   UNL     1      41.007  -9.688  10.489  1.00  0.00     0.116 C 
HETATM   29  H   UNL     1      38.904  -9.404  11.031  1.00  0.00     0.165 HD
HETATM   30  C   UNL     1      41.171 -11.100  11.078  1.00  0.00     0.041 C 
HETATM   31  C   UNL     1      41.432  -9.724   9.001  1.00  0.00     0.256 C 
HETATM   32  C   UNL     1      41.694  -8.615  11.328  1.00  0.00     0.041 C 
HETATM   33  C   UNL     1      42.624 -11.426  11.420  1.00  0.00     0.007 C 
HETATM   34  C   UNL     1      43.268 -10.384  12.345  1.00  0.00    -0.015 C 
HETATM   35  C   UNL     1      43.125  -8.978  11.735  1.00  0.00     0.007 C 
HETATM   36  O   UNL     1      42.580  -9.788   8.587  1.00  0.00    -0.270 OA
BRANCH  34  37
HETATM   37  C   UNL     1      42.704 -10.504  13.776  1.00  0.00     0.000 C 
HETATM   38  C   UNL     1      42.905  -9.247  14.611  1.00  0.00     0.005 C 
ENDBRANCH  34  37
ENDBRANCH  23  24
ENDBRANCH   1  23
TORSDOF 7
ENDMDL
