MODEL 1
REMARK VINA RESULT:     -10.5      0.000      0.000
REMARK  4 active torsions:
REMARK  status: ('A' for Active; 'I' for Inactive)
REMARK    1  A    between atoms: C_2  and  N_3 
REMARK    2  A    between atoms: C_7  and  N_8 
REMARK       I    between atoms: N_8  and  C_9 
REMARK    3  A    between atoms: C_9  and  C_10 
REMARK    4  A    between atoms: C_10  and  N_11 
ROOT
HETATM    1  N   UNL     1      43.800 -14.412   7.097  1.00  0.00    -0.326 N 
HETATM    2  C   UNL     1      44.939 -13.644   7.231  1.00  0.00     0.242 C 
HETATM    3  O   UNL     1      45.803 -13.481   6.370  1.00  0.00    -0.271 OA
HETATM    4  H   UNL     1      43.217 -14.443   7.933  1.00  0.00     0.169 HD
ENDROOT
BRANCH   2   5
HETATM    5  C   UNL     1      45.162 -13.083   8.637  1.00  0.00     0.257 C 
BRANCH   5   6
HETATM    6  N   UNL     1      44.222 -12.078   9.138  1.00  0.00    -0.224 N 
HETATM    7  N   UNL     1      43.463 -11.373   8.173  1.00  0.00    -0.180 NA
HETATM    8  C   UNL     1      42.447 -10.649   8.553  1.00  0.00     0.153 A 
HETATM    9  C   UNL     1      42.069 -10.569   9.934  1.00  0.00     0.028 A 
HETATM   10  C   UNL     1      42.820 -11.244  10.861  1.00  0.00     0.116 A 
HETATM   11  C   UNL     1      40.996  -9.938  10.614  1.00  0.00     0.005 A 
HETATM   12  N   UNL     1      42.264 -11.047  12.093  1.00  0.00    -0.350 N 
HETATM   13  C   UNL     1      43.954 -12.052  10.526  1.00  0.00     0.291 A 
HETATM   14  H   UNL     1      42.611 -11.448  12.954  1.00  0.00     0.166 HD
HETATM   15  C   UNL     1      41.133 -10.266  11.968  1.00  0.00     0.044 A 
HETATM   16  C   UNL     1      40.224  -9.839  12.944  1.00  0.00     0.030 A 
HETATM   17  C   UNL     1      39.145  -9.056  12.526  1.00  0.00     0.002 A 
HETATM   18  C   UNL     1      38.986  -8.708  11.186  1.00  0.00     0.001 A 
HETATM   19  C   UNL     1      39.903  -9.141  10.220  1.00  0.00     0.014 A 
HETATM   20  O   UNL     1      44.584 -12.677  11.371  1.00  0.00    -0.264 OA
ENDBRANCH   5   6
ENDBRANCH   2   5
BRANCH   1  21
HETATM   21  C   UNL     1      43.392 -15.177   5.985  1.00  0.00     0.035 A 
HETATM   22  C   UNL     1      43.943 -16.420   5.657  1.00  0.00     0.044 A 
HETATM   23  C   UNL     1      43.465 -17.145   4.539  1.00  0.00     0.005 A 
HETATM   24  C   UNL     1      42.450 -16.594   3.758  1.00  0.00     0.046 A 
HETATM   25  C   UNL     1      43.798 -18.419   3.985  1.00  0.00     0.003 A 
HETATM   26  N   UNL     1      42.196 -17.492   2.739  1.00  0.00    -0.346 N 
HETATM   27  C   UNL     1      41.881 -15.349   4.069  1.00  0.00     0.033 A 
HETATM   28  C   UNL     1      42.991 -18.617   2.864  1.00  0.00     0.046 A 
HETATM   29  C   UNL     1      43.070 -19.790   2.092  1.00  0.00     0.030 A 
HETATM   30  C   UNL     1      43.987 -20.773   2.475  1.00  0.00     0.002 A 
HETATM   31  C   UNL     1      44.802 -20.596   3.587  1.00  0.00     0.001 A 
HETATM   32  C   UNL     1      44.718 -19.426   4.348  1.00  0.00     0.014 A 
HETATM   33  C   UNL     1      42.364 -14.660   5.191  1.00  0.00     0.032 A 
BRANCH  26  34
HETATM   34  C   UNL     1      41.236 -17.283   1.666  1.00  0.00     0.125 C 
HETATM   35  C   UNL     1      41.857 -16.611   0.454  1.00  0.00     0.027 C 
ENDBRANCH  26  34
ENDBRANCH   1  21
TORSDOF 4
ENDMDL
MODEL 2
REMARK VINA RESULT:     -10.1      2.313      3.055
REMARK  4 active torsions:
REMARK  status: ('A' for Active; 'I' for Inactive)
REMARK    1  A    between atoms: C_2  and  N_3 
REMARK    2  A    between atoms: C_7  and  N_8 
REMARK       I    between atoms: N_8  and  C_9 
REMARK    3  A    between atoms: C_9  and  C_10 
REMARK    4  A    between atoms: C_10  and  N_11 
ROOT
HETATM    1  N   UNL     1      41.915 -12.815   6.024  1.00  0.00    -0.326 N 
HETATM    2  C   UNL     1      40.691 -12.189   5.898  1.00  0.00     0.242 C 
HETATM    3  O   UNL     1      39.803 -12.495   5.103  1.00  0.00    -0.271 OA
HETATM    4  H   UNL     1      42.527 -12.399   6.725  1.00  0.00     0.169 HD
ENDROOT
BRANCH   2   5
HETATM    5  C   UNL     1      40.536 -10.926   6.750  1.00  0.00     0.257 C 
BRANCH   5   6
HETATM    6  N   UNL     1      41.100 -10.931   8.102  1.00  0.00    -0.224 N 
HETATM    7  N   UNL     1      42.477 -10.623   8.224  1.00  0.00    -0.180 NA
HETATM    8  C   UNL     1      42.981 -10.373   9.400  1.00  0.00     0.153 A 
HETATM    9  C   UNL     1      42.160 -10.385  10.576  1.00  0.00     0.028 A 
HETATM   10  C   UNL     1      40.832 -10.698  10.448  1.00  0.00     0.116 A 
HETATM   11  C   UNL     1      42.410 -10.087  11.941  1.00  0.00     0.005 A 
HETATM   12  N   UNL     1      40.249 -10.621  11.680  1.00  0.00    -0.350 N 
HETATM   13  C   UNL     1      40.205 -10.993   9.194  1.00  0.00     0.291 A 
HETATM   14  H   UNL     1      39.269 -10.788  11.868  1.00  0.00     0.166 HD
HETATM   15  C   UNL     1      41.189 -10.229  12.611  1.00  0.00     0.044 A 
HETATM   16  C   UNL     1      41.049  -9.981  13.982  1.00  0.00     0.030 A 
HETATM   17  C   UNL     1      42.185  -9.578  14.688  1.00  0.00     0.002 A 
HETATM   18  C   UNL     1      43.415  -9.434  14.049  1.00  0.00     0.001 A 
HETATM   19  C   UNL     1      43.542  -9.686  12.677  1.00  0.00     0.014 A 
HETATM   20  O   UNL     1      39.006 -11.232   9.102  1.00  0.00    -0.264 OA
ENDBRANCH   5   6
ENDBRANCH   2   5
BRANCH   1  21
HETATM   21  C   UNL     1      42.416 -13.902   5.279  1.00  0.00     0.035 A 
HETATM   22  C   UNL     1      42.702 -15.154   5.834  1.00  0.00     0.044 A 
HETATM   23  C   UNL     1      43.178 -16.208   5.019  1.00  0.00     0.005 A 
HETATM   24  C   UNL     1      43.378 -15.976   3.659  1.00  0.00     0.046 A 
HETATM   25  C   UNL     1      43.520 -17.571   5.283  1.00  0.00     0.003 A 
HETATM   26  N   UNL     1      43.858 -17.154   3.117  1.00  0.00    -0.346 N 
HETATM   27  C   UNL     1      43.097 -14.729   3.080  1.00  0.00     0.033 A 
HETATM   28  C   UNL     1      43.938 -18.143   4.080  1.00  0.00     0.046 A 
HETATM   29  C   UNL     1      44.340 -19.488   4.001  1.00  0.00     0.030 A 
HETATM   30  C   UNL     1      44.310 -20.257   5.168  1.00  0.00     0.002 A 
HETATM   31  C   UNL     1      43.898 -19.708   6.376  1.00  0.00     0.001 A 
HETATM   32  C   UNL     1      43.503 -18.369   6.447  1.00  0.00     0.014 A 
HETATM   33  C   UNL     1      42.612 -13.707   3.909  1.00  0.00     0.032 A 
BRANCH  26  34
HETATM   34  C   UNL     1      44.246 -17.332   1.726  1.00  0.00     0.125 C 
HETATM   35  C   UNL     1      43.054 -17.575   0.818  1.00  0.00     0.027 C 
ENDBRANCH  26  34
ENDBRANCH   1  21
TORSDOF 4
ENDMDL
MODEL 3
REMARK VINA RESULT:     -10.1      6.765     10.896
REMARK  4 active torsions:
REMARK  status: ('A' for Active; 'I' for Inactive)
REMARK    1  A    between atoms: C_2  and  N_3 
REMARK    2  A    between atoms: C_7  and  N_8 
REMARK       I    between atoms: N_8  and  C_9 
REMARK    3  A    between atoms: C_9  and  C_10 
REMARK    4  A    between atoms: C_10  and  N_11 
ROOT
HETATM    1  N   UNL     1      42.513 -15.791   0.235  1.00  0.00    -0.326 N 
HETATM    2  C   UNL     1      41.245 -15.323  -0.047  1.00  0.00     0.242 C 
HETATM    3  O   UNL     1      40.253 -15.451   0.671  1.00  0.00    -0.271 OA
HETATM    4  H   UNL     1      43.197 -15.607  -0.498  1.00  0.00     0.169 HD
ENDROOT
BRANCH   2   5
HETATM    5  C   UNL     1      41.088 -14.723  -1.447  1.00  0.00     0.257 C 
BRANCH   5   6
HETATM    6  N   UNL     1      39.750 -14.312  -1.876  1.00  0.00    -0.224 N 
HETATM    7  N   UNL     1      39.239 -13.112  -1.322  1.00  0.00    -0.180 NA
HETATM    8  C   UNL     1      38.173 -12.566  -1.837  1.00  0.00     0.153 A 
HETATM    9  C   UNL     1      37.515 -13.149  -2.971  1.00  0.00     0.028 A 
HETATM   10  C   UNL     1      38.009 -14.317  -3.489  1.00  0.00     0.116 A 
HETATM   11  C   UNL     1      36.411 -12.748  -3.767  1.00  0.00     0.005 A 
HETATM   12  N   UNL     1      37.249 -14.667  -4.568  1.00  0.00    -0.350 N 
HETATM   13  C   UNL     1      39.169 -14.983  -2.976  1.00  0.00     0.291 A 
HETATM   14  H   UNL     1      37.406 -15.482  -5.146  1.00  0.00     0.166 HD
HETATM   15  C   UNL     1      36.274 -13.712  -4.773  1.00  0.00     0.044 A 
HETATM   16  C   UNL     1      35.296 -13.626  -5.772  1.00  0.00     0.030 A 
HETATM   17  C   UNL     1      34.436 -12.526  -5.743  1.00  0.00     0.002 A 
HETATM   18  C   UNL     1      34.544 -11.554  -4.751  1.00  0.00     0.001 A 
HETATM   19  C   UNL     1      35.526 -11.652  -3.757  1.00  0.00     0.014 A 
HETATM   20  O   UNL     1      39.613 -16.007  -3.483  1.00  0.00    -0.264 OA
ENDBRANCH   5   6
ENDBRANCH   2   5
BRANCH   1  21
HETATM   21  C   UNL     1      42.941 -16.517   1.365  1.00  0.00     0.035 A 
HETATM   22  C   UNL     1      43.172 -17.897   1.355  1.00  0.00     0.044 A 
HETATM   23  C   UNL     1      43.627 -18.557   2.521  1.00  0.00     0.005 A 
HETATM   24  C   UNL     1      43.824 -17.815   3.686  1.00  0.00     0.046 A 
HETATM   25  C   UNL     1      43.971 -19.914   2.806  1.00  0.00     0.003 A 
HETATM   26  N   UNL     1      44.244 -18.702   4.659  1.00  0.00    -0.346 N 
HETATM   27  C   UNL     1      43.600 -16.430   3.718  1.00  0.00     0.033 A 
HETATM   28  C   UNL     1      44.358 -19.981   4.145  1.00  0.00     0.046 A 
HETATM   29  C   UNL     1      44.766 -21.188   4.739  1.00  0.00     0.030 A 
HETATM   30  C   UNL     1      44.781 -22.342   3.949  1.00  0.00     0.002 A 
HETATM   31  C   UNL     1      44.399 -22.298   2.613  1.00  0.00     0.001 A 
HETATM   32  C   UNL     1      43.992 -21.094   2.032  1.00  0.00     0.014 A 
HETATM   33  C   UNL     1      43.163 -15.800   2.543  1.00  0.00     0.032 A 
BRANCH  26  34
HETATM   34  C   UNL     1      44.516 -18.349   6.045  1.00  0.00     0.125 C 
HETATM   35  C   UNL     1      43.269 -18.389   6.909  1.00  0.00     0.027 C 
ENDBRANCH  26  34
ENDBRANCH   1  21
TORSDOF 4
ENDMDL
MODEL 4
REMARK VINA RESULT:      -9.9      2.104      3.326
REMARK  4 active torsions:
REMARK  status: ('A' for Active; 'I' for Inactive)
REMARK    1  A    between atoms: C_2  and  N_3 
REMARK    2  A    between atoms: C_7  and  N_8 
REMARK       I    between atoms: N_8  and  C_9 
REMARK    3  A    between atoms: C_9  and  C_10 
REMARK    4  A    between atoms: C_10  and  N_11 
ROOT
HETATM    1  N   UNL     1      42.655 -13.323   6.650  1.00  0.00    -0.326 N 
HETATM    2  C   UNL     1      41.850 -12.419   5.987  1.00  0.00     0.242 C 
HETATM    3  O   UNL     1      41.328 -12.590   4.886  1.00  0.00    -0.271 OA
HETATM    4  H   UNL     1      43.014 -12.987   7.543  1.00  0.00     0.169 HD
ENDROOT
BRANCH   2   5
HETATM    5  C   UNL     1      41.745 -11.050   6.665  1.00  0.00     0.257 C 
BRANCH   5   6
HETATM    6  N   UNL     1      41.942 -10.980   8.114  1.00  0.00    -0.224 N 
HETATM    7  N   UNL     1      43.277 -11.023   8.584  1.00  0.00    -0.180 NA
HETATM    8  C   UNL     1      43.535 -10.723   9.826  1.00  0.00     0.153 A 
HETATM    9  C   UNL     1      42.490 -10.330  10.726  1.00  0.00     0.028 A 
HETATM   10  C   UNL     1      41.200 -10.305  10.265  1.00  0.00     0.116 A 
HETATM   11  C   UNL     1      42.482  -9.887  12.074  1.00  0.00     0.005 A 
HETATM   12  N   UNL     1      40.388  -9.879  11.277  1.00  0.00    -0.350 N 
HETATM   13  C   UNL     1      40.833 -10.629   8.918  1.00  0.00     0.291 A 
HETATM   14  H   UNL     1      39.387  -9.754  11.201  1.00  0.00     0.166 HD
HETATM   15  C   UNL     1      41.150  -9.597  12.392  1.00  0.00     0.044 A 
HETATM   16  C   UNL     1      40.764  -9.101  13.643  1.00  0.00     0.030 A 
HETATM   17  C   UNL     1      41.765  -8.896  14.596  1.00  0.00     0.002 A 
HETATM   18  C   UNL     1      43.098  -9.181  14.311  1.00  0.00     0.001 A 
HETATM   19  C   UNL     1      43.471  -9.678  13.056  1.00  0.00     0.014 A 
HETATM   20  O   UNL     1      39.676 -10.561   8.521  1.00  0.00    -0.264 OA
ENDBRANCH   5   6
ENDBRANCH   2   5
BRANCH   1  21
HETATM   21  C   UNL     1      43.066 -14.601   6.219  1.00  0.00     0.035 A 
HETATM   22  C   UNL     1      42.893 -15.069   4.912  1.00  0.00     0.044 A 
HETATM   23  C   UNL     1      43.355 -16.355   4.543  1.00  0.00     0.005 A 
HETATM   24  C   UNL     1      43.968 -17.157   5.505  1.00  0.00     0.046 A 
HETATM   25  C   UNL     1      43.351 -17.079   3.310  1.00  0.00     0.003 A 
HETATM   26  N   UNL     1      44.297 -18.347   4.884  1.00  0.00    -0.346 N 
HETATM   27  C   UNL     1      44.154 -16.707   6.822  1.00  0.00     0.033 A 
HETATM   28  C   UNL     1      43.947 -18.318   3.546  1.00  0.00     0.046 A 
HETATM   29  C   UNL     1      44.104 -19.271   2.524  1.00  0.00     0.030 A 
HETATM   30  C   UNL     1      43.644 -18.949   1.244  1.00  0.00     0.002 A 
HETATM   31  C   UNL     1      43.047 -17.721   0.987  1.00  0.00     0.001 A 
HETATM   32  C   UNL     1      42.893 -16.780   2.010  1.00  0.00     0.014 A 
HETATM   33  C   UNL     1      43.699 -15.423   7.155  1.00  0.00     0.032 A 
BRANCH  26  34
HETATM   34  C   UNL     1      44.913 -19.487   5.545  1.00  0.00     0.125 C 
HETATM   35  C   UNL     1      43.888 -20.425   6.158  1.00  0.00     0.027 C 
ENDBRANCH  26  34
ENDBRANCH   1  21
TORSDOF 4
ENDMDL
MODEL 5
REMARK VINA RESULT:      -9.7      5.894      9.231
REMARK  4 active torsions:
REMARK  status: ('A' for Active; 'I' for Inactive)
REMARK    1  A    between atoms: C_2  and  N_3 
REMARK    2  A    between atoms: C_7  and  N_8 
REMARK       I    between atoms: N_8  and  C_9 
REMARK    3  A    between atoms: C_9  and  C_10 
REMARK    4  A    between atoms: C_10  and  N_11 
ROOT
HETATM    1  N   UNL     1      42.318 -15.044   2.925  1.00  0.00    -0.326 N 
HETATM    2  C   UNL     1      42.882 -13.784   2.930  1.00  0.00     0.242 C 
HETATM    3  O   UNL     1      43.913 -13.457   3.516  1.00  0.00    -0.271 OA
HETATM    4  H   UNL     1      41.447 -15.110   2.400  1.00  0.00     0.169 HD
ENDROOT
BRANCH   2   5
HETATM    5  C   UNL     1      42.033 -12.709   2.245  1.00  0.00     0.257 C 
BRANCH   5   6
HETATM    6  N   UNL     1      41.482 -13.005   0.920  1.00  0.00    -0.224 N 
HETATM    7  N   UNL     1      42.278 -13.794   0.055  1.00  0.00    -0.180 NA
HETATM    8  C   UNL     1      41.754 -14.293  -1.030  1.00  0.00     0.153 A 
HETATM    9  C   UNL     1      40.374 -14.073  -1.355  1.00  0.00     0.028 A 
HETATM   10  C   UNL     1      39.617 -13.295  -0.518  1.00  0.00     0.116 A 
HETATM   11  C   UNL     1      39.535 -14.539  -2.400  1.00  0.00     0.005 A 
HETATM   12  N   UNL     1      38.343 -13.248  -1.008  1.00  0.00    -0.350 N 
HETATM   13  C   UNL     1      40.120 -12.705   0.686  1.00  0.00     0.291 A 
HETATM   14  H   UNL     1      37.575 -12.754  -0.573  1.00  0.00     0.166 HD
HETATM   15  C   UNL     1      38.260 -14.017  -2.150  1.00  0.00     0.044 A 
HETATM   16  C   UNL     1      37.158 -14.297  -2.967  1.00  0.00     0.030 A 
HETATM   17  C   UNL     1      37.363 -15.130  -4.069  1.00  0.00     0.002 A 
HETATM   18  C   UNL     1      38.621 -15.659  -4.347  1.00  0.00     0.001 A 
HETATM   19  C   UNL     1      39.716 -15.371  -3.522  1.00  0.00     0.014 A 
HETATM   20  O   UNL     1      39.411 -12.046   1.438  1.00  0.00    -0.264 OA
ENDBRANCH   5   6
ENDBRANCH   2   5
BRANCH   1  21
HETATM   21  C   UNL     1      42.773 -16.203   3.588  1.00  0.00     0.035 A 
HETATM   22  C   UNL     1      43.034 -17.414   2.938  1.00  0.00     0.044 A 
HETATM   23  C   UNL     1      43.515 -18.529   3.664  1.00  0.00     0.005 A 
HETATM   24  C   UNL     1      43.706 -18.410   5.040  1.00  0.00     0.046 A 
HETATM   25  C   UNL     1      43.891 -19.854   3.284  1.00  0.00     0.003 A 
HETATM   26  N   UNL     1      44.156 -19.637   5.490  1.00  0.00    -0.346 N 
HETATM   27  C   UNL     1      43.453 -17.204   5.713  1.00  0.00     0.033 A 
HETATM   28  C   UNL     1      44.292 -20.527   4.440  1.00  0.00     0.046 A 
HETATM   29  C   UNL     1      44.733 -21.862   4.404  1.00  0.00     0.030 A 
HETATM   30  C   UNL     1      44.765 -22.515   3.168  1.00  0.00     0.002 A 
HETATM   31  C   UNL     1      44.370 -21.864   2.005  1.00  0.00     0.001 A 
HETATM   32  C   UNL     1      43.931 -20.537   2.050  1.00  0.00     0.014 A 
HETATM   33  C   UNL     1      42.991 -16.111   4.965  1.00  0.00     0.032 A 
BRANCH  26  34
HETATM   34  C   UNL     1      44.433 -19.963   6.880  1.00  0.00     0.125 C 
HETATM   35  C   UNL     1      43.462 -20.986   7.442  1.00  0.00     0.027 C 
ENDBRANCH  26  34
ENDBRANCH   1  21
TORSDOF 4
ENDMDL
MODEL 6
REMARK VINA RESULT:      -9.6      6.684      9.762
REMARK  4 active torsions:
REMARK  status: ('A' for Active; 'I' for Inactive)
REMARK    1  A    between atoms: C_2  and  N_3 
REMARK    2  A    between atoms: C_7  and  N_8 
REMARK       I    between atoms: N_8  and  C_9 
REMARK    3  A    between atoms: C_9  and  C_10 
REMARK    4  A    between atoms: C_10  and  N_11 
ROOT
HETATM    1  N   UNL     1      41.139 -15.402   1.178  1.00  0.00    -0.326 N 
HETATM    2  C   UNL     1      39.896 -14.857   1.429  1.00  0.00     0.242 C 
HETATM    3  O   UNL     1      39.252 -14.979   2.471  1.00  0.00    -0.271 OA
HETATM    4  H   UNL     1      41.498 -15.208   0.244  1.00  0.00     0.169 HD
ENDROOT
BRANCH   2   5
HETATM    5  C   UNL     1      39.251 -14.168   0.223  1.00  0.00     0.257 C 
BRANCH   5   6
HETATM    6  N   UNL     1      40.109 -13.372  -0.657  1.00  0.00    -0.224 N 
HETATM    7  N   UNL     1      40.651 -14.027  -1.789  1.00  0.00    -0.180 NA
HETATM    8  C   UNL     1      41.215 -13.326  -2.733  1.00  0.00     0.153 A 
HETATM    9  C   UNL     1      41.280 -11.895  -2.656  1.00  0.00     0.028 A 
HETATM   10  C   UNL     1      40.765 -11.273  -1.549  1.00  0.00     0.116 A 
HETATM   11  C   UNL     1      41.753 -10.893  -3.542  1.00  0.00     0.005 A 
HETATM   12  N   UNL     1      40.912  -9.924  -1.705  1.00  0.00    -0.350 N 
HETATM   13  C   UNL     1      40.138 -11.971  -0.467  1.00  0.00     0.291 A 
HETATM   14  H   UNL     1      40.600  -9.228  -1.040  1.00  0.00     0.166 HD
HETATM   15  C   UNL     1      41.496  -9.662  -2.927  1.00  0.00     0.044 A 
HETATM   16  C   UNL     1      41.805  -8.438  -3.532  1.00  0.00     0.030 A 
HETATM   17  C   UNL     1      42.391  -8.471  -4.800  1.00  0.00     0.002 A 
HETATM   18  C   UNL     1      42.664  -9.681  -5.434  1.00  0.00     0.001 A 
HETATM   19  C   UNL     1      42.351 -10.899  -4.818  1.00  0.00     0.014 A 
HETATM   20  O   UNL     1      39.651 -11.386   0.494  1.00  0.00    -0.264 OA
ENDBRANCH   5   6
ENDBRANCH   2   5
BRANCH   1  21
HETATM   21  C   UNL     1      41.920 -16.214   2.025  1.00  0.00     0.035 A 
HETATM   22  C   UNL     1      42.204 -17.558   1.762  1.00  0.00     0.044 A 
HETATM   23  C   UNL     1      43.019 -18.306   2.644  1.00  0.00     0.005 A 
HETATM   24  C   UNL     1      43.518 -17.690   3.792  1.00  0.00     0.046 A 
HETATM   25  C   UNL     1      43.498 -19.652   2.629  1.00  0.00     0.003 A 
HETATM   26  N   UNL     1      44.253 -18.643   4.471  1.00  0.00    -0.346 N 
HETATM   27  C   UNL     1      43.247 -16.342   4.075  1.00  0.00     0.033 A 
HETATM   28  C   UNL     1      44.270 -19.839   3.777  1.00  0.00     0.046 A 
HETATM   29  C   UNL     1      44.896 -21.067   4.056  1.00  0.00     0.030 A 
HETATM   30  C   UNL     1      44.730 -22.116   3.147  1.00  0.00     0.002 A 
HETATM   31  C   UNL     1      43.965 -21.952   1.998  1.00  0.00     0.001 A 
HETATM   32  C   UNL     1      43.344 -20.728   1.729  1.00  0.00     0.014 A 
HETATM   33  C   UNL     1      42.449 -15.622   3.175  1.00  0.00     0.032 A 
BRANCH  26  34
HETATM   34  C   UNL     1      44.909 -18.431   5.752  1.00  0.00     0.125 C 
HETATM   35  C   UNL     1      44.011 -18.774   6.928  1.00  0.00     0.027 C 
ENDBRANCH  26  34
ENDBRANCH   1  21
TORSDOF 4
ENDMDL
MODEL 7
REMARK VINA RESULT:      -9.5      3.450      4.678
REMARK  4 active torsions:
REMARK  status: ('A' for Active; 'I' for Inactive)
REMARK    1  A    between atoms: C_2  and  N_3 
REMARK    2  A    between atoms: C_7  and  N_8 
REMARK       I    between atoms: N_8  and  C_9 
REMARK    3  A    between atoms: C_9  and  C_10 
REMARK    4  A    between atoms: C_10  and  N_11 
ROOT
HETATM    1  N   UNL     1      42.344 -14.972   2.554  1.00  0.00    -0.326 N 
HETATM    2  C   UNL     1      42.931 -13.764   2.875  1.00  0.00     0.242 C 
HETATM    3  O   UNL     1      44.050 -13.613   3.363  1.00  0.00    -0.271 OA
HETATM    4  H   UNL     1      41.399 -14.891   2.182  1.00  0.00     0.169 HD
ENDROOT
BRANCH   2   5
HETATM    5  C   UNL     1      42.009 -12.552   2.718  1.00  0.00     0.257 C 
BRANCH   5   6
HETATM    6  N   UNL     1      41.177 -12.164   3.860  1.00  0.00    -0.224 N 
HETATM    7  N   UNL     1      41.033 -13.113   4.900  1.00  0.00    -0.180 NA
HETATM    8  C   UNL     1      40.516 -12.749   6.041  1.00  0.00     0.153 A 
HETATM    9  C   UNL     1      40.107 -11.393   6.269  1.00  0.00     0.028 A 
HETATM   10  C   UNL     1      40.237 -10.486   5.250  1.00  0.00     0.116 A 
HETATM   11  C   UNL     1      39.595 -10.709   7.402  1.00  0.00     0.005 A 
HETATM   12  N   UNL     1      39.815  -9.268   5.699  1.00  0.00    -0.350 N 
HETATM   13  C   UNL     1      40.787 -10.810   3.967  1.00  0.00     0.291 A 
HETATM   14  H   UNL     1      39.820  -8.417   5.153  1.00  0.00     0.166 HD
HETATM   15  C   UNL     1      39.434  -9.371   7.021  1.00  0.00     0.044 A 
HETATM   16  C   UNL     1      38.973  -8.387   7.904  1.00  0.00     0.030 A 
HETATM   17  C   UNL     1      38.668  -8.778   9.210  1.00  0.00     0.002 A 
HETATM   18  C   UNL     1      38.813 -10.103   9.616  1.00  0.00     0.001 A 
HETATM   19  C   UNL     1      39.274 -11.079   8.723  1.00  0.00     0.014 A 
HETATM   20  O   UNL     1      40.929  -9.970   3.086  1.00  0.00    -0.264 OA
ENDBRANCH   5   6
ENDBRANCH   2   5
BRANCH   1  21
HETATM   21  C   UNL     1      42.873 -16.268   2.726  1.00  0.00     0.035 A 
HETATM   22  C   UNL     1      42.961 -16.909   3.966  1.00  0.00     0.044 A 
HETATM   23  C   UNL     1      43.478 -18.222   4.060  1.00  0.00     0.005 A 
HETATM   24  C   UNL     1      43.917 -18.862   2.902  1.00  0.00     0.046 A 
HETATM   25  C   UNL     1      43.660 -19.126   5.153  1.00  0.00     0.003 A 
HETATM   26  N   UNL     1      44.384 -20.106   3.283  1.00  0.00    -0.346 N 
HETATM   27  C   UNL     1      43.837 -18.239   1.646  1.00  0.00     0.033 A 
HETATM   28  C   UNL     1      44.223 -20.297   4.643  1.00  0.00     0.046 A 
HETATM   29  C   UNL     1      44.523 -21.395   5.469  1.00  0.00     0.030 A 
HETATM   30  C   UNL     1      44.239 -21.292   6.834  1.00  0.00     0.002 A 
HETATM   31  C   UNL     1      43.679 -20.135   7.363  1.00  0.00     0.001 A 
HETATM   32  C   UNL     1      43.387 -19.047   6.534  1.00  0.00     0.014 A 
HETATM   33  C   UNL     1      43.306 -16.942   1.581  1.00  0.00     0.032 A 
BRANCH  26  34
HETATM   34  C   UNL     1      44.980 -21.082   2.383  1.00  0.00     0.125 C 
HETATM   35  C   UNL     1      43.938 -21.888   1.629  1.00  0.00     0.027 C 
ENDBRANCH  26  34
ENDBRANCH   1  21
TORSDOF 4
ENDMDL
MODEL 8
REMARK VINA RESULT:      -9.4      6.454      9.598
REMARK  4 active torsions:
REMARK  status: ('A' for Active; 'I' for Inactive)
REMARK    1  A    between atoms: C_2  and  N_3 
REMARK    2  A    between atoms: C_7  and  N_8 
REMARK       I    between atoms: N_8  and  C_9 
REMARK    3  A    between atoms: C_9  and  C_10 
REMARK    4  A    between atoms: C_10  and  N_11 
ROOT
HETATM    1  N   UNL     1      42.167 -14.891   1.442  1.00  0.00    -0.326 N 
HETATM    2  C   UNL     1      42.410 -13.610   1.897  1.00  0.00     0.242 C 
HETATM    3  O   UNL     1      43.170 -13.304   2.816  1.00  0.00    -0.271 OA
HETATM    4  H   UNL     1      41.485 -14.943   0.687  1.00  0.00     0.169 HD
ENDROOT
BRANCH   2   5
HETATM    5  C   UNL     1      41.527 -12.534   1.260  1.00  0.00     0.257 C 
BRANCH   5   6
HETATM    6  N   UNL     1      41.992 -11.903   0.023  1.00  0.00    -0.224 N 
HETATM    7  N   UNL     1      42.214 -12.753  -1.087  1.00  0.00    -0.180 NA
HETATM    8  C   UNL     1      42.390 -12.236  -2.271  1.00  0.00     0.153 A 
HETATM    9  C   UNL     1      42.342 -10.818  -2.475  1.00  0.00     0.028 A 
HETATM   10  C   UNL     1      42.141 -10.004  -1.392  1.00  0.00     0.116 A 
HETATM   11  C   UNL     1      42.422  -9.997  -3.631  1.00  0.00     0.005 A 
HETATM   12  N   UNL     1      42.106  -8.709  -1.824  1.00  0.00    -0.350 N 
HETATM   13  C   UNL     1      41.948 -10.492  -0.059  1.00  0.00     0.291 A 
HETATM   14  H   UNL     1      41.953  -7.904  -1.230  1.00  0.00     0.166 HD
HETATM   15  C   UNL     1      42.256  -8.677  -3.196  1.00  0.00     0.044 A 
HETATM   16  C   UNL     1      42.246  -7.589  -4.076  1.00  0.00     0.030 A 
HETATM   17  C   UNL     1      42.411  -7.855  -5.438  1.00  0.00     0.002 A 
HETATM   18  C   UNL     1      42.585  -9.158  -5.900  1.00  0.00     0.001 A 
HETATM   19  C   UNL     1      42.594 -10.238  -5.008  1.00  0.00     0.014 A 
HETATM   20  O   UNL     1      41.731  -9.744   0.887  1.00  0.00    -0.264 OA
ENDBRANCH   5   6
ENDBRANCH   2   5
BRANCH   1  21
HETATM   21  C   UNL     1      42.703 -16.102   1.926  1.00  0.00     0.035 A 
HETATM   22  C   UNL     1      42.751 -16.440   3.282  1.00  0.00     0.044 A 
HETATM   23  C   UNL     1      43.280 -17.686   3.694  1.00  0.00     0.005 A 
HETATM   24  C   UNL     1      43.770 -18.566   2.729  1.00  0.00     0.046 A 
HETATM   25  C   UNL     1      43.431 -18.311   4.970  1.00  0.00     0.003 A 
HETATM   26  N   UNL     1      44.236 -19.679   3.402  1.00  0.00    -0.346 N 
HETATM   27  C   UNL     1      43.730 -18.249   1.362  1.00  0.00     0.033 A 
HETATM   28  C   UNL     1      44.026 -19.557   4.763  1.00  0.00     0.046 A 
HETATM   29  C   UNL     1      44.306 -20.430   5.829  1.00  0.00     0.030 A 
HETATM   30  C   UNL     1      43.970 -20.021   7.124  1.00  0.00     0.002 A 
HETATM   31  C   UNL     1      43.377 -18.785   7.353  1.00  0.00     0.001 A 
HETATM   32  C   UNL     1      43.105 -17.923   6.287  1.00  0.00     0.014 A 
HETATM   33  C   UNL     1      43.188 -17.012   0.983  1.00  0.00     0.032 A 
BRANCH  26  34
HETATM   34  C   UNL     1      44.877 -20.824   2.772  1.00  0.00     0.125 C 
HETATM   35  C   UNL     1      43.888 -21.711   2.037  1.00  0.00     0.027 C 
ENDBRANCH  26  34
ENDBRANCH   1  21
TORSDOF 4
ENDMDL
MODEL 9
REMARK VINA RESULT:      -9.3      5.958      9.924
REMARK  4 active torsions:
REMARK  status: ('A' for Active; 'I' for Inactive)
REMARK    1  A    between atoms: C_2  and  N_3 
REMARK    2  A    between atoms: C_7  and  N_8 
REMARK       I    between atoms: N_8  and  C_9 
REMARK    3  A    between atoms: C_9  and  C_10 
REMARK    4  A    between atoms: C_10  and  N_11 
ROOT
HETATM    1  N   UNL     1      41.075 -14.408   2.378  1.00  0.00    -0.326 N 
HETATM    2  C   UNL     1      41.494 -13.245   1.762  1.00  0.00     0.242 C 
HETATM    3  O   UNL     1      42.660 -12.864   1.658  1.00  0.00    -0.271 OA
HETATM    4  H   UNL     1      40.064 -14.536   2.384  1.00  0.00     0.169 HD
ENDROOT
BRANCH   2   5
HETATM    5  C   UNL     1      40.358 -12.324   1.311  1.00  0.00     0.257 C 
BRANCH   5   6
HETATM    6  N   UNL     1      39.760 -12.558  -0.005  1.00  0.00    -0.224 N 
HETATM    7  N   UNL     1      39.892 -13.859  -0.548  1.00  0.00    -0.180 NA
HETATM    8  C   UNL     1      39.183 -14.200  -1.588  1.00  0.00     0.153 A 
HETATM    9  C   UNL     1      38.255 -13.284  -2.185  1.00  0.00     0.028 A 
HETATM   10  C   UNL     1      38.146 -12.023  -1.660  1.00  0.00     0.116 A 
HETATM   11  C   UNL     1      37.322 -13.399  -3.248  1.00  0.00     0.005 A 
HETATM   12  N   UNL     1      37.192 -11.344  -2.363  1.00  0.00    -0.350 N 
HETATM   13  C   UNL     1      38.894 -11.569  -0.526  1.00  0.00     0.291 A 
HETATM   14  H   UNL     1      36.901 -10.394  -2.173  1.00  0.00     0.166 HD
HETATM   15  C   UNL     1      36.656 -12.170  -3.330  1.00  0.00     0.044 A 
HETATM   16  C   UNL     1      35.634 -11.926  -4.255  1.00  0.00     0.030 A 
HETATM   17  C   UNL     1      35.282 -12.965  -5.120  1.00  0.00     0.002 A 
HETATM   18  C   UNL     1      35.930 -14.197  -5.066  1.00  0.00     0.001 A 
HETATM   19  C   UNL     1      36.952 -14.428  -4.137  1.00  0.00     0.014 A 
HETATM   20  O   UNL     1      38.748 -10.448  -0.052  1.00  0.00    -0.264 OA
ENDBRANCH   5   6
ENDBRANCH   2   5
BRANCH   1  21
HETATM   21  C   UNL     1      41.863 -15.382   3.025  1.00  0.00     0.035 A 
HETATM   22  C   UNL     1      42.094 -16.660   2.505  1.00  0.00     0.044 A 
HETATM   23  C   UNL     1      42.918 -17.578   3.198  1.00  0.00     0.005 A 
HETATM   24  C   UNL     1      43.482 -17.198   4.415  1.00  0.00     0.046 A 
HETATM   25  C   UNL     1      43.353 -18.910   2.912  1.00  0.00     0.003 A 
HETATM   26  N   UNL     1      44.212 -18.279   4.873  1.00  0.00    -0.346 N 
HETATM   27  C   UNL     1      43.266 -15.921   4.955  1.00  0.00     0.033 A 
HETATM   28  C   UNL     1      44.164 -19.325   3.970  1.00  0.00     0.046 A 
HETATM   29  C   UNL     1      44.760 -20.598   3.990  1.00  0.00     0.030 A 
HETATM   30  C   UNL     1      44.525 -21.455   2.910  1.00  0.00     0.002 A 
HETATM   31  C   UNL     1      43.721 -21.062   1.847  1.00  0.00     0.001 A 
HETATM   32  C   UNL     1      43.130 -19.795   1.837  1.00  0.00     0.014 A 
HETATM   33  C   UNL     1      42.456 -15.026   4.240  1.00  0.00     0.032 A 
BRANCH  26  34
HETATM   34  C   UNL     1      44.925 -18.324   6.141  1.00  0.00     0.125 C 
HETATM   35  C   UNL     1      44.052 -18.819   7.280  1.00  0.00     0.027 C 
ENDBRANCH  26  34
ENDBRANCH   1  21
TORSDOF 4
ENDMDL
MODEL 10
REMARK VINA RESULT:      -9.3      6.205      8.966
REMARK  4 active torsions:
REMARK  status: ('A' for Active; 'I' for Inactive)
REMARK    1  A    between atoms: C_2  and  N_3 
REMARK    2  A    between atoms: C_7  and  N_8 
REMARK       I    between atoms: N_8  and  C_9 
REMARK    3  A    between atoms: C_9  and  C_10 
REMARK    4  A    between atoms: C_10  and  N_11 
ROOT
HETATM    1  N   UNL     1      42.509 -14.949   2.232  1.00  0.00    -0.326 N 
HETATM    2  C   UNL     1      42.982 -13.747   2.719  1.00  0.00     0.242 C 
HETATM    3  O   UNL     1      43.948 -13.603   3.469  1.00  0.00    -0.271 OA
HETATM    4  H   UNL     1      41.681 -14.863   1.644  1.00  0.00     0.169 HD
ENDROOT
BRANCH   2   5
HETATM    5  C   UNL     1      42.109 -12.537   2.377  1.00  0.00     0.257 C 
BRANCH   5   6
HETATM    6  N   UNL     1      41.263 -12.611   1.183  1.00  0.00    -0.224 N 
HETATM    7  N   UNL     1      39.944 -13.092   1.361  1.00  0.00    -0.180 NA
HETATM    8  C   UNL     1      39.072 -12.956   0.401  1.00  0.00     0.153 A 
HETATM    9  C   UNL     1      39.420 -12.308  -0.830  1.00  0.00     0.028 A 
HETATM   10  C   UNL     1      40.704 -11.859  -0.997  1.00  0.00     0.116 A 
HETATM   11  C   UNL     1      38.680 -11.960  -1.990  1.00  0.00     0.005 A 
HETATM   12  N   UNL     1      40.796 -11.258  -2.219  1.00  0.00    -0.350 N 
HETATM   13  C   UNL     1      41.721 -11.978   0.005  1.00  0.00     0.291 A 
HETATM   14  H   UNL     1      41.632 -10.825  -2.589  1.00  0.00     0.166 HD
HETATM   15  C   UNL     1      39.565 -11.288  -2.842  1.00  0.00     0.044 A 
HETATM   16  C   UNL     1      39.170 -10.766  -4.079  1.00  0.00     0.030 A 
HETATM   17  C   UNL     1      37.836 -10.935  -4.458  1.00  0.00     0.002 A 
HETATM   18  C   UNL     1      36.933 -11.604  -3.634  1.00  0.00     0.001 A 
HETATM   19  C   UNL     1      37.341 -12.123  -2.398  1.00  0.00     0.014 A 
HETATM   20  O   UNL     1      42.852 -11.533  -0.155  1.00  0.00    -0.264 OA
ENDBRANCH   5   6
ENDBRANCH   2   5
BRANCH   1  21
HETATM   21  C   UNL     1      42.997 -16.246   2.491  1.00  0.00     0.035 A 
HETATM   22  C   UNL     1      43.042 -16.815   3.768  1.00  0.00     0.044 A 
HETATM   23  C   UNL     1      43.521 -18.133   3.950  1.00  0.00     0.005 A 
HETATM   24  C   UNL     1      43.967 -18.851   2.841  1.00  0.00     0.046 A 
HETATM   25  C   UNL     1      43.655 -18.976   5.097  1.00  0.00     0.003 A 
HETATM   26  N   UNL     1      44.391 -20.082   3.305  1.00  0.00    -0.346 N 
HETATM   27  C   UNL     1      43.930 -18.301   1.550  1.00  0.00     0.033 A 
HETATM   28  C   UNL     1      44.196 -20.189   4.670  1.00  0.00     0.046 A 
HETATM   29  C   UNL     1      44.448 -21.244   5.565  1.00  0.00     0.030 A 
HETATM   30  C   UNL     1      44.139 -21.053   6.915  1.00  0.00     0.002 A 
HETATM   31  C   UNL     1      43.600 -19.853   7.362  1.00  0.00     0.001 A 
HETATM   32  C   UNL     1      43.355 -18.808   6.466  1.00  0.00     0.014 A 
HETATM   33  C   UNL     1      43.436 -16.997   1.398  1.00  0.00     0.032 A 
BRANCH  26  34
HETATM   34  C   UNL     1      44.979 -21.125   2.477  1.00  0.00     0.125 C 
HETATM   35  C   UNL     1      43.937 -21.887   1.677  1.00  0.00     0.027 C 
ENDBRANCH  26  34
ENDBRANCH   1  21
TORSDOF 4
ENDMDL
