MODEL 1
REMARK VINA RESULT:      -8.8      0.000      0.000
REMARK  9 active torsions:
REMARK  status: ('A' for Active; 'I' for Inactive)
REMARK    1  A    between atoms: C_3  and  N_4 
REMARK    2  A    between atoms: N_4  and  S_5 
REMARK    3  A    between atoms: S_5  and  C_6 
REMARK    4  A    between atoms: C_12  and  C_13 
REMARK       I    between atoms: C_13  and  N_14 
REMARK    5  A    between atoms: N_14  and  C_15 
REMARK    6  A    between atoms: C_15  and  C_16 
REMARK    7  A    between atoms: C_16  and  C_17 
REMARK    8  A    between atoms: C_17  and  O_18 
REMARK    9  A    between atoms: O_18  and  C_19 
ROOT
HETATM    1  C   UNL     1      43.131 -17.818   5.878  1.00  0.00     0.081 A 
HETATM    2  C   UNL     1      43.295 -16.450   6.112  1.00  0.00     0.043 A 
HETATM    3  C   UNL     1      42.251 -15.578   5.792  1.00  0.00     0.043 A 
HETATM    4  C   UNL     1      41.036 -16.062   5.276  1.00  0.00     0.046 A 
HETATM    5  N   UNL     1      40.016 -15.163   4.948  1.00  0.00    -0.364 N 
HETATM    6  C   UNL     1      40.181 -13.813   5.121  1.00  0.00     0.109 A 
HETATM    7  C   UNL     1      41.290 -13.219   5.594  1.00  0.00     0.098 A 
HETATM    8  C   UNL     1      42.422 -14.112   5.975  1.00  0.00     0.201 A 
HETATM    9  O   UNL     1      43.483 -13.665   6.407  1.00  0.00    -0.286 OA
HETATM   10  C   UNL     1      40.886 -17.436   5.064  1.00  0.00     0.032 A 
HETATM   11  C   UNL     1      41.929 -18.317   5.367  1.00  0.00     0.027 A 
HETATM   12  H   UNL     1      39.117 -15.509   4.633  1.00  0.00     0.165 HD
ENDROOT
BRANCH   1  13
HETATM   13  S   UNL     1      44.457 -18.928   6.292  1.00  0.00     0.263 S 
HETATM   14  O   UNL     1      43.873 -20.185   6.710  1.00  0.00    -0.200 OA
HETATM   15  O   UNL     1      45.364 -18.201   7.157  1.00  0.00    -0.200 OA
BRANCH  13  16
HETATM   16  N   UNL     1      45.255 -19.125   4.827  1.00  0.00    -0.280 N 
HETATM   17  H   UNL     1      45.746 -18.292   4.508  1.00  0.00     0.179 HD
BRANCH  16  18
HETATM   18  C   UNL     1      44.789 -20.065   3.868  1.00  0.00     0.048 A 
HETATM   19  C   UNL     1      44.199 -19.651   2.664  1.00  0.00    -0.035 A 
HETATM   20  C   UNL     1      43.961 -18.211   2.308  1.00  0.00     0.050 C 
HETATM   21  C   UNL     1      43.744 -20.634   1.765  1.00  0.00     0.009 A 
HETATM   22  C   UNL     1      43.899 -21.992   2.046  1.00  0.00     0.001 A 
HETATM   23  C   UNL     1      44.498 -22.390   3.236  1.00  0.00     0.002 A 
HETATM   24  C   UNL     1      44.937 -21.429   4.146  1.00  0.00     0.030 A 
ENDBRANCH  16  18
ENDBRANCH  13  16
ENDBRANCH   1  13
BRANCH   7  25
HETATM   25  C   UNL     1      41.327 -11.729   5.663  1.00  0.00     0.257 C 
HETATM   26  N   UNL     1      41.540 -11.204   6.911  1.00  0.00    -0.357 N 
HETATM   27  H   UNL     1      41.632 -11.848   7.699  1.00  0.00     0.162 HD
HETATM   28  O   UNL     1      41.202 -11.035   4.657  1.00  0.00    -0.267 OA
BRANCH  26  29
HETATM   29  C   UNL     1      41.731  -9.790   7.144  1.00  0.00     0.125 C 
BRANCH  29  30
HETATM   30  C   UNL     1      41.611  -9.414   8.615  1.00  0.00     0.046 C 
BRANCH  30  31
HETATM   31  C   UNL     1      42.323 -10.440   9.490  1.00  0.00     0.169 C 
BRANCH  31  32
HETATM   32  O   UNL     1      43.674 -10.562   9.051  1.00  0.00    -0.387 OA
BRANCH  32  33
HETATM   33  C   UNL     1      44.251 -11.845   9.317  1.00  0.00     0.113 C 
HETATM   34  C   UNL     1      45.717 -11.895   8.891  1.00  0.00     0.039 C 
HETATM   35  C   UNL     1      44.132 -12.088  10.817  1.00  0.00     0.039 C 
ENDBRANCH  32  33
ENDBRANCH  31  32
ENDBRANCH  30  31
ENDBRANCH  29  30
ENDBRANCH  26  29
ENDBRANCH   7  25
TORSDOF 9
ENDMDL
MODEL 2
REMARK VINA RESULT:      -8.3      4.572      6.816
REMARK  9 active torsions:
REMARK  status: ('A' for Active; 'I' for Inactive)
REMARK    1  A    between atoms: C_3  and  N_4 
REMARK    2  A    between atoms: N_4  and  S_5 
REMARK    3  A    between atoms: S_5  and  C_6 
REMARK    4  A    between atoms: C_12  and  C_13 
REMARK       I    between atoms: C_13  and  N_14 
REMARK    5  A    between atoms: N_14  and  C_15 
REMARK    6  A    between atoms: C_15  and  C_16 
REMARK    7  A    between atoms: C_16  and  C_17 
REMARK    8  A    between atoms: C_17  and  O_18 
REMARK    9  A    between atoms: O_18  and  C_19 
ROOT
HETATM    1  C   UNL     1      42.817 -16.165   4.167  1.00  0.00     0.081 A 
HETATM    2  C   UNL     1      42.520 -16.251   2.804  1.00  0.00     0.043 A 
HETATM    3  C   UNL     1      42.363 -15.073   2.069  1.00  0.00     0.043 A 
HETATM    4  C   UNL     1      42.532 -13.815   2.673  1.00  0.00     0.046 A 
HETATM    5  N   UNL     1      42.350 -12.654   1.916  1.00  0.00    -0.364 N 
HETATM    6  C   UNL     1      42.007 -12.720   0.590  1.00  0.00     0.109 A 
HETATM    7  C   UNL     1      41.805 -13.853  -0.105  1.00  0.00     0.098 A 
HETATM    8  C   UNL     1      41.989 -15.136   0.631  1.00  0.00     0.201 A 
HETATM    9  O   UNL     1      41.817 -16.226   0.087  1.00  0.00    -0.286 OA
HETATM   10  C   UNL     1      42.844 -13.750   4.035  1.00  0.00     0.032 A 
HETATM   11  C   UNL     1      42.990 -14.922   4.784  1.00  0.00     0.027 A 
HETATM   12  H   UNL     1      42.530 -11.745   2.329  1.00  0.00     0.165 HD
ENDROOT
BRANCH   1  13
HETATM   13  S   UNL     1      43.024 -17.664   5.101  1.00  0.00     0.263 S 
HETATM   14  O   UNL     1      41.869 -18.503   4.862  1.00  0.00    -0.200 OA
HETATM   15  O   UNL     1      43.402 -17.278   6.444  1.00  0.00    -0.200 OA
BRANCH  13  16
HETATM   16  N   UNL     1      44.389 -18.355   4.405  1.00  0.00    -0.280 N 
HETATM   17  H   UNL     1      44.921 -17.718   3.817  1.00  0.00     0.179 HD
BRANCH  16  18
HETATM   18  C   UNL     1      44.439 -19.752   4.140  1.00  0.00     0.048 A 
HETATM   19  C   UNL     1      44.172 -20.263   2.861  1.00  0.00    -0.035 A 
HETATM   20  C   UNL     1      43.764 -19.409   1.693  1.00  0.00     0.050 C 
HETATM   21  C   UNL     1      44.223 -21.656   2.670  1.00  0.00     0.009 A 
HETATM   22  C   UNL     1      44.559 -22.514   3.718  1.00  0.00     0.001 A 
HETATM   23  C   UNL     1      44.836 -21.994   4.978  1.00  0.00     0.002 A 
HETATM   24  C   UNL     1      44.770 -20.617   5.188  1.00  0.00     0.030 A 
ENDBRANCH  16  18
ENDBRANCH  13  16
ENDBRANCH   1  13
BRANCH   7  25
HETATM   25  C   UNL     1      41.376 -13.748  -1.530  1.00  0.00     0.257 C 
HETATM   26  N   UNL     1      40.480 -14.700  -1.945  1.00  0.00    -0.357 N 
HETATM   27  H   UNL     1      40.191 -15.418  -1.278  1.00  0.00     0.162 HD
HETATM   28  O   UNL     1      41.782 -12.848  -2.261  1.00  0.00    -0.267 OA
BRANCH  26  29
HETATM   29  C   UNL     1      39.862 -14.676  -3.251  1.00  0.00     0.125 C 
BRANCH  29  30
HETATM   30  C   UNL     1      38.349 -14.511  -3.184  1.00  0.00     0.046 C 
BRANCH  30  31
HETATM   31  C   UNL     1      37.972 -13.446  -2.159  1.00  0.00     0.169 C 
BRANCH  31  32
HETATM   32  O   UNL     1      37.751 -14.076  -0.899  1.00  0.00    -0.387 OA
BRANCH  32  33
HETATM   33  C   UNL     1      38.070 -13.246   0.222  1.00  0.00     0.113 C 
HETATM   34  C   UNL     1      36.890 -12.359   0.612  1.00  0.00     0.039 C 
HETATM   35  C   UNL     1      38.432 -14.173   1.377  1.00  0.00     0.039 C 
ENDBRANCH  32  33
ENDBRANCH  31  32
ENDBRANCH  30  31
ENDBRANCH  29  30
ENDBRANCH  26  29
ENDBRANCH   7  25
TORSDOF 9
ENDMDL
MODEL 3
REMARK VINA RESULT:      -8.3      3.232      4.983
REMARK  9 active torsions:
REMARK  status: ('A' for Active; 'I' for Inactive)
REMARK    1  A    between atoms: C_3  and  N_4 
REMARK    2  A    between atoms: N_4  and  S_5 
REMARK    3  A    between atoms: S_5  and  C_6 
REMARK    4  A    between atoms: C_12  and  C_13 
REMARK       I    between atoms: C_13  and  N_14 
REMARK    5  A    between atoms: N_14  and  C_15 
REMARK    6  A    between atoms: C_15  and  C_16 
REMARK    7  A    between atoms: C_16  and  C_17 
REMARK    8  A    between atoms: C_17  and  O_18 
REMARK    9  A    between atoms: O_18  and  C_19 
ROOT
HETATM    1  C   UNL     1      42.875 -17.429   5.865  1.00  0.00     0.081 A 
HETATM    2  C   UNL     1      43.132 -16.323   5.050  1.00  0.00     0.043 A 
HETATM    3  C   UNL     1      42.105 -15.408   4.807  1.00  0.00     0.043 A 
HETATM    4  C   UNL     1      40.838 -15.568   5.395  1.00  0.00     0.046 A 
HETATM    5  N   UNL     1      39.825 -14.645   5.118  1.00  0.00    -0.364 N 
HETATM    6  C   UNL     1      40.045 -13.583   4.278  1.00  0.00     0.109 A 
HETATM    7  C   UNL     1      41.201 -13.320   3.644  1.00  0.00     0.098 A 
HETATM    8  C   UNL     1      42.335 -14.254   3.895  1.00  0.00     0.201 A 
HETATM    9  O   UNL     1      43.429 -14.106   3.355  1.00  0.00    -0.286 OA
HETATM   10  C   UNL     1      40.605 -16.673   6.220  1.00  0.00     0.032 A 
HETATM   11  C   UNL     1      41.621 -17.604   6.459  1.00  0.00     0.027 A 
HETATM   12  H   UNL     1      38.928 -14.720   5.586  1.00  0.00     0.165 HD
ENDROOT
BRANCH   1  13
HETATM   13  S   UNL     1      44.184 -18.590   6.181  1.00  0.00     0.263 S 
HETATM   14  O   UNL     1      43.582 -19.845   6.579  1.00  0.00    -0.200 OA
HETATM   15  O   UNL     1      45.148 -17.921   7.030  1.00  0.00    -0.200 OA
BRANCH  13  16
HETATM   16  N   UNL     1      44.913 -18.755   4.676  1.00  0.00    -0.280 N 
HETATM   17  H   UNL     1      45.222 -17.876   4.267  1.00  0.00     0.179 HD
BRANCH  16  18
HETATM   18  C   UNL     1      44.570 -19.837   3.818  1.00  0.00     0.048 A 
HETATM   19  C   UNL     1      43.918 -19.621   2.594  1.00  0.00    -0.035 A 
HETATM   20  C   UNL     1      43.485 -18.266   2.111  1.00  0.00     0.050 C 
HETATM   21  C   UNL     1      43.593 -20.737   1.801  1.00  0.00     0.009 A 
HETATM   22  C   UNL     1      43.932 -22.029   2.203  1.00  0.00     0.001 A 
HETATM   23  C   UNL     1      44.590 -22.228   3.412  1.00  0.00     0.002 A 
HETATM   24  C   UNL     1      44.903 -21.135   4.219  1.00  0.00     0.030 A 
ENDBRANCH  16  18
ENDBRANCH  13  16
ENDBRANCH   1  13
BRANCH   7  25
HETATM   25  C   UNL     1      41.255 -12.154   2.715  1.00  0.00     0.257 C 
HETATM   26  N   UNL     1      42.095 -12.297   1.641  1.00  0.00    -0.357 N 
HETATM   27  H   UNL     1      42.638 -13.159   1.561  1.00  0.00     0.162 HD
HETATM   28  O   UNL     1      40.565 -11.153   2.896  1.00  0.00    -0.267 OA
BRANCH  26  29
HETATM   29  C   UNL     1      42.177 -11.324   0.576  1.00  0.00     0.125 C 
BRANCH  29  30
HETATM   30  C   UNL     1      42.515 -11.952  -0.770  1.00  0.00     0.046 C 
BRANCH  30  31
HETATM   31  C   UNL     1      41.485 -13.014  -1.140  1.00  0.00     0.169 C 
BRANCH  31  32
HETATM   32  O   UNL     1      41.788 -14.215  -0.435  1.00  0.00    -0.387 OA
BRANCH  32  33
HETATM   33  C   UNL     1      40.646 -15.044  -0.195  1.00  0.00     0.113 C 
HETATM   34  C   UNL     1      40.852 -15.936   1.026  1.00  0.00     0.039 C 
HETATM   35  C   UNL     1      39.458 -14.115   0.029  1.00  0.00     0.039 C 
ENDBRANCH  32  33
ENDBRANCH  31  32
ENDBRANCH  30  31
ENDBRANCH  29  30
ENDBRANCH  26  29
ENDBRANCH   7  25
TORSDOF 9
ENDMDL
MODEL 4
REMARK VINA RESULT:      -8.2      5.777      9.258
REMARK  9 active torsions:
REMARK  status: ('A' for Active; 'I' for Inactive)
REMARK    1  A    between atoms: C_3  and  N_4 
REMARK    2  A    between atoms: N_4  and  S_5 
REMARK    3  A    between atoms: S_5  and  C_6 
REMARK    4  A    between atoms: C_12  and  C_13 
REMARK       I    between atoms: C_13  and  N_14 
REMARK    5  A    between atoms: N_14  and  C_15 
REMARK    6  A    between atoms: C_15  and  C_16 
REMARK    7  A    between atoms: C_16  and  C_17 
REMARK    8  A    between atoms: C_17  and  O_18 
REMARK    9  A    between atoms: O_18  and  C_19 
ROOT
HETATM    1  C   UNL     1      40.653 -14.622  -0.980  1.00  0.00     0.081 A 
HETATM    2  C   UNL     1      41.601 -15.214  -0.142  1.00  0.00     0.043 A 
HETATM    3  C   UNL     1      41.323 -15.323   1.224  1.00  0.00     0.043 A 
HETATM    4  C   UNL     1      40.098 -14.878   1.751  1.00  0.00     0.046 A 
HETATM    5  N   UNL     1      39.856 -14.984   3.124  1.00  0.00    -0.364 N 
HETATM    6  C   UNL     1      40.798 -15.513   3.970  1.00  0.00     0.109 A 
HETATM    7  C   UNL     1      42.009 -15.965   3.600  1.00  0.00     0.098 A 
HETATM    8  C   UNL     1      42.339 -15.895   2.148  1.00  0.00     0.201 A 
HETATM    9  O   UNL     1      43.425 -16.271   1.711  1.00  0.00    -0.286 OA
HETATM   10  C   UNL     1      39.156 -14.303   0.893  1.00  0.00     0.032 A 
HETATM   11  C   UNL     1      39.429 -14.175  -0.473  1.00  0.00     0.027 A 
HETATM   12  H   UNL     1      38.953 -14.722   3.502  1.00  0.00     0.165 HD
ENDROOT
BRANCH   1  13
HETATM   13  S   UNL     1      41.003 -14.491  -2.719  1.00  0.00     0.263 S 
HETATM   14  O   UNL     1      39.950 -13.706  -3.329  1.00  0.00    -0.200 OA
HETATM   15  O   UNL     1      41.310 -15.825  -3.191  1.00  0.00    -0.200 OA
BRANCH  13  16
HETATM   16  N   UNL     1      42.448 -13.634  -2.749  1.00  0.00    -0.280 N 
HETATM   17  H   UNL     1      43.187 -14.050  -2.186  1.00  0.00     0.179 HD
BRANCH  16  18
HETATM   18  C   UNL     1      42.455 -12.230  -2.976  1.00  0.00     0.048 A 
HETATM   19  C   UNL     1      42.505 -11.317  -1.912  1.00  0.00    -0.035 A 
HETATM   20  C   UNL     1      42.502 -11.726  -0.465  1.00  0.00     0.050 C 
HETATM   21  C   UNL     1      42.492  -9.941  -2.205  1.00  0.00     0.009 A 
HETATM   22  C   UNL     1      42.459  -9.488  -3.524  1.00  0.00     0.001 A 
HETATM   23  C   UNL     1      42.424 -10.403  -4.571  1.00  0.00     0.002 A 
HETATM   24  C   UNL     1      42.416 -11.769  -4.296  1.00  0.00     0.030 A 
ENDBRANCH  16  18
ENDBRANCH  13  16
ENDBRANCH   1  13
BRANCH   7  25
HETATM   25  C   UNL     1      42.940 -16.456   4.657  1.00  0.00     0.257 C 
HETATM   26  N   UNL     1      43.369 -17.749   4.507  1.00  0.00    -0.357 N 
HETATM   27  H   UNL     1      43.014 -18.290   3.716  1.00  0.00     0.162 HD
HETATM   28  O   UNL     1      43.310 -15.731   5.577  1.00  0.00    -0.267 OA
BRANCH  26  29
HETATM   29  C   UNL     1      44.368 -18.347   5.363  1.00  0.00     0.125 C 
BRANCH  29  30
HETATM   30  C   UNL     1      44.062 -19.801   5.699  1.00  0.00     0.046 C 
BRANCH  30  31
HETATM   31  C   UNL     1      44.826 -20.738   4.769  1.00  0.00     0.169 C 
BRANCH  31  32
HETATM   32  O   UNL     1      45.049 -20.074   3.527  1.00  0.00    -0.387 OA
BRANCH  32  33
HETATM   33  C   UNL     1      44.593 -20.814   2.390  1.00  0.00     0.113 C 
HETATM   34  C   UNL     1      44.379 -22.286   2.733  1.00  0.00     0.039 C 
HETATM   35  C   UNL     1      43.278 -20.184   1.943  1.00  0.00     0.039 C 
ENDBRANCH  32  33
ENDBRANCH  31  32
ENDBRANCH  30  31
ENDBRANCH  29  30
ENDBRANCH  26  29
ENDBRANCH   7  25
TORSDOF 9
ENDMDL
MODEL 5
REMARK VINA RESULT:      -8.2      2.463      3.164
REMARK  9 active torsions:
REMARK  status: ('A' for Active; 'I' for Inactive)
REMARK    1  A    between atoms: C_3  and  N_4 
REMARK    2  A    between atoms: N_4  and  S_5 
REMARK    3  A    between atoms: S_5  and  C_6 
REMARK    4  A    between atoms: C_12  and  C_13 
REMARK       I    between atoms: C_13  and  N_14 
REMARK    5  A    between atoms: N_14  and  C_15 
REMARK    6  A    between atoms: C_15  and  C_16 
REMARK    7  A    between atoms: C_16  and  C_17 
REMARK    8  A    between atoms: C_17  and  O_18 
REMARK    9  A    between atoms: O_18  and  C_19 
ROOT
HETATM    1  C   UNL     1      41.916 -15.721   3.311  1.00  0.00     0.081 A 
HETATM    2  C   UNL     1      41.141 -15.193   4.348  1.00  0.00     0.043 A 
HETATM    3  C   UNL     1      41.199 -13.821   4.605  1.00  0.00     0.043 A 
HETATM    4  C   UNL     1      41.994 -12.970   3.818  1.00  0.00     0.046 A 
HETATM    5  N   UNL     1      42.046 -11.603   4.111  1.00  0.00    -0.364 N 
HETATM    6  C   UNL     1      41.334 -11.077   5.159  1.00  0.00     0.109 A 
HETATM    7  C   UNL     1      40.546 -11.778   5.993  1.00  0.00     0.098 A 
HETATM    8  C   UNL     1      40.431 -13.242   5.740  1.00  0.00     0.201 A 
HETATM    9  O   UNL     1      39.745 -13.971   6.454  1.00  0.00    -0.286 OA
HETATM   10  C   UNL     1      42.750 -13.515   2.775  1.00  0.00     0.032 A 
HETATM   11  C   UNL     1      42.711 -14.889   2.518  1.00  0.00     0.027 A 
HETATM   12  H   UNL     1      42.569 -10.975   3.511  1.00  0.00     0.165 HD
ENDROOT
BRANCH   1  13
HETATM   13  S   UNL     1      41.836 -17.466   2.979  1.00  0.00     0.263 S 
HETATM   14  O   UNL     1      41.211 -17.647   1.686  1.00  0.00    -0.200 OA
HETATM   15  O   UNL     1      41.296 -18.099   4.164  1.00  0.00    -0.200 OA
BRANCH  13  16
HETATM   16  N   UNL     1      43.455 -17.910   2.901  1.00  0.00    -0.280 N 
HETATM   17  H   UNL     1      44.033 -17.271   2.360  1.00  0.00     0.179 HD
BRANCH  16  18
HETATM   18  C   UNL     1      43.838 -19.276   3.003  1.00  0.00     0.048 A 
HETATM   19  C   UNL     1      44.462 -19.776   4.156  1.00  0.00    -0.035 A 
HETATM   20  C   UNL     1      44.824 -18.925   5.341  1.00  0.00     0.050 C 
HETATM   21  C   UNL     1      44.830 -21.133   4.185  1.00  0.00     0.009 A 
HETATM   22  C   UNL     1      44.559 -21.976   3.107  1.00  0.00     0.001 A 
HETATM   23  C   UNL     1      43.927 -21.471   1.975  1.00  0.00     0.002 A 
HETATM   24  C   UNL     1      43.573 -20.124   1.923  1.00  0.00     0.030 A 
ENDBRANCH  16  18
ENDBRANCH  13  16
ENDBRANCH   1  13
BRANCH   7  25
HETATM   25  C   UNL     1      39.887 -11.059   7.122  1.00  0.00     0.257 C 
HETATM   26  N   UNL     1      40.358 -11.371   8.371  1.00  0.00    -0.357 N 
HETATM   27  H   UNL     1      41.093 -12.076   8.451  1.00  0.00     0.162 HD
HETATM   28  O   UNL     1      39.005 -10.226   6.928  1.00  0.00    -0.267 OA
BRANCH  26  29
HETATM   29  C   UNL     1      39.926 -10.681   9.566  1.00  0.00     0.125 C 
BRANCH  29  30
HETATM   30  C   UNL     1      40.746  -9.430   9.853  1.00  0.00     0.046 C 
BRANCH  30  31
HETATM   31  C   UNL     1      41.699  -9.670  11.019  1.00  0.00     0.169 C 
BRANCH  31  32
HETATM   32  O   UNL     1      42.311 -10.948  10.859  1.00  0.00    -0.387 OA
BRANCH  32  33
HETATM   33  C   UNL     1      43.502 -11.116  11.635  1.00  0.00     0.113 C 
HETATM   34  C   UNL     1      44.753 -10.893  10.790  1.00  0.00     0.039 C 
HETATM   35  C   UNL     1      43.445 -10.098  12.768  1.00  0.00     0.039 C 
ENDBRANCH  32  33
ENDBRANCH  31  32
ENDBRANCH  30  31
ENDBRANCH  29  30
ENDBRANCH  26  29
ENDBRANCH   7  25
TORSDOF 9
ENDMDL
MODEL 6
REMARK VINA RESULT:      -8.1      4.862      7.368
REMARK  9 active torsions:
REMARK  status: ('A' for Active; 'I' for Inactive)
REMARK    1  A    between atoms: C_3  and  N_4 
REMARK    2  A    between atoms: N_4  and  S_5 
REMARK    3  A    between atoms: S_5  and  C_6 
REMARK    4  A    between atoms: C_12  and  C_13 
REMARK       I    between atoms: C_13  and  N_14 
REMARK    5  A    between atoms: N_14  and  C_15 
REMARK    6  A    between atoms: C_15  and  C_16 
REMARK    7  A    between atoms: C_16  and  C_17 
REMARK    8  A    between atoms: C_17  and  O_18 
REMARK    9  A    between atoms: O_18  and  C_19 
ROOT
HETATM    1  C   UNL     1      43.030 -16.300   4.803  1.00  0.00     0.081 A 
HETATM    2  C   UNL     1      42.668 -16.242   3.454  1.00  0.00     0.043 A 
HETATM    3  C   UNL     1      42.482 -14.992   2.857  1.00  0.00     0.043 A 
HETATM    4  C   UNL     1      42.686 -13.805   3.582  1.00  0.00     0.046 A 
HETATM    5  N   UNL     1      42.473 -12.570   2.962  1.00  0.00    -0.364 N 
HETATM    6  C   UNL     1      42.066 -12.496   1.654  1.00  0.00     0.109 A 
HETATM    7  C   UNL     1      41.825 -13.548   0.854  1.00  0.00     0.098 A 
HETATM    8  C   UNL     1      42.038 -14.902   1.440  1.00  0.00     0.201 A 
HETATM    9  O   UNL     1      41.835 -15.928   0.793  1.00  0.00    -0.286 OA
HETATM   10  C   UNL     1      43.063 -13.885   4.926  1.00  0.00     0.032 A 
HETATM   11  C   UNL     1      43.239 -15.130   5.539  1.00  0.00     0.027 A 
HETATM   12  H   UNL     1      42.677 -11.711   3.460  1.00  0.00     0.165 HD
ENDROOT
BRANCH   1  13
HETATM   13  S   UNL     1      43.275 -17.890   5.561  1.00  0.00     0.263 S 
HETATM   14  O   UNL     1      42.092 -18.688   5.318  1.00  0.00    -0.200 OA
HETATM   15  O   UNL     1      43.751 -17.649   6.907  1.00  0.00    -0.200 OA
BRANCH  13  16
HETATM   16  N   UNL     1      44.577 -18.520   4.705  1.00  0.00    -0.280 N 
HETATM   17  H   UNL     1      45.111 -17.822   4.191  1.00  0.00     0.179 HD
BRANCH  16  18
HETATM   18  C   UNL     1      44.554 -19.861   4.233  1.00  0.00     0.048 A 
HETATM   19  C   UNL     1      44.261 -20.161   2.893  1.00  0.00    -0.035 A 
HETATM   20  C   UNL     1      43.900 -19.122   1.870  1.00  0.00     0.050 C 
HETATM   21  C   UNL     1      44.239 -21.510   2.496  1.00  0.00     0.009 A 
HETATM   22  C   UNL     1      44.530 -22.531   3.401  1.00  0.00     0.001 A 
HETATM   23  C   UNL     1      44.832 -22.221   4.723  1.00  0.00     0.002 A 
HETATM   24  C   UNL     1      44.839 -20.890   5.137  1.00  0.00     0.030 A 
ENDBRANCH  16  18
ENDBRANCH  13  16
ENDBRANCH   1  13
BRANCH   7  25
HETATM   25  C   UNL     1      41.328 -13.293  -0.530  1.00  0.00     0.257 C 
HETATM   26  N   UNL     1      42.092 -13.826  -1.536  1.00  0.00    -0.357 N 
HETATM   27  H   UNL     1      42.945 -14.329  -1.283  1.00  0.00     0.162 HD
HETATM   28  O   UNL     1      40.290 -12.671  -0.736  1.00  0.00    -0.267 OA
BRANCH  26  29
HETATM   29  C   UNL     1      41.695 -13.786  -2.925  1.00  0.00     0.125 C 
BRANCH  29  30
HETATM   30  C   UNL     1      41.315 -15.157  -3.469  1.00  0.00     0.046 C 
BRANCH  30  31
HETATM   31  C   UNL     1      39.837 -15.440  -3.221  1.00  0.00     0.169 C 
BRANCH  31  32
HETATM   32  O   UNL     1      39.063 -14.395  -3.805  1.00  0.00    -0.387 OA
BRANCH  32  33
HETATM   33  C   UNL     1      37.790 -14.205  -3.179  1.00  0.00     0.113 C 
HETATM   34  C   UNL     1      37.566 -12.741  -2.808  1.00  0.00     0.039 C 
HETATM   35  C   UNL     1      36.729 -14.662  -4.174  1.00  0.00     0.039 C 
ENDBRANCH  32  33
ENDBRANCH  31  32
ENDBRANCH  30  31
ENDBRANCH  29  30
ENDBRANCH  26  29
ENDBRANCH   7  25
TORSDOF 9
ENDMDL
MODEL 7
REMARK VINA RESULT:      -8.1      3.733      6.221
REMARK  9 active torsions:
REMARK  status: ('A' for Active; 'I' for Inactive)
REMARK    1  A    between atoms: C_3  and  N_4 
REMARK    2  A    between atoms: N_4  and  S_5 
REMARK    3  A    between atoms: S_5  and  C_6 
REMARK    4  A    between atoms: C_12  and  C_13 
REMARK       I    between atoms: C_13  and  N_14 
REMARK    5  A    between atoms: N_14  and  C_15 
REMARK    6  A    between atoms: C_15  and  C_16 
REMARK    7  A    between atoms: C_16  and  C_17 
REMARK    8  A    between atoms: C_17  and  O_18 
REMARK    9  A    between atoms: O_18  and  C_19 
ROOT
HETATM    1  C   UNL     1      42.761 -16.060   5.001  1.00  0.00     0.081 A 
HETATM    2  C   UNL     1      41.682 -15.780   4.157  1.00  0.00     0.043 A 
HETATM    3  C   UNL     1      41.431 -14.454   3.796  1.00  0.00     0.043 A 
HETATM    4  C   UNL     1      42.264 -13.412   4.241  1.00  0.00     0.046 A 
HETATM    5  N   UNL     1      41.976 -12.093   3.878  1.00  0.00    -0.364 N 
HETATM    6  C   UNL     1      40.890 -11.796   3.094  1.00  0.00     0.109 A 
HETATM    7  C   UNL     1      40.011 -12.691   2.611  1.00  0.00     0.098 A 
HETATM    8  C   UNL     1      40.255 -14.123   2.948  1.00  0.00     0.201 A 
HETATM    9  O   UNL     1      39.502 -15.016   2.564  1.00  0.00    -0.286 OA
HETATM   10  C   UNL     1      43.347 -13.715   5.072  1.00  0.00     0.032 A 
HETATM   11  C   UNL     1      43.600 -15.037   5.452  1.00  0.00     0.027 A 
HETATM   12  H   UNL     1      42.606 -11.345   4.144  1.00  0.00     0.165 HD
ENDROOT
BRANCH   1  13
HETATM   13  S   UNL     1      43.085 -17.749   5.454  1.00  0.00     0.263 S 
HETATM   14  O   UNL     1      41.890 -18.521   5.186  1.00  0.00    -0.200 OA
HETATM   15  O   UNL     1      43.680 -17.727   6.774  1.00  0.00    -0.200 OA
BRANCH  13  16
HETATM   16  N   UNL     1      44.308 -18.196   4.391  1.00  0.00    -0.280 N 
HETATM   17  H   UNL     1      44.799 -17.410   3.972  1.00  0.00     0.179 HD
BRANCH  16  18
HETATM   18  C   UNL     1      44.240 -19.429   3.686  1.00  0.00     0.048 A 
HETATM   19  C   UNL     1      43.729 -19.498   2.380  1.00  0.00    -0.035 A 
HETATM   20  C   UNL     1      43.168 -18.313   1.644  1.00  0.00     0.050 C 
HETATM   21  C   UNL     1      43.675 -20.752   1.745  1.00  0.00     0.009 A 
HETATM   22  C   UNL     1      44.145 -21.901   2.382  1.00  0.00     0.001 A 
HETATM   23  C   UNL     1      44.662 -21.818   3.670  1.00  0.00     0.002 A 
HETATM   24  C   UNL     1      44.705 -20.586   4.321  1.00  0.00     0.030 A 
ENDBRANCH  16  18
ENDBRANCH  13  16
ENDBRANCH   1  13
BRANCH   7  25
HETATM   25  C   UNL     1      38.847 -12.192   1.822  1.00  0.00     0.257 C 
HETATM   26  N   UNL     1      38.716 -12.728   0.567  1.00  0.00    -0.357 N 
HETATM   27  H   UNL     1      39.420 -13.397   0.249  1.00  0.00     0.162 HD
HETATM   28  O   UNL     1      38.053 -11.380   2.289  1.00  0.00    -0.267 OA
BRANCH  26  29
HETATM   29  C   UNL     1      37.581 -12.457  -0.285  1.00  0.00     0.125 C 
BRANCH  29  30
HETATM   30  C   UNL     1      37.790 -12.939  -1.715  1.00  0.00     0.046 C 
BRANCH  30  31
HETATM   31  C   UNL     1      38.772 -14.105  -1.749  1.00  0.00     0.169 C 
BRANCH  31  32
HETATM   32  O   UNL     1      40.084 -13.596  -1.980  1.00  0.00    -0.387 OA
BRANCH  32  33
HETATM   33  C   UNL     1      41.109 -14.592  -1.902  1.00  0.00     0.113 C 
HETATM   34  C   UNL     1      41.098 -15.298  -0.548  1.00  0.00     0.039 C 
HETATM   35  C   UNL     1      40.843 -15.595  -3.018  1.00  0.00     0.039 C 
ENDBRANCH  32  33
ENDBRANCH  31  32
ENDBRANCH  30  31
ENDBRANCH  29  30
ENDBRANCH  26  29
ENDBRANCH   7  25
TORSDOF 9
ENDMDL
MODEL 8
REMARK VINA RESULT:      -8.1      2.618      3.749
REMARK  9 active torsions:
REMARK  status: ('A' for Active; 'I' for Inactive)
REMARK    1  A    between atoms: C_3  and  N_4 
REMARK    2  A    between atoms: N_4  and  S_5 
REMARK    3  A    between atoms: S_5  and  C_6 
REMARK    4  A    between atoms: C_12  and  C_13 
REMARK       I    between atoms: C_13  and  N_14 
REMARK    5  A    between atoms: N_14  and  C_15 
REMARK    6  A    between atoms: C_15  and  C_16 
REMARK    7  A    between atoms: C_16  and  C_17 
REMARK    8  A    between atoms: C_17  and  O_18 
REMARK    9  A    between atoms: O_18  and  C_19 
ROOT
HETATM    1  C   UNL     1      41.342 -15.126   2.959  1.00  0.00     0.081 A 
HETATM    2  C   UNL     1      42.059 -14.630   4.051  1.00  0.00     0.043 A 
HETATM    3  C   UNL     1      41.538 -13.549   4.769  1.00  0.00     0.043 A 
HETATM    4  C   UNL     1      40.297 -12.985   4.428  1.00  0.00     0.046 A 
HETATM    5  N   UNL     1      39.811 -11.892   5.153  1.00  0.00    -0.364 N 
HETATM    6  C   UNL     1      40.527 -11.359   6.194  1.00  0.00     0.109 A 
HETATM    7  C   UNL     1      41.726 -11.795   6.617  1.00  0.00     0.098 A 
HETATM    8  C   UNL     1      42.309 -12.964   5.898  1.00  0.00     0.201 A 
HETATM    9  O   UNL     1      43.406 -13.429   6.201  1.00  0.00    -0.286 OA
HETATM   10  C   UNL     1      39.588 -13.506   3.341  1.00  0.00     0.032 A 
HETATM   11  C   UNL     1      40.106 -14.577   2.606  1.00  0.00     0.027 A 
HETATM   12  H   UNL     1      38.890 -11.520   4.952  1.00  0.00     0.165 HD
ENDROOT
BRANCH   1  13
HETATM   13  S   UNL     1      42.001 -16.505   2.051  1.00  0.00     0.263 S 
HETATM   14  O   UNL     1      43.377 -16.204   1.716  1.00  0.00    -0.200 OA
HETATM   15  O   UNL     1      41.037 -16.835   1.022  1.00  0.00    -0.200 OA
BRANCH  13  16
HETATM   16  N   UNL     1      41.944 -17.757   3.171  1.00  0.00    -0.280 N 
HETATM   17  H   UNL     1      41.530 -17.495   4.063  1.00  0.00     0.179 HD
BRANCH  16  18
HETATM   18  C   UNL     1      42.900 -18.809   3.132  1.00  0.00     0.048 A 
HETATM   19  C   UNL     1      43.835 -18.987   4.163  1.00  0.00    -0.035 A 
HETATM   20  C   UNL     1      43.947 -18.072   5.350  1.00  0.00     0.050 C 
HETATM   21  C   UNL     1      44.763 -20.038   4.054  1.00  0.00     0.009 A 
HETATM   22  C   UNL     1      44.742 -20.907   2.962  1.00  0.00     0.001 A 
HETATM   23  C   UNL     1      43.801 -20.729   1.954  1.00  0.00     0.002 A 
HETATM   24  C   UNL     1      42.887 -19.680   2.037  1.00  0.00     0.030 A 
ENDBRANCH  16  18
ENDBRANCH  13  16
ENDBRANCH   1  13
BRANCH   7  25
HETATM   25  C   UNL     1      42.400 -11.062   7.728  1.00  0.00     0.257 C 
HETATM   26  N   UNL     1      43.241 -11.817   8.504  1.00  0.00    -0.357 N 
HETATM   27  H   UNL     1      43.331 -12.813   8.296  1.00  0.00     0.162 HD
HETATM   28  O   UNL     1      42.225  -9.859   7.905  1.00  0.00    -0.267 OA
BRANCH  26  29
HETATM   29  C   UNL     1      44.070 -11.248   9.542  1.00  0.00     0.125 C 
BRANCH  29  30
HETATM   30  C   UNL     1      44.413 -12.249  10.637  1.00  0.00     0.046 C 
BRANCH  30  31
HETATM   31  C   UNL     1      43.640 -11.934  11.913  1.00  0.00     0.169 C 
BRANCH  31  32
HETATM   32  O   UNL     1      42.438 -11.249  11.567  1.00  0.00    -0.387 OA
BRANCH  32  33
HETATM   33  C   UNL     1      42.104 -10.186  12.465  1.00  0.00     0.113 C 
HETATM   34  C   UNL     1      41.140 -10.657  13.551  1.00  0.00     0.039 C 
HETATM   35  C   UNL     1      43.406  -9.704  13.093  1.00  0.00     0.039 C 
ENDBRANCH  32  33
ENDBRANCH  31  32
ENDBRANCH  30  31
ENDBRANCH  29  30
ENDBRANCH  26  29
ENDBRANCH   7  25
TORSDOF 9
ENDMDL
MODEL 9
REMARK VINA RESULT:      -8.0      3.835      6.579
REMARK  9 active torsions:
REMARK  status: ('A' for Active; 'I' for Inactive)
REMARK    1  A    between atoms: C_3  and  N_4 
REMARK    2  A    between atoms: N_4  and  S_5 
REMARK    3  A    between atoms: S_5  and  C_6 
REMARK    4  A    between atoms: C_12  and  C_13 
REMARK       I    between atoms: C_13  and  N_14 
REMARK    5  A    between atoms: N_14  and  C_15 
REMARK    6  A    between atoms: C_15  and  C_16 
REMARK    7  A    between atoms: C_16  and  C_17 
REMARK    8  A    between atoms: C_17  and  O_18 
REMARK    9  A    between atoms: O_18  and  C_19 
ROOT
HETATM    1  C   UNL     1      43.608 -17.122   5.910  1.00  0.00     0.081 A 
HETATM    2  C   UNL     1      42.644 -16.881   4.927  1.00  0.00     0.043 A 
HETATM    3  C   UNL     1      42.335 -15.561   4.590  1.00  0.00     0.043 A 
HETATM    4  C   UNL     1      43.001 -14.483   5.199  1.00  0.00     0.046 A 
HETATM    5  N   UNL     1      42.656 -13.172   4.855  1.00  0.00    -0.364 N 
HETATM    6  C   UNL     1      41.675 -12.919   3.931  1.00  0.00     0.109 A 
HETATM    7  C   UNL     1      40.956 -13.852   3.284  1.00  0.00     0.098 A 
HETATM    8  C   UNL     1      41.270 -15.276   3.591  1.00  0.00     0.201 A 
HETATM    9  O   UNL     1      40.661 -16.203   3.060  1.00  0.00    -0.286 OA
HETATM   10  C   UNL     1      43.974 -14.745   6.169  1.00  0.00     0.032 A 
HETATM   11  C   UNL     1      44.282 -16.062   6.525  1.00  0.00     0.027 A 
HETATM   12  H   UNL     1      43.174 -12.393   5.245  1.00  0.00     0.165 HD
ENDROOT
BRANCH   1  13
HETATM   13  S   UNL     1      44.008 -18.802   6.332  1.00  0.00     0.263 S 
HETATM   14  O   UNL     1      42.795 -19.586   6.241  1.00  0.00    -0.200 OA
HETATM   15  O   UNL     1      44.779 -18.759   7.557  1.00  0.00    -0.200 OA
BRANCH  13  16
HETATM   16  N   UNL     1      45.076 -19.253   5.116  1.00  0.00    -0.280 N 
HETATM   17  H   UNL     1      45.842 -18.599   4.975  1.00  0.00     0.179 HD
BRANCH  16  18
HETATM   18  C   UNL     1      44.637 -20.054   4.026  1.00  0.00     0.048 A 
HETATM   19  C   UNL     1      44.713 -21.455   4.069  1.00  0.00    -0.035 A 
HETATM   20  C   UNL     1      45.300 -22.219   5.223  1.00  0.00     0.050 C 
HETATM   21  C   UNL     1      44.277 -22.187   2.950  1.00  0.00     0.009 A 
HETATM   22  C   UNL     1      43.754 -21.542   1.829  1.00  0.00     0.001 A 
HETATM   23  C   UNL     1      43.671 -20.154   1.803  1.00  0.00     0.002 A 
HETATM   24  C   UNL     1      44.116 -19.414   2.896  1.00  0.00     0.030 A 
ENDBRANCH  16  18
ENDBRANCH  13  16
ENDBRANCH   1  13
BRANCH   7  25
HETATM   25  C   UNL     1      39.880 -13.403   2.352  1.00  0.00     0.257 C 
HETATM   26  N   UNL     1      39.954 -13.914   1.082  1.00  0.00    -0.357 N 
HETATM   27  H   UNL     1      40.735 -14.531   0.851  1.00  0.00     0.162 HD
HETATM   28  O   UNL     1      38.981 -12.652   2.721  1.00  0.00    -0.267 OA
BRANCH  26  29
HETATM   29  C   UNL     1      38.930 -13.689   0.087  1.00  0.00     0.125 C 
BRANCH  29  30
HETATM   30  C   UNL     1      39.414 -12.826  -1.072  1.00  0.00     0.046 C 
BRANCH  30  31
HETATM   31  C   UNL     1      38.712 -13.224  -2.365  1.00  0.00     0.169 C 
BRANCH  31  32
HETATM   32  O   UNL     1      38.766 -14.642  -2.502  1.00  0.00    -0.387 OA
BRANCH  32  33
HETATM   33  C   UNL     1      39.670 -15.088  -3.518  1.00  0.00     0.113 C 
HETATM   34  C   UNL     1      40.931 -15.700  -2.911  1.00  0.00     0.039 C 
HETATM   35  C   UNL     1      38.930 -16.129  -4.350  1.00  0.00     0.039 C 
ENDBRANCH  32  33
ENDBRANCH  31  32
ENDBRANCH  30  31
ENDBRANCH  29  30
ENDBRANCH  26  29
ENDBRANCH   7  25
TORSDOF 9
ENDMDL
MODEL 10
REMARK VINA RESULT:      -7.8      2.224      3.347
REMARK  9 active torsions:
REMARK  status: ('A' for Active; 'I' for Inactive)
REMARK    1  A    between atoms: C_3  and  N_4 
REMARK    2  A    between atoms: N_4  and  S_5 
REMARK    3  A    between atoms: S_5  and  C_6 
REMARK    4  A    between atoms: C_12  and  C_13 
REMARK       I    between atoms: C_13  and  N_14 
REMARK    5  A    between atoms: N_14  and  C_15 
REMARK    6  A    between atoms: C_15  and  C_16 
REMARK    7  A    between atoms: C_16  and  C_17 
REMARK    8  A    between atoms: C_17  and  O_18 
REMARK    9  A    between atoms: O_18  and  C_19 
ROOT
HETATM    1  C   UNL     1      42.936 -15.782   5.180  1.00  0.00     0.081 A 
HETATM    2  C   UNL     1      42.267 -14.564   5.317  1.00  0.00     0.043 A 
HETATM    3  C   UNL     1      42.713 -13.651   6.276  1.00  0.00     0.043 A 
HETATM    4  C   UNL     1      43.837 -13.928   7.073  1.00  0.00     0.046 A 
HETATM    5  N   UNL     1      44.248 -13.003   8.038  1.00  0.00    -0.364 N 
HETATM    6  C   UNL     1      43.570 -11.825   8.222  1.00  0.00     0.109 A 
HETATM    7  C   UNL     1      42.478 -11.441   7.538  1.00  0.00     0.098 A 
HETATM    8  C   UNL     1      41.982 -12.371   6.484  1.00  0.00     0.201 A 
HETATM    9  O   UNL     1      40.985 -12.116   5.812  1.00  0.00    -0.286 OA
HETATM   10  C   UNL     1      44.502 -15.147   6.910  1.00  0.00     0.032 A 
HETATM   11  C   UNL     1      44.057 -16.075   5.963  1.00  0.00     0.027 A 
HETATM   12  H   UNL     1      45.092 -13.169   8.573  1.00  0.00     0.165 HD
ENDROOT
BRANCH   1  13
HETATM   13  S   UNL     1      42.374 -16.941   3.954  1.00  0.00     0.263 S 
HETATM   14  O   UNL     1      41.699 -16.197   2.912  1.00  0.00    -0.200 OA
HETATM   15  O   UNL     1      41.704 -18.014   4.660  1.00  0.00    -0.200 OA
BRANCH  13  16
HETATM   16  N   UNL     1      43.807 -17.588   3.360  1.00  0.00    -0.280 N 
HETATM   17  H   UNL     1      44.340 -16.946   2.777  1.00  0.00     0.179 HD
BRANCH  16  18
HETATM   18  C   UNL     1      43.940 -18.988   3.152  1.00  0.00     0.048 A 
HETATM   19  C   UNL     1      44.534 -19.818   4.115  1.00  0.00    -0.035 A 
HETATM   20  C   UNL     1      45.121 -19.310   5.401  1.00  0.00     0.050 C 
HETATM   21  C   UNL     1      44.649 -21.193   3.838  1.00  0.00     0.009 A 
HETATM   22  C   UNL     1      44.158 -21.730   2.648  1.00  0.00     0.001 A 
HETATM   23  C   UNL     1      43.559 -20.899   1.707  1.00  0.00     0.002 A 
HETATM   24  C   UNL     1      43.455 -19.532   1.957  1.00  0.00     0.030 A 
ENDBRANCH  16  18
ENDBRANCH  13  16
ENDBRANCH   1  13
BRANCH   7  25
HETATM   25  C   UNL     1      41.824 -10.151   7.905  1.00  0.00     0.257 C 
HETATM   26  N   UNL     1      41.049 -10.187   9.036  1.00  0.00    -0.357 N 
HETATM   27  H   UNL     1      40.949 -11.077   9.527  1.00  0.00     0.162 HD
HETATM   28  O   UNL     1      42.001  -9.129   7.247  1.00  0.00    -0.267 OA
BRANCH  26  29
HETATM   29  C   UNL     1      40.445  -9.006   9.609  1.00  0.00     0.125 C 
BRANCH  29  30
HETATM   30  C   UNL     1      40.345  -9.073  11.127  1.00  0.00     0.046 C 
BRANCH  30  31
HETATM   31  C   UNL     1      41.629  -8.562  11.772  1.00  0.00     0.169 C 
BRANCH  31  32
HETATM   32  O   UNL     1      42.740  -9.229  11.178  1.00  0.00    -0.387 OA
BRANCH  32  33
HETATM   33  C   UNL     1      43.542  -9.956  12.115  1.00  0.00     0.113 C 
HETATM   34  C   UNL     1      43.312  -9.467  13.543  1.00  0.00     0.039 C 
HETATM   35  C   UNL     1      43.150 -11.424  11.994  1.00  0.00     0.039 C 
ENDBRANCH  32  33
ENDBRANCH  31  32
ENDBRANCH  30  31
ENDBRANCH  29  30
ENDBRANCH  26  29
ENDBRANCH   7  25
TORSDOF 9
ENDMDL
