MODEL 1
REMARK VINA RESULT:      -7.9      0.000      0.000
REMARK  4 active torsions:
REMARK  status: ('A' for Active; 'I' for Inactive)
REMARK    1  A    between atoms: N_2  and  C_3 
REMARK    2  A    between atoms: C_9  and  N_10 
REMARK       I    between atoms: N_10  and  C_11 
REMARK    3  A    between atoms: C_11  and  C_12 
REMARK    4  A    between atoms: C_12  and  C_13 
ROOT
HETATM    1  N   UNL     1      41.923 -15.404   0.009  1.00  0.00    -0.327 N 
HETATM    2  C   UNL     1      41.945 -16.473   0.889  1.00  0.00     0.227 C 
HETATM    3  O   UNL     1      41.112 -17.377   0.953  1.00  0.00    -0.273 OA
HETATM    4  H   UNL     1      42.639 -14.692   0.110  1.00  0.00     0.169 HD
ENDROOT
BRANCH   1   5
HETATM    5  C   UNL     1      40.995 -15.167  -1.033  1.00  0.00     0.037 A 
HETATM    6  C   UNL     1      39.981 -14.202  -0.959  1.00  0.00     0.069 A 
HETATM    7  C   UNL     1      39.126 -14.127  -2.056  1.00  0.00     0.110 A 
HETATM    8  O   UNL     1      38.058 -13.296  -2.215  1.00  0.00    -0.276 OA
HETATM    9  C   UNL     1      39.218 -14.913  -3.189  1.00  0.00     0.095 A 
HETATM   10  C   UNL     1      37.546 -13.636  -3.445  1.00  0.00     0.249 A 
HETATM   11  N   UNL     1      38.217 -14.588  -4.062  1.00  0.00    -0.206 NA
HETATM   12  C   UNL     1      40.239 -15.862  -3.269  1.00  0.00     0.037 A 
HETATM   13  C   UNL     1      41.117 -15.980  -2.177  1.00  0.00     0.032 A 
BRANCH  10  14
HETATM   14  N   UNL     1      36.430 -12.990  -3.857  1.00  0.00    -0.354 N 
HETATM   15  C   UNL     1      36.429 -11.537  -3.872  1.00  0.00     0.152 C 
HETATM   16  C   UNL     1      35.640 -13.652  -4.884  1.00  0.00     0.152 C 
ENDBRANCH  10  14
ENDBRANCH   1   5
BRANCH   2  17
HETATM   17  C   UNL     1      43.152 -16.443   1.810  1.00  0.00     0.161 C 
BRANCH  17  18
HETATM   18  C   UNL     1      43.536 -17.780   2.324  1.00  0.00     0.035 A 
HETATM   19  N   UNL     1      43.502 -18.950   1.573  1.00  0.00    -0.344 N 
HETATM   20  H   UNL     1      43.208 -18.974   0.590  1.00  0.00     0.167 HD
HETATM   21  C   UNL     1      43.888 -19.996   2.291  1.00  0.00     0.111 A 
HETATM   22  N   UNL     1      44.199 -19.542   3.519  1.00  0.00    -0.317 N 
HETATM   23  C   UNL     1      44.001 -21.433   1.945  1.00  0.00     0.049 A 
HETATM   24  C   UNL     1      43.995 -18.175   3.566  1.00  0.00     0.123 A 
HETATM   25  C   UNL     1      44.644 -20.375   4.527  1.00  0.00     0.098 A 
HETATM   26  C   UNL     1      44.756 -21.686   4.240  1.00  0.00     0.018 A 
HETATM   27  C   UNL     1      44.431 -22.244   2.929  1.00  0.00     0.005 A 
ENDBRANCH  17  18
ENDBRANCH   2  17
TORSDOF 4
ENDMDL
MODEL 2
REMARK VINA RESULT:      -7.9      6.893     10.475
REMARK  4 active torsions:
REMARK  status: ('A' for Active; 'I' for Inactive)
REMARK    1  A    between atoms: N_2  and  C_3 
REMARK    2  A    between atoms: C_9  and  N_10 
REMARK       I    between atoms: N_10  and  C_11 
REMARK    3  A    between atoms: C_11  and  C_12 
REMARK    4  A    between atoms: C_12  and  C_13 
ROOT
HETATM    1  N   UNL     1      42.859 -15.019   5.958  1.00  0.00    -0.327 N 
HETATM    2  C   UNL     1      43.121 -13.808   5.339  1.00  0.00     0.227 C 
HETATM    3  O   UNL     1      43.974 -13.603   4.476  1.00  0.00    -0.273 OA
HETATM    4  H   UNL     1      42.172 -15.031   6.704  1.00  0.00     0.169 HD
ENDROOT
BRANCH   1   5
HETATM    5  C   UNL     1      43.456 -16.271   5.681  1.00  0.00     0.037 A 
HETATM    6  C   UNL     1      43.156 -17.036   4.544  1.00  0.00     0.069 A 
HETATM    7  C   UNL     1      43.803 -18.265   4.446  1.00  0.00     0.110 A 
HETATM    8  O   UNL     1      43.664 -19.194   3.459  1.00  0.00    -0.276 OA
HETATM    9  C   UNL     1      44.706 -18.763   5.365  1.00  0.00     0.095 A 
HETATM   10  C   UNL     1      44.491 -20.223   3.843  1.00  0.00     0.249 A 
HETATM   11  N   UNL     1      45.139 -19.998   4.969  1.00  0.00    -0.206 NA
HETATM   12  C   UNL     1      45.017 -17.994   6.488  1.00  0.00     0.037 A 
HETATM   13  C   UNL     1      44.377 -16.750   6.634  1.00  0.00     0.032 A 
BRANCH  10  14
HETATM   14  N   UNL     1      44.525 -21.325   3.057  1.00  0.00    -0.354 N 
HETATM   15  C   UNL     1      44.621 -22.630   3.689  1.00  0.00     0.152 C 
HETATM   16  C   UNL     1      43.775 -21.257   1.813  1.00  0.00     0.152 C 
ENDBRANCH  10  14
ENDBRANCH   1   5
BRANCH   2  17
HETATM   17  C   UNL     1      42.211 -12.695   5.833  1.00  0.00     0.161 C 
BRANCH  17  18
HETATM   18  C   UNL     1      42.653 -12.098   7.116  1.00  0.00     0.035 A 
HETATM   19  N   UNL     1      43.797 -12.480   7.808  1.00  0.00    -0.344 N 
HETATM   20  H   UNL     1      44.433 -13.212   7.473  1.00  0.00     0.167 HD
HETATM   21  C   UNL     1      43.939 -11.785   8.929  1.00  0.00     0.111 A 
HETATM   22  N   UNL     1      42.906 -10.923   8.995  1.00  0.00    -0.317 N 
HETATM   23  C   UNL     1      44.971 -11.839   9.991  1.00  0.00     0.049 A 
HETATM   24  C   UNL     1      42.099 -11.092   7.884  1.00  0.00     0.123 A 
HETATM   25  C   UNL     1      42.745 -10.038  10.043  1.00  0.00     0.098 A 
HETATM   26  C   UNL     1      43.669 -10.066  11.022  1.00  0.00     0.018 A 
HETATM   27  C   UNL     1      44.810 -10.979  11.014  1.00  0.00     0.005 A 
ENDBRANCH  17  18
ENDBRANCH   2  17
TORSDOF 4
ENDMDL
MODEL 3
REMARK VINA RESULT:      -7.7      1.262      2.208
REMARK  4 active torsions:
REMARK  status: ('A' for Active; 'I' for Inactive)
REMARK    1  A    between atoms: N_2  and  C_3 
REMARK    2  A    between atoms: C_9  and  N_10 
REMARK       I    between atoms: N_10  and  C_11 
REMARK    3  A    between atoms: C_11  and  C_12 
REMARK    4  A    between atoms: C_12  and  C_13 
ROOT
HETATM    1  N   UNL     1      42.372 -15.921   0.220  1.00  0.00    -0.327 N 
HETATM    2  C   UNL     1      42.436 -17.114   0.921  1.00  0.00     0.227 C 
HETATM    3  O   UNL     1      41.477 -17.784   1.303  1.00  0.00    -0.273 OA
HETATM    4  H   UNL     1      43.243 -15.438   0.027  1.00  0.00     0.169 HD
ENDROOT
BRANCH   1   5
HETATM    5  C   UNL     1      41.213 -15.269  -0.262  1.00  0.00     0.037 A 
HETATM    6  C   UNL     1      40.824 -15.280  -1.609  1.00  0.00     0.069 A 
HETATM    7  C   UNL     1      39.678 -14.553  -1.921  1.00  0.00     0.110 A 
HETATM    8  O   UNL     1      39.114 -14.388  -3.150  1.00  0.00    -0.276 OA
HETATM    9  C   UNL     1      38.913 -13.848  -1.011  1.00  0.00     0.095 A 
HETATM   10  C   UNL     1      38.031 -13.574  -2.919  1.00  0.00     0.249 A 
HETATM   11  N   UNL     1      37.870 -13.240  -1.654  1.00  0.00    -0.206 NA
HETATM   12  C   UNL     1      39.291 -13.852   0.333  1.00  0.00     0.037 A 
HETATM   13  C   UNL     1      40.450 -14.564   0.690  1.00  0.00     0.032 A 
BRANCH  10  14
HETATM   14  N   UNL     1      37.290 -13.200  -3.989  1.00  0.00    -0.354 N 
HETATM   15  C   UNL     1      36.344 -14.149  -4.550  1.00  0.00     0.152 C 
HETATM   16  C   UNL     1      36.924 -11.794  -4.064  1.00  0.00     0.152 C 
ENDBRANCH  10  14
ENDBRANCH   1   5
BRANCH   2  17
HETATM   17  C   UNL     1      43.865 -17.557   1.185  1.00  0.00     0.161 C 
BRANCH  17  18
HETATM   18  C   UNL     1      43.994 -18.479   2.339  1.00  0.00     0.035 A 
HETATM   19  N   UNL     1      43.608 -18.168   3.639  1.00  0.00    -0.344 N 
HETATM   20  H   UNL     1      43.195 -17.265   3.898  1.00  0.00     0.167 HD
HETATM   21  C   UNL     1      43.848 -19.176   4.468  1.00  0.00     0.111 A 
HETATM   22  N   UNL     1      44.380 -20.173   3.737  1.00  0.00    -0.317 N 
HETATM   23  C   UNL     1      43.631 -19.316   5.927  1.00  0.00     0.049 A 
HETATM   24  C   UNL     1      44.476 -19.771   2.417  1.00  0.00     0.123 A 
HETATM   25  C   UNL     1      44.750 -21.383   4.291  1.00  0.00     0.098 A 
HETATM   26  C   UNL     1      44.563 -21.538   5.615  1.00  0.00     0.018 A 
HETATM   27  C   UNL     1      43.995 -20.494   6.467  1.00  0.00     0.005 A 
ENDBRANCH  17  18
ENDBRANCH   2  17
TORSDOF 4
ENDMDL
MODEL 4
REMARK VINA RESULT:      -7.6      7.748     10.400
REMARK  4 active torsions:
REMARK  status: ('A' for Active; 'I' for Inactive)
REMARK    1  A    between atoms: N_2  and  C_3 
REMARK    2  A    between atoms: C_9  and  N_10 
REMARK       I    between atoms: N_10  and  C_11 
REMARK    3  A    between atoms: C_11  and  C_12 
REMARK    4  A    between atoms: C_12  and  C_13 
ROOT
HETATM    1  N   UNL     1      39.846 -13.352   6.668  1.00  0.00    -0.327 N 
HETATM    2  C   UNL     1      40.340 -12.072   6.853  1.00  0.00     0.227 C 
HETATM    3  O   UNL     1      41.274 -11.558   6.236  1.00  0.00    -0.273 OA
HETATM    4  H   UNL     1      39.115 -13.673   7.294  1.00  0.00     0.169 HD
ENDROOT
BRANCH   1   5
HETATM    5  C   UNL     1      40.252 -14.298   5.698  1.00  0.00     0.037 A 
HETATM    6  C   UNL     1      41.047 -15.415   5.994  1.00  0.00     0.069 A 
HETATM    7  C   UNL     1      41.392 -16.225   4.914  1.00  0.00     0.110 A 
HETATM    8  O   UNL     1      42.168 -17.344   4.936  1.00  0.00    -0.276 OA
HETATM    9  C   UNL     1      41.002 -16.011   3.606  1.00  0.00     0.095 A 
HETATM   10  C   UNL     1      42.218 -17.747   3.623  1.00  0.00     0.249 A 
HETATM   11  N   UNL     1      41.525 -16.985   2.801  1.00  0.00    -0.206 NA
HETATM   12  C   UNL     1      40.196 -14.909   3.315  1.00  0.00     0.037 A 
HETATM   13  C   UNL     1      39.834 -14.057   4.374  1.00  0.00     0.032 A 
BRANCH  10  14
HETATM   14  N   UNL     1      42.971 -18.834   3.331  1.00  0.00    -0.354 N 
HETATM   15  C   UNL     1      43.195 -19.174   1.936  1.00  0.00     0.152 C 
HETATM   16  C   UNL     1      44.048 -19.144   4.258  1.00  0.00     0.152 C 
ENDBRANCH  10  14
ENDBRANCH   1   5
BRANCH   2  17
HETATM   17  C   UNL     1      39.589 -11.308   7.930  1.00  0.00     0.161 C 
BRANCH  17  18
HETATM   18  C   UNL     1      40.415 -11.004   9.123  1.00  0.00     0.035 A 
HETATM   19  N   UNL     1      41.803 -10.911   9.115  1.00  0.00    -0.344 N 
HETATM   20  H   UNL     1      42.366 -11.045   8.267  1.00  0.00     0.167 HD
HETATM   21  C   UNL     1      42.276 -10.639  10.324  1.00  0.00     0.111 A 
HETATM   22  N   UNL     1      41.218 -10.531  11.149  1.00  0.00    -0.317 N 
HETATM   23  C   UNL     1      43.663 -10.464  10.816  1.00  0.00     0.049 A 
HETATM   24  C   UNL     1      40.055 -10.746  10.432  1.00  0.00     0.123 A 
HETATM   25  C   UNL     1      41.353 -10.247  12.494  1.00  0.00     0.098 A 
HETATM   26  C   UNL     1      42.603 -10.083  12.968  1.00  0.00     0.018 A 
HETATM   27  C   UNL     1      43.793 -10.191  12.127  1.00  0.00     0.005 A 
ENDBRANCH  17  18
ENDBRANCH   2  17
TORSDOF 4
ENDMDL
MODEL 5
REMARK VINA RESULT:      -7.6      7.261      9.926
REMARK  4 active torsions:
REMARK  status: ('A' for Active; 'I' for Inactive)
REMARK    1  A    between atoms: N_2  and  C_3 
REMARK    2  A    between atoms: C_9  and  N_10 
REMARK       I    between atoms: N_10  and  C_11 
REMARK    3  A    between atoms: C_11  and  C_12 
REMARK    4  A    between atoms: C_12  and  C_13 
ROOT
HETATM    1  N   UNL     1      44.333 -14.120   7.747  1.00  0.00    -0.327 N 
HETATM    2  C   UNL     1      45.446 -13.332   7.509  1.00  0.00     0.227 C 
HETATM    3  O   UNL     1      46.105 -13.301   6.470  1.00  0.00    -0.273 OA
HETATM    4  H   UNL     1      43.925 -14.096   8.676  1.00  0.00     0.169 HD
ENDROOT
BRANCH   1   5
HETATM    5  C   UNL     1      43.684 -14.987   6.837  1.00  0.00     0.037 A 
HETATM    6  C   UNL     1      43.024 -14.542   5.683  1.00  0.00     0.069 A 
HETATM    7  C   UNL     1      42.401 -15.525   4.917  1.00  0.00     0.110 A 
HETATM    8  O   UNL     1      41.681 -15.347   3.774  1.00  0.00    -0.276 OA
HETATM    9  C   UNL     1      42.401 -16.876   5.206  1.00  0.00     0.095 A 
HETATM   10  C   UNL     1      41.268 -16.614   3.434  1.00  0.00     0.249 A 
HETATM   11  N   UNL     1      41.687 -17.554   4.257  1.00  0.00    -0.206 NA
HETATM   12  C   UNL     1      43.073 -17.320   6.347  1.00  0.00     0.037 A 
HETATM   13  C   UNL     1      43.706 -16.360   7.156  1.00  0.00     0.032 A 
BRANCH  10  14
HETATM   14  N   UNL     1      40.481 -16.743   2.339  1.00  0.00    -0.354 N 
HETATM   15  C   UNL     1      39.598 -15.646   1.981  1.00  0.00     0.152 C 
HETATM   16  C   UNL     1      41.022 -17.528   1.242  1.00  0.00     0.152 C 
ENDBRANCH  10  14
ENDBRANCH   1   5
BRANCH   2  17
HETATM   17  C   UNL     1      45.801 -12.452   8.696  1.00  0.00     0.161 C 
BRANCH  17  18
HETATM   18  C   UNL     1      44.621 -12.021   9.484  1.00  0.00     0.035 A 
HETATM   19  N   UNL     1      43.519 -11.361   8.950  1.00  0.00    -0.344 N 
HETATM   20  H   UNL     1      43.438 -11.124   7.955  1.00  0.00     0.167 HD
HETATM   21  C   UNL     1      42.620 -11.087   9.886  1.00  0.00     0.111 A 
HETATM   22  N   UNL     1      43.097 -11.570  11.048  1.00  0.00    -0.317 N 
HETATM   23  C   UNL     1      41.312 -10.393   9.814  1.00  0.00     0.049 A 
HETATM   24  C   UNL     1      44.330 -12.157  10.827  1.00  0.00     0.123 A 
HETATM   25  C   UNL     1      42.404 -11.459  12.238  1.00  0.00     0.098 A 
HETATM   26  C   UNL     1      41.212 -10.832  12.202  1.00  0.00     0.018 A 
HETATM   27  C   UNL     1      40.640 -10.282  10.975  1.00  0.00     0.005 A 
ENDBRANCH  17  18
ENDBRANCH   2  17
TORSDOF 4
ENDMDL
MODEL 6
REMARK VINA RESULT:      -7.6      7.545     10.951
REMARK  4 active torsions:
REMARK  status: ('A' for Active; 'I' for Inactive)
REMARK    1  A    between atoms: N_2  and  C_3 
REMARK    2  A    between atoms: C_9  and  N_10 
REMARK       I    between atoms: N_10  and  C_11 
REMARK    3  A    between atoms: C_11  and  C_12 
REMARK    4  A    between atoms: C_12  and  C_13 
ROOT
HETATM    1  N   UNL     1      44.337 -13.698   8.053  1.00  0.00    -0.327 N 
HETATM    2  C   UNL     1      45.465 -12.904   8.178  1.00  0.00     0.227 C 
HETATM    3  O   UNL     1      46.390 -12.825   7.369  1.00  0.00    -0.273 OA
HETATM    4  H   UNL     1      43.683 -13.718   8.829  1.00  0.00     0.169 HD
ENDROOT
BRANCH   1   5
HETATM    5  C   UNL     1      43.980 -14.516   6.956  1.00  0.00     0.037 A 
HETATM    6  C   UNL     1      44.241 -15.893   6.902  1.00  0.00     0.069 A 
HETATM    7  C   UNL     1      43.860 -16.543   5.730  1.00  0.00     0.110 A 
HETATM    8  O   UNL     1      44.027 -17.861   5.426  1.00  0.00    -0.276 OA
HETATM    9  C   UNL     1      43.247 -15.938   4.651  1.00  0.00     0.095 A 
HETATM   10  C   UNL     1      43.509 -17.983   4.158  1.00  0.00     0.249 A 
HETATM   11  N   UNL     1      43.023 -16.861   3.666  1.00  0.00    -0.206 NA
HETATM   12  C   UNL     1      42.970 -14.570   4.712  1.00  0.00     0.037 A 
HETATM   13  C   UNL     1      43.350 -13.873   5.872  1.00  0.00     0.032 A 
BRANCH  10  14
HETATM   14  N   UNL     1      43.578 -19.200   3.569  1.00  0.00    -0.354 N 
HETATM   15  C   UNL     1      43.171 -19.328   2.180  1.00  0.00     0.152 C 
HETATM   16  C   UNL     1      44.649 -20.076   4.017  1.00  0.00     0.152 C 
ENDBRANCH  10  14
ENDBRANCH   1   5
BRANCH   2  17
HETATM   17  C   UNL     1      45.461 -12.086   9.458  1.00  0.00     0.161 C 
BRANCH  17  18
HETATM   18  C   UNL     1      44.112 -11.615   9.853  1.00  0.00     0.035 A 
HETATM   19  N   UNL     1      43.521 -11.867  11.087  1.00  0.00    -0.344 N 
HETATM   20  H   UNL     1      43.986 -12.404  11.828  1.00  0.00     0.167 HD
HETATM   21  C   UNL     1      42.309 -11.335  11.160  1.00  0.00     0.111 A 
HETATM   22  N   UNL     1      42.078 -10.710   9.991  1.00  0.00    -0.317 N 
HETATM   23  C   UNL     1      41.298 -11.348  12.244  1.00  0.00     0.049 A 
HETATM   24  C   UNL     1      43.179 -10.862   9.166  1.00  0.00     0.123 A 
HETATM   25  C   UNL     1      40.899 -10.041   9.727  1.00  0.00     0.098 A 
HETATM   26  C   UNL     1      39.962 -10.036  10.695  1.00  0.00     0.018 A 
HETATM   27  C   UNL     1      40.148 -10.699  11.985  1.00  0.00     0.005 A 
ENDBRANCH  17  18
ENDBRANCH   2  17
TORSDOF 4
ENDMDL
MODEL 7
REMARK VINA RESULT:      -7.5      2.905      9.952
REMARK  4 active torsions:
REMARK  status: ('A' for Active; 'I' for Inactive)
REMARK    1  A    between atoms: N_2  and  C_3 
REMARK    2  A    between atoms: C_9  and  N_10 
REMARK       I    between atoms: N_10  and  C_11 
REMARK    3  A    between atoms: C_11  and  C_12 
REMARK    4  A    between atoms: C_12  and  C_13 
ROOT
HETATM    1  N   UNL     1      41.103 -16.455  -0.554  1.00  0.00    -0.327 N 
HETATM    2  C   UNL     1      41.249 -15.211  -1.144  1.00  0.00     0.227 C 
HETATM    3  O   UNL     1      41.665 -14.191  -0.593  1.00  0.00    -0.273 OA
HETATM    4  H   UNL     1      40.682 -17.195  -1.107  1.00  0.00     0.169 HD
ENDROOT
BRANCH   1   5
HETATM    5  C   UNL     1      41.463 -16.830   0.761  1.00  0.00     0.037 A 
HETATM    6  C   UNL     1      42.661 -17.487   1.077  1.00  0.00     0.069 A 
HETATM    7  C   UNL     1      42.841 -17.821   2.417  1.00  0.00     0.110 A 
HETATM    8  O   UNL     1      43.900 -18.478   2.969  1.00  0.00    -0.276 OA
HETATM    9  C   UNL     1      41.945 -17.545   3.431  1.00  0.00     0.095 A 
HETATM   10  C   UNL     1      43.579 -18.577   4.302  1.00  0.00     0.249 A 
HETATM   11  N   UNL     1      42.426 -18.022   4.620  1.00  0.00    -0.206 NA
HETATM   12  C   UNL     1      40.759 -16.876   3.119  1.00  0.00     0.037 A 
HETATM   13  C   UNL     1      40.532 -16.530   1.776  1.00  0.00     0.032 A 
BRANCH  10  14
HETATM   14  N   UNL     1      44.447 -19.235   5.107  1.00  0.00    -0.354 N 
HETATM   15  C   UNL     1      45.143 -20.397   4.581  1.00  0.00     0.152 C 
HETATM   16  C   UNL     1      45.168 -18.429   6.079  1.00  0.00     0.152 C 
ENDBRANCH  10  14
ENDBRANCH   1   5
BRANCH   2  17
HETATM   17  C   UNL     1      40.842 -15.210  -2.608  1.00  0.00     0.161 C 
BRANCH  17  18
HETATM   18  C   UNL     1      40.856 -13.861  -3.223  1.00  0.00     0.035 A 
HETATM   19  N   UNL     1      42.008 -13.187  -3.615  1.00  0.00    -0.344 N 
HETATM   20  H   UNL     1      42.949 -13.583  -3.509  1.00  0.00     0.167 HD
HETATM   21  C   UNL     1      41.722 -11.996  -4.124  1.00  0.00     0.111 A 
HETATM   22  N   UNL     1      40.383 -11.864  -4.095  1.00  0.00    -0.317 N 
HETATM   23  C   UNL     1      42.595 -10.922  -4.654  1.00  0.00     0.049 A 
HETATM   24  C   UNL     1      39.822 -13.004  -3.548  1.00  0.00     0.123 A 
HETATM   25  C   UNL     1      39.739 -10.732  -4.557  1.00  0.00     0.098 A 
HETATM   26  C   UNL     1      40.509  -9.740  -5.044  1.00  0.00     0.018 A 
HETATM   27  C   UNL     1      41.967  -9.819  -5.101  1.00  0.00     0.005 A 
ENDBRANCH  17  18
ENDBRANCH   2  17
TORSDOF 4
ENDMDL
MODEL 8
REMARK VINA RESULT:      -7.5      1.985      3.255
REMARK  4 active torsions:
REMARK  status: ('A' for Active; 'I' for Inactive)
REMARK    1  A    between atoms: N_2  and  C_3 
REMARK    2  A    between atoms: C_9  and  N_10 
REMARK       I    between atoms: N_10  and  C_11 
REMARK    3  A    between atoms: C_11  and  C_12 
REMARK    4  A    between atoms: C_12  and  C_13 
ROOT
HETATM    1  N   UNL     1      43.164 -15.522   3.120  1.00  0.00    -0.327 N 
HETATM    2  C   UNL     1      42.608 -16.133   4.231  1.00  0.00     0.227 C 
HETATM    3  O   UNL     1      41.414 -16.149   4.530  1.00  0.00    -0.273 OA
HETATM    4  H   UNL     1      44.175 -15.527   3.032  1.00  0.00     0.169 HD
ENDROOT
BRANCH   1   5
HETATM    5  C   UNL     1      42.482 -14.861   2.071  1.00  0.00     0.037 A 
HETATM    6  C   UNL     1      41.904 -15.531   0.983  1.00  0.00     0.069 A 
HETATM    7  C   UNL     1      41.305 -14.727   0.017  1.00  0.00     0.110 A 
HETATM    8  O   UNL     1      40.702 -15.131  -1.136  1.00  0.00    -0.276 OA
HETATM    9  C   UNL     1      41.235 -13.348   0.065  1.00  0.00     0.095 A 
HETATM   10  C   UNL     1      40.305 -13.962  -1.739  1.00  0.00     0.249 A 
HETATM   11  N   UNL     1      40.594 -12.876  -1.048  1.00  0.00    -0.206 NA
HETATM   12  C   UNL     1      41.796 -12.682   1.157  1.00  0.00     0.037 A 
HETATM   13  C   UNL     1      42.421 -13.456   2.150  1.00  0.00     0.032 A 
BRANCH  10  14
HETATM   14  N   UNL     1      39.702 -14.054  -2.947  1.00  0.00    -0.354 N 
HETATM   15  C   UNL     1      39.752 -15.320  -3.658  1.00  0.00     0.152 C 
HETATM   16  C   UNL     1      38.506 -13.247  -3.138  1.00  0.00     0.152 C 
ENDBRANCH  10  14
ENDBRANCH   1   5
BRANCH   2  17
HETATM   17  C   UNL     1      43.649 -16.828   5.093  1.00  0.00     0.161 C 
BRANCH  17  18
HETATM   18  C   UNL     1      43.917 -18.227   4.681  1.00  0.00     0.035 A 
HETATM   19  N   UNL     1      43.754 -18.710   3.387  1.00  0.00    -0.344 N 
HETATM   20  H   UNL     1      43.435 -18.122   2.608  1.00  0.00     0.167 HD
HETATM   21  C   UNL     1      44.057 -19.999   3.310  1.00  0.00     0.111 A 
HETATM   22  N   UNL     1      44.440 -20.390   4.540  1.00  0.00    -0.317 N 
HETATM   23  C   UNL     1      44.026 -20.946   2.171  1.00  0.00     0.049 A 
HETATM   24  C   UNL     1      44.368 -19.313   5.406  1.00  0.00     0.123 A 
HETATM   25  C   UNL     1      44.829 -21.686   4.819  1.00  0.00     0.098 A 
HETATM   26  C   UNL     1      44.810 -22.568   3.801  1.00  0.00     0.018 A 
HETATM   27  C   UNL     1      44.402 -22.209   2.444  1.00  0.00     0.005 A 
ENDBRANCH  17  18
ENDBRANCH   2  17
TORSDOF 4
ENDMDL
MODEL 9
REMARK VINA RESULT:      -7.4      3.713      4.181
REMARK  4 active torsions:
REMARK  status: ('A' for Active; 'I' for Inactive)
REMARK    1  A    between atoms: N_2  and  C_3 
REMARK    2  A    between atoms: C_9  and  N_10 
REMARK       I    between atoms: N_10  and  C_11 
REMARK    3  A    between atoms: C_11  and  C_12 
REMARK    4  A    between atoms: C_12  and  C_13 
ROOT
HETATM    1  N   UNL     1      41.460 -15.624   4.037  1.00  0.00    -0.327 N 
HETATM    2  C   UNL     1      42.831 -15.699   3.855  1.00  0.00     0.227 C 
HETATM    3  O   UNL     1      43.480 -15.119   2.984  1.00  0.00    -0.273 OA
HETATM    4  H   UNL     1      41.045 -16.209   4.754  1.00  0.00     0.169 HD
ENDROOT
BRANCH   1   5
HETATM    5  C   UNL     1      40.541 -14.823   3.320  1.00  0.00     0.037 A 
HETATM    6  C   UNL     1      40.265 -13.486   3.643  1.00  0.00     0.069 A 
HETATM    7  C   UNL     1      39.302 -12.854   2.861  1.00  0.00     0.110 A 
HETATM    8  O   UNL     1      38.843 -11.577   2.988  1.00  0.00    -0.276 OA
HETATM    9  C   UNL     1      38.626 -13.439   1.807  1.00  0.00     0.095 A 
HETATM   10  C   UNL     1      37.894 -11.459   2.000  1.00  0.00     0.249 A 
HETATM   11  N   UNL     1      37.744 -12.543   1.267  1.00  0.00    -0.206 NA
HETATM   12  C   UNL     1      38.914 -14.764   1.475  1.00  0.00     0.037 A 
HETATM   13  C   UNL     1      39.871 -15.445   2.247  1.00  0.00     0.032 A 
BRANCH  10  14
HETATM   14  N   UNL     1      37.226 -10.285   1.913  1.00  0.00    -0.354 N 
HETATM   15  C   UNL     1      37.984  -9.045   1.942  1.00  0.00     0.152 C 
HETATM   16  C   UNL     1      36.013 -10.288   1.110  1.00  0.00     0.152 C 
ENDBRANCH  10  14
ENDBRANCH   1   5
BRANCH   2  17
HETATM   17  C   UNL     1      43.506 -16.594   4.880  1.00  0.00     0.161 C 
BRANCH  17  18
HETATM   18  C   UNL     1      43.761 -17.969   4.386  1.00  0.00     0.035 A 
HETATM   19  N   UNL     1      43.449 -18.414   3.106  1.00  0.00    -0.344 N 
HETATM   20  H   UNL     1      43.016 -17.812   2.396  1.00  0.00     0.167 HD
HETATM   21  C   UNL     1      43.777 -19.689   2.944  1.00  0.00     0.111 A 
HETATM   22  N   UNL     1      44.324 -20.108   4.101  1.00  0.00    -0.317 N 
HETATM   23  C   UNL     1      43.629 -20.599   1.784  1.00  0.00     0.049 A 
HETATM   24  C   UNL     1      44.331 -19.063   5.008  1.00  0.00     0.123 A 
HETATM   25  C   UNL     1      44.783 -21.398   4.280  1.00  0.00     0.098 A 
HETATM   26  C   UNL     1      44.661 -22.246   3.242  1.00  0.00     0.018 A 
HETATM   27  C   UNL     1      44.074 -21.857   1.961  1.00  0.00     0.005 A 
ENDBRANCH  17  18
ENDBRANCH   2  17
TORSDOF 4
ENDMDL
MODEL 10
REMARK VINA RESULT:      -7.4      3.995      9.849
REMARK  4 active torsions:
REMARK  status: ('A' for Active; 'I' for Inactive)
REMARK    1  A    between atoms: N_2  and  C_3 
REMARK    2  A    between atoms: C_9  and  N_10 
REMARK       I    between atoms: N_10  and  C_11 
REMARK    3  A    between atoms: C_11  and  C_12 
REMARK    4  A    between atoms: C_12  and  C_13 
ROOT
HETATM    1  N   UNL     1      42.617 -14.823   4.891  1.00  0.00    -0.327 N 
HETATM    2  C   UNL     1      43.044 -13.724   4.166  1.00  0.00     0.227 C 
HETATM    3  O   UNL     1      44.086 -13.645   3.515  1.00  0.00    -0.273 OA
HETATM    4  H   UNL     1      41.768 -14.728   5.440  1.00  0.00     0.169 HD
ENDROOT
BRANCH   1   5
HETATM    5  C   UNL     1      43.238 -16.091   4.977  1.00  0.00     0.037 A 
HETATM    6  C   UNL     1      43.178 -17.052   3.957  1.00  0.00     0.069 A 
HETATM    7  C   UNL     1      43.810 -18.264   4.219  1.00  0.00     0.110 A 
HETATM    8  O   UNL     1      43.872 -19.356   3.407  1.00  0.00    -0.276 OA
HETATM    9  C   UNL     1      44.486 -18.571   5.385  1.00  0.00     0.095 A 
HETATM   10  C   UNL     1      44.579 -20.282   4.137  1.00  0.00     0.249 A 
HETATM   11  N   UNL     1      44.974 -19.847   5.317  1.00  0.00    -0.206 NA
HETATM   12  C   UNL     1      44.560 -17.608   6.394  1.00  0.00     0.037 A 
HETATM   13  C   UNL     1      43.924 -16.373   6.175  1.00  0.00     0.032 A 
BRANCH  10  14
HETATM   14  N   UNL     1      44.764 -21.504   3.586  1.00  0.00    -0.354 N 
HETATM   15  C   UNL     1      44.719 -22.673   4.448  1.00  0.00     0.152 C 
HETATM   16  C   UNL     1      44.283 -21.681   2.225  1.00  0.00     0.152 C 
ENDBRANCH  10  14
ENDBRANCH   1   5
BRANCH   2  17
HETATM   17  C   UNL     1      42.065 -12.565   4.234  1.00  0.00     0.161 C 
BRANCH  17  18
HETATM   18  C   UNL     1      40.880 -12.741   3.360  1.00  0.00     0.035 A 
HETATM   19  N   UNL     1      40.001 -11.720   3.013  1.00  0.00    -0.344 N 
HETATM   20  H   UNL     1      40.112 -10.753   3.340  1.00  0.00     0.167 HD
HETATM   21  C   UNL     1      39.028 -12.166   2.229  1.00  0.00     0.111 A 
HETATM   22  N   UNL     1      39.250 -13.479   2.029  1.00  0.00    -0.317 N 
HETATM   23  C   UNL     1      37.865 -11.476   1.624  1.00  0.00     0.049 A 
HETATM   24  C   UNL     1      40.391 -13.859   2.712  1.00  0.00     0.123 A 
HETATM   25  C   UNL     1      38.420 -14.260   1.249  1.00  0.00     0.098 A 
HETATM   26  C   UNL     1      37.355 -13.659   0.686  1.00  0.00     0.018 A 
HETATM   27  C   UNL     1      37.055 -12.239   0.867  1.00  0.00     0.005 A 
ENDBRANCH  17  18
ENDBRANCH   2  17
TORSDOF 4
ENDMDL
