MODEL 1
REMARK VINA RESULT:      -9.3      0.000      0.000
REMARK  8 active torsions:
REMARK  status: ('A' for Active; 'I' for Inactive)
REMARK    1  A    between atoms: C_4  and  C_5 
REMARK    2  A    between atoms: C_5  and  N_6 
REMARK    3  A    between atoms: C_11  and  C_12 
REMARK       I    between atoms: C_12  and  N_13 
REMARK    4  A    between atoms: C_15  and  N_16 
REMARK       I    between atoms: N_16  and  C_17 
REMARK    5  A    between atoms: C_17  and  C_18 
REMARK    6  A    between atoms: C_18  and  C_19 
REMARK    7  A    between atoms: C_19  and  S_20 
REMARK    8  A    between atoms: S_20  and  C_21 
ROOT
HETATM    1  N   UNL     1      42.369 -18.557   4.831  1.00  0.00    -0.063 N 
HETATM    2  H   UNL     1      42.024 -19.517   4.919  1.00  0.00     0.280 HD
HETATM    3  C   UNL     1      43.091 -18.258   6.141  1.00  0.00     0.282 C 
HETATM    4  C   UNL     1      43.241 -16.792   6.352  1.00  0.00     0.018 C 
HETATM    5  C   UNL     1      42.562 -15.807   5.663  1.00  0.00    -0.023 C 
HETATM    6  C   UNL     1      43.000 -14.483   6.053  1.00  0.00     0.073 C 
HETATM    7  C   UNL     1      43.823 -14.554   7.172  1.00  0.00     0.093 C 
HETATM    8  S   UNL     1      44.257 -16.158   7.544  1.00  0.00    -0.074 SA
HETATM    9  C   UNL     1      41.546 -16.157   4.610  1.00  0.00     0.068 C 
HETATM   10  C   UNL     1      41.153 -17.649   4.665  1.00  0.00     0.240 C 
ENDROOT
BRANCH   7  11
HETATM   11  N   UNL     1      44.234 -13.501   7.978  1.00  0.00    -0.320 N 
HETATM   12  C   UNL     1      45.474 -12.885   7.979  1.00  0.00     0.223 C 
HETATM   13  O   UNL     1      46.360 -13.012   7.141  1.00  0.00    -0.273 OA
HETATM   14  H   UNL     1      43.561 -13.174   8.669  1.00  0.00     0.169 HD
BRANCH  12  15
HETATM   15  C   UNL     1      45.670 -11.962   9.168  1.00  0.00     0.113 C 
BRANCH  15  16
HETATM   16  C   UNL     1      44.583 -12.121  10.223  1.00  0.00     0.088 C 
BRANCH  16  17
HETATM   17  S   UNL     1      43.325 -10.799  10.075  1.00  0.00    -0.130 SA
BRANCH  17  18
HETATM   18  C   UNL     1      42.891 -10.431  11.770  1.00  0.00     0.000 A 
HETATM   19  C   UNL     1      43.617  -9.590  12.620  1.00  0.00     0.020 A 
HETATM   20  C   UNL     1      43.194  -9.371  13.937  1.00  0.00     0.025 A 
HETATM   21  C   UNL     1      42.043  -9.991  14.412  1.00  0.00     0.034 A 
HETATM   22 CL   UNL     1      41.527  -9.718  16.029  1.00  0.00    -0.084 Cl
HETATM   23  C   UNL     1      41.309 -10.831  13.582  1.00  0.00     0.025 A 
HETATM   24  C   UNL     1      41.734 -11.050  12.268  1.00  0.00     0.020 A 
ENDBRANCH  17  18
ENDBRANCH  16  17
ENDBRANCH  15  16
ENDBRANCH  12  15
ENDBRANCH   7  11
BRANCH   6  25
HETATM   25  C   UNL     1      42.570 -13.254   5.387  1.00  0.00     0.252 C 
HETATM   26  N   UNL     1      41.658 -12.493   6.059  1.00  0.00    -0.366 N 
HETATM   27  H   UNL     1      41.471 -12.621   7.045  1.00  0.00     0.159 HD
HETATM   28  H   UNL     1      41.470 -11.574   5.677  1.00  0.00     0.159 HD
HETATM   29  O   UNL     1      43.054 -12.869   4.329  1.00  0.00    -0.268 OA
ENDBRANCH   6  25
BRANCH   1  30
HETATM   30  C   UNL     1      43.259 -18.545   3.607  1.00  0.00     0.273 C 
BRANCH  30  31
HETATM   31  C   UNL     1      43.748 -19.894   3.158  1.00  0.00    -0.033 A 
HETATM   32  C   UNL     1      44.544 -20.702   3.984  1.00  0.00     0.009 A 
HETATM   33  C   UNL     1      44.976 -21.954   3.540  1.00  0.00     0.001 A 
HETATM   34  C   UNL     1      44.605 -22.417   2.279  1.00  0.00     0.000 A 
HETATM   35  C   UNL     1      43.802 -21.631   1.458  1.00  0.00     0.001 A 
HETATM   36  C   UNL     1      43.376 -20.377   1.893  1.00  0.00     0.009 A 
ENDBRANCH  30  31
ENDBRANCH   1  30
TORSDOF 8
ENDMDL
MODEL 2
REMARK VINA RESULT:      -9.0      6.614      9.404
REMARK  8 active torsions:
REMARK  status: ('A' for Active; 'I' for Inactive)
REMARK    1  A    between atoms: C_4  and  C_5 
REMARK    2  A    between atoms: C_5  and  N_6 
REMARK    3  A    between atoms: C_11  and  C_12 
REMARK       I    between atoms: C_12  and  N_13 
REMARK    4  A    between atoms: C_15  and  N_16 
REMARK       I    between atoms: N_16  and  C_17 
REMARK    5  A    between atoms: C_17  and  C_18 
REMARK    6  A    between atoms: C_18  and  C_19 
REMARK    7  A    between atoms: C_19  and  S_20 
REMARK    8  A    between atoms: S_20  and  C_21 
ROOT
HETATM    1  N   UNL     1      43.294 -17.823   4.926  1.00  0.00    -0.063 N 
HETATM    2  H   UNL     1      43.292 -18.299   5.833  1.00  0.00     0.280 HD
HETATM    3  C   UNL     1      43.410 -16.335   5.242  1.00  0.00     0.282 C 
HETATM    4  C   UNL     1      42.969 -15.504   4.089  1.00  0.00     0.018 C 
HETATM    5  C   UNL     1      42.249 -15.954   3.001  1.00  0.00    -0.023 C 
HETATM    6  C   UNL     1      42.054 -14.909   2.018  1.00  0.00     0.073 C 
HETATM    7  C   UNL     1      42.448 -13.678   2.533  1.00  0.00     0.093 C 
HETATM    8  S   UNL     1      43.267 -13.841   4.018  1.00  0.00    -0.074 SA
HETATM    9  C   UNL     1      41.809 -17.390   2.903  1.00  0.00     0.068 C 
HETATM   10  C   UNL     1      41.960 -18.130   4.250  1.00  0.00     0.240 C 
ENDROOT
BRANCH   7  11
HETATM   11  N   UNL     1      42.190 -12.425   1.997  1.00  0.00    -0.320 N 
HETATM   12  C   UNL     1      41.024 -11.688   2.121  1.00  0.00     0.223 C 
HETATM   13  O   UNL     1      40.092 -11.907   2.887  1.00  0.00    -0.273 OA
HETATM   14  H   UNL     1      42.924 -12.023   1.418  1.00  0.00     0.169 HD
BRANCH  12  15
HETATM   15  C   UNL     1      40.982 -10.493   1.185  1.00  0.00     0.113 C 
BRANCH  15  16
HETATM   16  C   UNL     1      40.268 -10.795  -0.125  1.00  0.00     0.088 C 
BRANCH  16  17
HETATM   17  S   UNL     1      41.467 -11.052  -1.484  1.00  0.00    -0.130 SA
BRANCH  17  18
HETATM   18  C   UNL     1      40.895 -12.545  -2.283  1.00  0.00     0.000 A 
HETATM   19  C   UNL     1      41.723 -13.547  -2.799  1.00  0.00     0.020 A 
HETATM   20  C   UNL     1      41.174 -14.679  -3.414  1.00  0.00     0.025 A 
HETATM   21  C   UNL     1      39.793 -14.817  -3.515  1.00  0.00     0.034 A 
HETATM   22 CL   UNL     1      39.123 -16.209  -4.269  1.00  0.00    -0.084 Cl
HETATM   23  C   UNL     1      38.954 -13.830  -3.009  1.00  0.00     0.025 A 
HETATM   24  C   UNL     1      39.505 -12.700  -2.398  1.00  0.00     0.020 A 
ENDBRANCH  17  18
ENDBRANCH  16  17
ENDBRANCH  15  16
ENDBRANCH  12  15
ENDBRANCH   7  11
BRANCH   6  25
HETATM   25  C   UNL     1      41.463 -15.131   0.699  1.00  0.00     0.252 C 
HETATM   26  N   UNL     1      42.169 -15.935  -0.149  1.00  0.00    -0.366 N 
HETATM   27  H   UNL     1      42.914 -16.538   0.175  1.00  0.00     0.159 HD
HETATM   28  H   UNL     1      41.698 -16.213  -1.002  1.00  0.00     0.159 HD
HETATM   29  O   UNL     1      40.359 -14.702   0.386  1.00  0.00    -0.268 OA
ENDBRANCH   6  25
BRANCH   1  30
HETATM   30  C   UNL     1      44.466 -18.395   4.158  1.00  0.00     0.273 C 
BRANCH  30  31
HETATM   31  C   UNL     1      44.513 -19.896   4.086  1.00  0.00    -0.033 A 
HETATM   32  C   UNL     1      44.686 -20.684   5.234  1.00  0.00     0.009 A 
HETATM   33  C   UNL     1      44.718 -22.077   5.134  1.00  0.00     0.001 A 
HETATM   34  C   UNL     1      44.560 -22.695   3.895  1.00  0.00     0.000 A 
HETATM   35  C   UNL     1      44.371 -21.924   2.752  1.00  0.00     0.001 A 
HETATM   36  C   UNL     1      44.348 -20.533   2.845  1.00  0.00     0.009 A 
ENDBRANCH  30  31
ENDBRANCH   1  30
TORSDOF 8
ENDMDL
MODEL 3
REMARK VINA RESULT:      -8.7      5.858      9.113
REMARK  8 active torsions:
REMARK  status: ('A' for Active; 'I' for Inactive)
REMARK    1  A    between atoms: C_4  and  C_5 
REMARK    2  A    between atoms: C_5  and  N_6 
REMARK    3  A    between atoms: C_11  and  C_12 
REMARK       I    between atoms: C_12  and  N_13 
REMARK    4  A    between atoms: C_15  and  N_16 
REMARK       I    between atoms: N_16  and  C_17 
REMARK    5  A    between atoms: C_17  and  C_18 
REMARK    6  A    between atoms: C_18  and  C_19 
REMARK    7  A    between atoms: C_19  and  S_20 
REMARK    8  A    between atoms: S_20  and  C_21 
ROOT
HETATM    1  N   UNL     1      39.610 -12.059  -0.384  1.00  0.00    -0.063 N 
HETATM    2  H   UNL     1      38.880 -11.495  -0.829  1.00  0.00     0.280 HD
HETATM    3  C   UNL     1      38.882 -13.227   0.275  1.00  0.00     0.282 C 
HETATM    4  C   UNL     1      39.724 -13.863   1.326  1.00  0.00     0.018 C 
HETATM    5  C   UNL     1      40.862 -13.316   1.884  1.00  0.00    -0.023 C 
HETATM    6  C   UNL     1      41.490 -14.227   2.818  1.00  0.00     0.073 C 
HETATM    7  C   UNL     1      40.659 -15.314   3.069  1.00  0.00     0.093 C 
HETATM    8  S   UNL     1      39.323 -15.354   2.013  1.00  0.00    -0.074 SA
HETATM    9  C   UNL     1      41.352 -11.954   1.471  1.00  0.00     0.068 C 
HETATM   10  C   UNL     1      40.285 -11.181   0.667  1.00  0.00     0.240 C 
ENDROOT
BRANCH   7  11
HETATM   11  N   UNL     1      40.797 -16.258   4.077  1.00  0.00    -0.320 N 
HETATM   12  C   UNL     1      40.825 -16.024   5.442  1.00  0.00     0.223 C 
HETATM   13  O   UNL     1      40.530 -14.982   6.017  1.00  0.00    -0.273 OA
HETATM   14  H   UNL     1      40.932 -17.221   3.777  1.00  0.00     0.169 HD
BRANCH  12  15
HETATM   15  C   UNL     1      41.264 -17.241   6.238  1.00  0.00     0.113 C 
BRANCH  15  16
HETATM   16  C   UNL     1      42.479 -16.964   7.114  1.00  0.00     0.088 C 
BRANCH  16  17
HETATM   17  S   UNL     1      43.948 -16.570   6.095  1.00  0.00    -0.130 SA
BRANCH  17  18
HETATM   18  C   UNL     1      44.076 -17.959   4.976  1.00  0.00     0.000 A 
HETATM   19  C   UNL     1      43.739 -17.929   3.620  1.00  0.00     0.020 A 
HETATM   20  C   UNL     1      43.871 -19.077   2.827  1.00  0.00     0.025 A 
HETATM   21  C   UNL     1      44.342 -20.260   3.387  1.00  0.00     0.034 A 
HETATM   22 CL   UNL     1      44.503 -21.665   2.411  1.00  0.00    -0.084 Cl
HETATM   23  C   UNL     1      44.680 -20.308   4.735  1.00  0.00     0.025 A 
HETATM   24  C   UNL     1      44.546 -19.162   5.524  1.00  0.00     0.020 A 
ENDBRANCH  17  18
ENDBRANCH  16  17
ENDBRANCH  15  16
ENDBRANCH  12  15
ENDBRANCH   7  11
BRANCH   6  25
HETATM   25  C   UNL     1      42.789 -13.985   3.444  1.00  0.00     0.252 C 
HETATM   26  N   UNL     1      42.775 -13.236   4.586  1.00  0.00    -0.366 N 
HETATM   27  H   UNL     1      41.926 -13.065   5.109  1.00  0.00     0.159 HD
HETATM   28  H   UNL     1      43.645 -13.190   5.104  1.00  0.00     0.159 HD
HETATM   29  O   UNL     1      43.828 -14.488   3.035  1.00  0.00    -0.268 OA
ENDBRANCH   6  25
BRANCH   1  30
HETATM   30  C   UNL     1      40.563 -12.457  -1.490  1.00  0.00     0.273 C 
BRANCH  30  31
HETATM   31  C   UNL     1      40.165 -13.681  -2.267  1.00  0.00    -0.033 A 
HETATM   32  C   UNL     1      39.019 -13.700  -3.077  1.00  0.00     0.009 A 
HETATM   33  C   UNL     1      38.681 -14.852  -3.792  1.00  0.00     0.001 A 
HETATM   34  C   UNL     1      39.490 -15.984  -3.720  1.00  0.00     0.000 A 
HETATM   35  C   UNL     1      40.638 -15.971  -2.934  1.00  0.00     0.001 A 
HETATM   36  C   UNL     1      40.974 -14.828  -2.211  1.00  0.00     0.009 A 
ENDBRANCH  30  31
ENDBRANCH   1  30
TORSDOF 8
ENDMDL
MODEL 4
REMARK VINA RESULT:      -8.7      6.270      8.789
REMARK  8 active torsions:
REMARK  status: ('A' for Active; 'I' for Inactive)
REMARK    1  A    between atoms: C_4  and  C_5 
REMARK    2  A    between atoms: C_5  and  N_6 
REMARK    3  A    between atoms: C_11  and  C_12 
REMARK       I    between atoms: C_12  and  N_13 
REMARK    4  A    between atoms: C_15  and  N_16 
REMARK       I    between atoms: N_16  and  C_17 
REMARK    5  A    between atoms: C_17  and  C_18 
REMARK    6  A    between atoms: C_18  and  C_19 
REMARK    7  A    between atoms: C_19  and  S_20 
REMARK    8  A    between atoms: S_20  and  C_21 
ROOT
HETATM    1  N   UNL     1      43.259 -17.749   5.325  1.00  0.00    -0.063 N 
HETATM    2  H   UNL     1      43.615 -18.219   6.162  1.00  0.00     0.280 HD
HETATM    3  C   UNL     1      43.215 -16.265   5.674  1.00  0.00     0.282 C 
HETATM    4  C   UNL     1      42.310 -15.521   4.756  1.00  0.00     0.018 C 
HETATM    5  C   UNL     1      41.377 -16.090   3.912  1.00  0.00    -0.023 C 
HETATM    6  C   UNL     1      40.718 -15.094   3.093  1.00  0.00     0.073 C 
HETATM    7  C   UNL     1      41.040 -13.814   3.534  1.00  0.00     0.093 C 
HETATM    8  S   UNL     1      42.289 -13.832   4.692  1.00  0.00    -0.074 SA
HETATM    9  C   UNL     1      41.175 -17.581   3.871  1.00  0.00     0.068 C 
HETATM   10  C   UNL     1      41.853 -18.285   5.066  1.00  0.00     0.240 C 
ENDROOT
BRANCH   7  11
HETATM   11  N   UNL     1      40.424 -12.624   3.172  1.00  0.00    -0.320 N 
HETATM   12  C   UNL     1      39.396 -11.979   3.840  1.00  0.00     0.223 C 
HETATM   13  O   UNL     1      38.984 -12.222   4.969  1.00  0.00    -0.273 OA
HETATM   14  H   UNL     1      40.735 -12.203   2.299  1.00  0.00     0.169 HD
BRANCH  12  15
HETATM   15  C   UNL     1      38.779 -10.856   3.025  1.00  0.00     0.113 C 
BRANCH  15  16
HETATM   16  C   UNL     1      39.285 -10.826   1.588  1.00  0.00     0.088 C 
BRANCH  16  17
HETATM   17  S   UNL     1      37.986 -11.379   0.422  1.00  0.00    -0.130 SA
BRANCH  17  18
HETATM   18  C   UNL     1      38.813 -12.597  -0.592  1.00  0.00     0.000 A 
HETATM   19  C   UNL     1      38.175 -13.470  -1.478  1.00  0.00     0.020 A 
HETATM   20  C   UNL     1      38.916 -14.395  -2.225  1.00  0.00     0.025 A 
HETATM   21  C   UNL     1      40.299 -14.450  -2.092  1.00  0.00     0.034 A 
HETATM   22 CL   UNL     1      41.205 -15.585  -3.012  1.00  0.00    -0.084 Cl
HETATM   23  C   UNL     1      40.951 -13.590  -1.215  1.00  0.00     0.025 A 
HETATM   24  C   UNL     1      40.210 -12.669  -0.469  1.00  0.00     0.020 A 
ENDBRANCH  17  18
ENDBRANCH  16  17
ENDBRANCH  15  16
ENDBRANCH  12  15
ENDBRANCH   7  11
BRANCH   6  25
HETATM   25  C   UNL     1      39.798 -15.413   2.004  1.00  0.00     0.252 C 
HETATM   26  N   UNL     1      40.268 -16.269   1.050  1.00  0.00    -0.366 N 
HETATM   27  H   UNL     1      41.090 -16.841   1.197  1.00  0.00     0.159 HD
HETATM   28  H   UNL     1      39.592 -16.611   0.378  1.00  0.00     0.159 HD
HETATM   29  O   UNL     1      38.639 -15.017   1.976  1.00  0.00    -0.268 OA
ENDBRANCH   6  25
BRANCH   1  30
HETATM   30  C   UNL     1      44.217 -18.104   4.209  1.00  0.00     0.273 C 
BRANCH  30  31
HETATM   31  C   UNL     1      44.304 -19.568   3.880  1.00  0.00    -0.033 A 
HETATM   32  C   UNL     1      43.950 -20.062   2.615  1.00  0.00     0.009 A 
HETATM   33  C   UNL     1      44.049 -21.428   2.339  1.00  0.00     0.001 A 
HETATM   34  C   UNL     1      44.517 -22.307   3.313  1.00  0.00     0.000 A 
HETATM   35  C   UNL     1      44.887 -21.826   4.566  1.00  0.00     0.001 A 
HETATM   36  C   UNL     1      44.780 -20.466   4.849  1.00  0.00     0.009 A 
ENDBRANCH  30  31
ENDBRANCH   1  30
TORSDOF 8
ENDMDL
MODEL 5
REMARK VINA RESULT:      -8.6      3.669     10.666
REMARK  8 active torsions:
REMARK  status: ('A' for Active; 'I' for Inactive)
REMARK    1  A    between atoms: C_4  and  C_5 
REMARK    2  A    between atoms: C_5  and  N_6 
REMARK    3  A    between atoms: C_11  and  C_12 
REMARK       I    between atoms: C_12  and  N_13 
REMARK    4  A    between atoms: C_15  and  N_16 
REMARK       I    between atoms: N_16  and  C_17 
REMARK    5  A    between atoms: C_17  and  C_18 
REMARK    6  A    between atoms: C_18  and  C_19 
REMARK    7  A    between atoms: C_19  and  S_20 
REMARK    8  A    between atoms: S_20  and  C_21 
ROOT
HETATM    1  N   UNL     1      44.470 -11.420   9.685  1.00  0.00    -0.063 N 
HETATM    2  H   UNL     1      45.165 -10.831  10.152  1.00  0.00     0.280 HD
HETATM    3  C   UNL     1      45.263 -12.328   8.750  1.00  0.00     0.282 C 
HETATM    4  C   UNL     1      44.391 -12.904   7.690  1.00  0.00     0.018 C 
HETATM    5  C   UNL     1      43.127 -12.460   7.360  1.00  0.00    -0.023 C 
HETATM    6  C   UNL     1      42.517 -13.288   6.341  1.00  0.00     0.073 C 
HETATM    7  C   UNL     1      43.453 -14.170   5.809  1.00  0.00     0.093 C 
HETATM    8  S   UNL     1      44.905 -14.174   6.700  1.00  0.00    -0.074 SA
HETATM    9  C   UNL     1      42.509 -11.283   8.067  1.00  0.00     0.068 C 
HETATM   10  C   UNL     1      43.552 -10.496   8.890  1.00  0.00     0.240 C 
ENDROOT
BRANCH   7  11
HETATM   11  N   UNL     1      43.320 -14.940   4.662  1.00  0.00    -0.320 N 
HETATM   12  C   UNL     1      43.177 -14.483   3.362  1.00  0.00     0.223 C 
HETATM   13  O   UNL     1      43.346 -13.336   2.961  1.00  0.00    -0.273 OA
HETATM   14  H   UNL     1      43.285 -15.948   4.797  1.00  0.00     0.169 HD
BRANCH  12  15
HETATM   15  C   UNL     1      42.782 -15.583   2.393  1.00  0.00     0.113 C 
BRANCH  15  16
HETATM   16  C   UNL     1      43.926 -16.545   2.097  1.00  0.00     0.088 C 
BRANCH  16  17
HETATM   17  S   UNL     1      43.316 -18.051   1.255  1.00  0.00    -0.130 SA
BRANCH  17  18
HETATM   18  C   UNL     1      43.861 -19.384   2.316  1.00  0.00     0.000 A 
HETATM   19  C   UNL     1      43.964 -20.724   1.931  1.00  0.00     0.020 A 
HETATM   20  C   UNL     1      44.397 -21.696   2.843  1.00  0.00     0.025 A 
HETATM   21  C   UNL     1      44.731 -21.332   4.143  1.00  0.00     0.034 A 
HETATM   22 CL   UNL     1      45.264 -22.527   5.258  1.00  0.00    -0.084 Cl
HETATM   23  C   UNL     1      44.634 -20.004   4.543  1.00  0.00     0.025 A 
HETATM   24  C   UNL     1      44.200 -19.036   3.633  1.00  0.00     0.020 A 
ENDBRANCH  17  18
ENDBRANCH  16  17
ENDBRANCH  15  16
ENDBRANCH  12  15
ENDBRANCH   7  11
BRANCH   6  25
HETATM   25  C   UNL     1      41.129 -13.154   5.905  1.00  0.00     0.252 C 
HETATM   26  N   UNL     1      40.247 -14.065   6.412  1.00  0.00    -0.366 N 
HETATM   27  H   UNL     1      40.467 -14.637   7.217  1.00  0.00     0.159 HD
HETATM   28  H   UNL     1      39.266 -13.888   6.235  1.00  0.00     0.159 HD
HETATM   29  O   UNL     1      40.742 -12.233   5.196  1.00  0.00    -0.268 OA
ENDBRANCH   6  25
BRANCH   1  30
HETATM   30  C   UNL     1      43.731 -12.147  10.788  1.00  0.00     0.273 C 
BRANCH  30  31
HETATM   31  C   UNL     1      43.142 -11.265  11.853  1.00  0.00    -0.033 A 
HETATM   32  C   UNL     1      41.853 -11.484  12.362  1.00  0.00     0.009 A 
HETATM   33  C   UNL     1      41.337 -10.650  13.357  1.00  0.00     0.001 A 
HETATM   34  C   UNL     1      42.107  -9.605  13.864  1.00  0.00     0.000 A 
HETATM   35  C   UNL     1      43.393  -9.389  13.379  1.00  0.00     0.001 A 
HETATM   36  C   UNL     1      43.909 -10.213  12.379  1.00  0.00     0.009 A 
ENDBRANCH  30  31
ENDBRANCH   1  30
TORSDOF 8
ENDMDL
MODEL 6
REMARK VINA RESULT:      -8.6      6.042      9.648
REMARK  8 active torsions:
REMARK  status: ('A' for Active; 'I' for Inactive)
REMARK    1  A    between atoms: C_4  and  C_5 
REMARK    2  A    between atoms: C_5  and  N_6 
REMARK    3  A    between atoms: C_11  and  C_12 
REMARK       I    between atoms: C_12  and  N_13 
REMARK    4  A    between atoms: C_15  and  N_16 
REMARK       I    between atoms: N_16  and  C_17 
REMARK    5  A    between atoms: C_17  and  C_18 
REMARK    6  A    between atoms: C_18  and  C_19 
REMARK    7  A    between atoms: C_19  and  S_20 
REMARK    8  A    between atoms: S_20  and  C_21 
ROOT
HETATM    1  N   UNL     1      40.681 -13.560  -0.373  1.00  0.00    -0.063 N 
HETATM    2  H   UNL     1      40.510 -13.788  -1.357  1.00  0.00     0.280 HD
HETATM    3  C   UNL     1      41.683 -14.599   0.121  1.00  0.00     0.282 C 
HETATM    4  C   UNL     1      41.678 -14.688   1.607  1.00  0.00     0.018 C 
HETATM    5  C   UNL     1      40.707 -14.171   2.440  1.00  0.00    -0.023 C 
HETATM    6  C   UNL     1      41.045 -14.357   3.836  1.00  0.00     0.073 C 
HETATM    7  C   UNL     1      42.142 -15.203   3.961  1.00  0.00     0.093 C 
HETATM    8  S   UNL     1      42.881 -15.516   2.459  1.00  0.00    -0.074 SA
HETATM    9  C   UNL     1      39.502 -13.462   1.882  1.00  0.00     0.068 C 
HETATM   10  C   UNL     1      39.351 -13.698   0.363  1.00  0.00     0.240 C 
ENDROOT
BRANCH   7  11
HETATM   11  N   UNL     1      42.605 -15.809   5.121  1.00  0.00    -0.320 N 
HETATM   12  C   UNL     1      41.971 -16.797   5.856  1.00  0.00     0.223 C 
HETATM   13  O   UNL     1      40.997 -17.460   5.514  1.00  0.00    -0.273 OA
HETATM   14  H   UNL     1      43.486 -15.460   5.491  1.00  0.00     0.169 HD
BRANCH  12  15
HETATM   15  C   UNL     1      42.622 -17.033   7.207  1.00  0.00     0.113 C 
BRANCH  15  16
HETATM   16  C   UNL     1      43.297 -18.395   7.306  1.00  0.00     0.088 C 
BRANCH  16  17
HETATM   17  S   UNL     1      44.927 -18.382   6.471  1.00  0.00    -0.130 SA
BRANCH  17  18
HETATM   18  C   UNL     1      44.650 -19.328   4.979  1.00  0.00     0.000 A 
HETATM   19  C   UNL     1      44.161 -18.806   3.778  1.00  0.00     0.020 A 
HETATM   20  C   UNL     1      43.973 -19.636   2.665  1.00  0.00     0.025 A 
HETATM   21  C   UNL     1      44.274 -20.991   2.746  1.00  0.00     0.034 A 
HETATM   22 CL   UNL     1      44.044 -22.005   1.378  1.00  0.00    -0.084 Cl
HETATM   23  C   UNL     1      44.760 -21.528   3.934  1.00  0.00     0.025 A 
HETATM   24  C   UNL     1      44.945 -20.699   5.044  1.00  0.00     0.020 A 
ENDBRANCH  17  18
ENDBRANCH  16  17
ENDBRANCH  15  16
ENDBRANCH  12  15
ENDBRANCH   7  11
BRANCH   6  25
HETATM   25  C   UNL     1      40.284 -13.780   4.943  1.00  0.00     0.252 C 
HETATM   26  N   UNL     1      39.406 -14.615   5.570  1.00  0.00    -0.366 N 
HETATM   27  H   UNL     1      39.444 -15.620   5.459  1.00  0.00     0.159 HD
HETATM   28  H   UNL     1      38.988 -14.270   6.426  1.00  0.00     0.159 HD
HETATM   29  O   UNL     1      40.472 -12.641   5.355  1.00  0.00    -0.268 OA
ENDBRANCH   6  25
BRANCH   1  30
HETATM   30  C   UNL     1      41.195 -12.137  -0.358  1.00  0.00     0.273 C 
BRANCH  30  31
HETATM   31  C   UNL     1      41.638 -11.602  -1.692  1.00  0.00    -0.033 A 
HETATM   32  C   UNL     1      42.293 -10.366  -1.810  1.00  0.00     0.009 A 
HETATM   33  C   UNL     1      42.697  -9.901  -3.064  1.00  0.00     0.001 A 
HETATM   34  C   UNL     1      42.471 -10.670  -4.203  1.00  0.00     0.000 A 
HETATM   35  C   UNL     1      41.838 -11.905  -4.095  1.00  0.00     0.001 A 
HETATM   36  C   UNL     1      41.423 -12.369  -2.848  1.00  0.00     0.009 A 
ENDBRANCH  30  31
ENDBRANCH   1  30
TORSDOF 8
ENDMDL
MODEL 7
REMARK VINA RESULT:      -8.4      2.607      3.635
REMARK  8 active torsions:
REMARK  status: ('A' for Active; 'I' for Inactive)
REMARK    1  A    between atoms: C_4  and  C_5 
REMARK    2  A    between atoms: C_5  and  N_6 
REMARK    3  A    between atoms: C_11  and  C_12 
REMARK       I    between atoms: C_12  and  N_13 
REMARK    4  A    between atoms: C_15  and  N_16 
REMARK       I    between atoms: N_16  and  C_17 
REMARK    5  A    between atoms: C_17  and  C_18 
REMARK    6  A    between atoms: C_18  and  C_19 
REMARK    7  A    between atoms: C_19  and  S_20 
REMARK    8  A    between atoms: S_20  and  C_21 
ROOT
HETATM    1  N   UNL     1      43.233 -18.048   5.244  1.00  0.00    -0.063 N 
HETATM    2  H   UNL     1      43.340 -18.820   5.909  1.00  0.00     0.280 HD
HETATM    3  C   UNL     1      43.489 -16.776   6.048  1.00  0.00     0.282 C 
HETATM    4  C   UNL     1      42.929 -15.581   5.358  1.00  0.00     0.018 C 
HETATM    5  C   UNL     1      42.025 -15.604   4.316  1.00  0.00    -0.023 C 
HETATM    6  C   UNL     1      41.747 -14.273   3.819  1.00  0.00     0.073 C 
HETATM    7  C   UNL     1      42.292 -13.315   4.667  1.00  0.00     0.093 C 
HETATM    8  S   UNL     1      43.316 -14.007   5.839  1.00  0.00    -0.074 SA
HETATM    9  C   UNL     1      41.487 -16.906   3.785  1.00  0.00     0.068 C 
HETATM   10  C   UNL     1      41.795 -18.084   4.734  1.00  0.00     0.240 C 
ENDROOT
BRANCH   7  11
HETATM   11  N   UNL     1      42.033 -11.951   4.666  1.00  0.00    -0.320 N 
HETATM   12  C   UNL     1      40.820 -11.331   4.912  1.00  0.00     0.223 C 
HETATM   13  O   UNL     1      39.809 -11.848   5.376  1.00  0.00    -0.273 OA
HETATM   14  H   UNL     1      42.812 -11.345   4.416  1.00  0.00     0.169 HD
BRANCH  12  15
HETATM   15  C   UNL     1      40.832  -9.855   4.559  1.00  0.00     0.113 C 
BRANCH  15  16
HETATM   16  C   UNL     1      41.486  -8.997   5.635  1.00  0.00     0.088 C 
BRANCH  16  17
HETATM   17  S   UNL     1      40.352  -8.741   7.049  1.00  0.00    -0.130 SA
BRANCH  17  18
HETATM   18  C   UNL     1      41.307  -9.275   8.464  1.00  0.00     0.000 A 
HETATM   19  C   UNL     1      42.231 -10.324   8.458  1.00  0.00     0.020 A 
HETATM   20  C   UNL     1      42.926 -10.669   9.624  1.00  0.00     0.025 A 
HETATM   21  C   UNL     1      42.701  -9.965  10.803  1.00  0.00     0.034 A 
HETATM   22 CL   UNL     1      43.556 -10.390  12.232  1.00  0.00    -0.084 Cl
HETATM   23  C   UNL     1      41.784  -8.920  10.828  1.00  0.00     0.025 A 
HETATM   24  C   UNL     1      41.091  -8.578   9.663  1.00  0.00     0.020 A 
ENDBRANCH  17  18
ENDBRANCH  16  17
ENDBRANCH  15  16
ENDBRANCH  12  15
ENDBRANCH   7  11
BRANCH   6  25
HETATM   25  C   UNL     1      40.950 -14.000   2.624  1.00  0.00     0.252 C 
HETATM   26  N   UNL     1      39.604 -13.874   2.816  1.00  0.00    -0.366 N 
HETATM   27  H   UNL     1      39.201 -13.730   3.733  1.00  0.00     0.159 HD
HETATM   28  H   UNL     1      39.066 -13.539   2.025  1.00  0.00     0.159 HD
HETATM   29  O   UNL     1      41.449 -13.804   1.523  1.00  0.00    -0.268 OA
ENDBRANCH   6  25
BRANCH   1  30
HETATM   30  C   UNL     1      44.236 -18.304   4.141  1.00  0.00     0.273 C 
BRANCH  30  31
HETATM   31  C   UNL     1      44.242 -19.705   3.595  1.00  0.00    -0.033 A 
HETATM   32  C   UNL     1      43.840 -19.986   2.280  1.00  0.00     0.009 A 
HETATM   33  C   UNL     1      43.864 -21.298   1.801  1.00  0.00     0.001 A 
HETATM   34  C   UNL     1      44.305 -22.335   2.620  1.00  0.00     0.000 A 
HETATM   35  C   UNL     1      44.722 -22.066   3.920  1.00  0.00     0.001 A 
HETATM   36  C   UNL     1      44.691 -20.760   4.406  1.00  0.00     0.009 A 
ENDBRANCH  30  31
ENDBRANCH   1  30
TORSDOF 8
ENDMDL
MODEL 8
REMARK VINA RESULT:      -8.3      7.224     10.315
REMARK  8 active torsions:
REMARK  status: ('A' for Active; 'I' for Inactive)
REMARK    1  A    between atoms: C_4  and  C_5 
REMARK    2  A    between atoms: C_5  and  N_6 
REMARK    3  A    between atoms: C_11  and  C_12 
REMARK       I    between atoms: C_12  and  N_13 
REMARK    4  A    between atoms: C_15  and  N_16 
REMARK       I    between atoms: N_16  and  C_17 
REMARK    5  A    between atoms: C_17  and  C_18 
REMARK    6  A    between atoms: C_18  and  C_19 
REMARK    7  A    between atoms: C_19  and  S_20 
REMARK    8  A    between atoms: S_20  and  C_21 
ROOT
HETATM    1  N   UNL     1      39.584 -13.669  -3.033  1.00  0.00    -0.063 N 
HETATM    2  H   UNL     1      39.508 -13.013  -3.816  1.00  0.00     0.280 HD
HETATM    3  C   UNL     1      39.921 -12.816  -1.813  1.00  0.00     0.282 C 
HETATM    4  C   UNL     1      40.506 -13.643  -0.723  1.00  0.00     0.018 C 
HETATM    5  C   UNL     1      40.994 -14.927  -0.860  1.00  0.00    -0.023 C 
HETATM    6  C   UNL     1      41.416 -15.478   0.410  1.00  0.00     0.073 C 
HETATM    7  C   UNL     1      41.427 -14.489   1.389  1.00  0.00     0.093 C 
HETATM    8  S   UNL     1      40.696 -13.048   0.848  1.00  0.00    -0.074 SA
HETATM    9  C   UNL     1      40.995 -15.617  -2.198  1.00  0.00     0.068 C 
HETATM   10  C   UNL     1      40.726 -14.629  -3.353  1.00  0.00     0.240 C 
ENDROOT
BRANCH   7  11
HETATM   11  N   UNL     1      42.000 -14.566   2.651  1.00  0.00    -0.320 N 
HETATM   12  C   UNL     1      41.337 -14.642   3.864  1.00  0.00     0.223 C 
HETATM   13  O   UNL     1      40.144 -14.864   4.040  1.00  0.00    -0.273 OA
HETATM   14  H   UNL     1      43.016 -14.519   2.688  1.00  0.00     0.169 HD
BRANCH  12  15
HETATM   15  C   UNL     1      42.260 -14.434   5.052  1.00  0.00     0.113 C 
BRANCH  15  16
HETATM   16  C   UNL     1      42.170 -15.562   6.072  1.00  0.00     0.088 C 
BRANCH  16  17
HETATM   17  S   UNL     1      43.825 -16.260   6.428  1.00  0.00    -0.130 SA
BRANCH  17  18
HETATM   18  C   UNL     1      43.948 -17.655   5.317  1.00  0.00     0.000 A 
HETATM   19  C   UNL     1      43.190 -17.824   4.154  1.00  0.00     0.020 A 
HETATM   20  C   UNL     1      43.359 -18.959   3.352  1.00  0.00     0.025 A 
HETATM   21  C   UNL     1      44.288 -19.932   3.707  1.00  0.00     0.034 A 
HETATM   22 CL   UNL     1      44.493 -21.323   2.719  1.00  0.00    -0.084 Cl
HETATM   23  C   UNL     1      45.050 -19.781   4.860  1.00  0.00     0.025 A 
HETATM   24  C   UNL     1      44.879 -18.648   5.660  1.00  0.00     0.020 A 
ENDBRANCH  17  18
ENDBRANCH  16  17
ENDBRANCH  15  16
ENDBRANCH  12  15
ENDBRANCH   7  11
BRANCH   6  25
HETATM   25  C   UNL     1      41.831 -16.867   0.599  1.00  0.00     0.252 C 
HETATM   26  N   UNL     1      43.156 -17.131   0.409  1.00  0.00    -0.366 N 
HETATM   27  H   UNL     1      43.854 -16.398   0.385  1.00  0.00     0.159 HD
HETATM   28  H   UNL     1      43.476 -18.053   0.681  1.00  0.00     0.159 HD
HETATM   29  O   UNL     1      41.066 -17.741   0.989  1.00  0.00    -0.268 OA
ENDBRANCH   6  25
BRANCH   1  30
HETATM   30  C   UNL     1      38.249 -14.378  -2.952  1.00  0.00     0.273 C 
BRANCH  30  31
HETATM   31  C   UNL     1      37.140 -13.745  -3.746  1.00  0.00    -0.033 A 
HETATM   32  C   UNL     1      36.336 -14.496  -4.618  1.00  0.00     0.009 A 
HETATM   33  C   UNL     1      35.309 -13.880  -5.335  1.00  0.00     0.001 A 
HETATM   34  C   UNL     1      35.062 -12.518  -5.176  1.00  0.00     0.000 A 
HETATM   35  C   UNL     1      35.841 -11.767  -4.301  1.00  0.00     0.001 A 
HETATM   36  C   UNL     1      36.874 -12.375  -3.590  1.00  0.00     0.009 A 
ENDBRANCH  30  31
ENDBRANCH   1  30
TORSDOF 8
ENDMDL
MODEL 9
REMARK VINA RESULT:      -8.1      6.290      9.554
REMARK  8 active torsions:
REMARK  status: ('A' for Active; 'I' for Inactive)
REMARK    1  A    between atoms: C_4  and  C_5 
REMARK    2  A    between atoms: C_5  and  N_6 
REMARK    3  A    between atoms: C_11  and  C_12 
REMARK       I    between atoms: C_12  and  N_13 
REMARK    4  A    between atoms: C_15  and  N_16 
REMARK       I    between atoms: N_16  and  C_17 
REMARK    5  A    between atoms: C_17  and  C_18 
REMARK    6  A    between atoms: C_18  and  C_19 
REMARK    7  A    between atoms: C_19  and  S_20 
REMARK    8  A    between atoms: S_20  and  C_21 
ROOT
HETATM    1  N   UNL     1      42.539 -17.012   5.951  1.00  0.00    -0.063 N 
HETATM    2  H   UNL     1      43.085 -17.456   6.695  1.00  0.00     0.280 HD
HETATM    3  C   UNL     1      43.513 -16.091   5.222  1.00  0.00     0.282 C 
HETATM    4  C   UNL     1      42.790 -15.056   4.434  1.00  0.00     0.018 C 
HETATM    5  C   UNL     1      41.456 -14.730   4.570  1.00  0.00    -0.023 C 
HETATM    6  C   UNL     1      41.045 -13.739   3.597  1.00  0.00     0.073 C 
HETATM    7  C   UNL     1      42.154 -13.219   2.937  1.00  0.00     0.093 C 
HETATM    8  S   UNL     1      43.574 -14.093   3.288  1.00  0.00    -0.074 SA
HETATM    9  C   UNL     1      40.590 -15.413   5.594  1.00  0.00     0.068 C 
HETATM   10  C   UNL     1      41.430 -16.204   6.619  1.00  0.00     0.240 C 
ENDROOT
BRANCH   7  11
HETATM   11  N   UNL     1      42.194 -12.093   2.126  1.00  0.00    -0.320 N 
HETATM   12  C   UNL     1      41.726 -11.982   0.828  1.00  0.00     0.223 C 
HETATM   13  O   UNL     1      41.012 -12.781   0.232  1.00  0.00    -0.273 OA
HETATM   14  H   UNL     1      42.655 -11.273   2.517  1.00  0.00     0.169 HD
BRANCH  12  15
HETATM   15  C   UNL     1      42.177 -10.702   0.148  1.00  0.00     0.113 C 
BRANCH  15  16
HETATM   16  C   UNL     1      41.277 -10.304  -1.015  1.00  0.00     0.088 C 
BRANCH  16  17
HETATM   17  S   UNL     1      41.999 -10.826  -2.614  1.00  0.00    -0.130 SA
BRANCH  17  18
HETATM   18  C   UNL     1      41.138 -12.345  -2.996  1.00  0.00     0.000 A 
HETATM   19  C   UNL     1      39.761 -12.453  -3.216  1.00  0.00     0.020 A 
HETATM   20  C   UNL     1      39.180 -13.695  -3.504  1.00  0.00     0.025 A 
HETATM   21  C   UNL     1      39.973 -14.836  -3.574  1.00  0.00     0.034 A 
HETATM   22 CL   UNL     1      39.257 -16.357  -3.929  1.00  0.00    -0.084 Cl
HETATM   23  C   UNL     1      41.344 -14.748  -3.356  1.00  0.00     0.025 A 
HETATM   24  C   UNL     1      41.921 -13.508  -3.067  1.00  0.00     0.020 A 
ENDBRANCH  17  18
ENDBRANCH  16  17
ENDBRANCH  15  16
ENDBRANCH  12  15
ENDBRANCH   7  11
BRANCH   6  25
HETATM   25  C   UNL     1      39.660 -13.315   3.400  1.00  0.00     0.252 C 
HETATM   26  N   UNL     1      38.994 -13.899   2.362  1.00  0.00    -0.366 N 
HETATM   27  H   UNL     1      39.330 -14.740   1.910  1.00  0.00     0.159 HD
HETATM   28  H   UNL     1      37.997 -13.725   2.311  1.00  0.00     0.159 HD
HETATM   29  O   UNL     1      39.086 -12.548   4.163  1.00  0.00    -0.268 OA
ENDBRANCH   6  25
BRANCH   1  30
HETATM   30  C   UNL     1      41.991 -18.141   5.105  1.00  0.00     0.273 C 
BRANCH  30  31
HETATM   31  C   UNL     1      43.017 -18.907   4.317  1.00  0.00    -0.033 A 
HETATM   32  C   UNL     1      44.024 -19.654   4.948  1.00  0.00     0.009 A 
HETATM   33  C   UNL     1      44.958 -20.361   4.187  1.00  0.00     0.001 A 
HETATM   34  C   UNL     1      44.886 -20.344   2.796  1.00  0.00     0.000 A 
HETATM   35  C   UNL     1      43.881 -19.620   2.160  1.00  0.00     0.001 A 
HETATM   36  C   UNL     1      42.952 -18.905   2.915  1.00  0.00     0.009 A 
ENDBRANCH  30  31
ENDBRANCH   1  30
TORSDOF 8
ENDMDL
MODEL 10
REMARK VINA RESULT:      -8.1      4.020      5.340
REMARK  8 active torsions:
REMARK  status: ('A' for Active; 'I' for Inactive)
REMARK    1  A    between atoms: C_4  and  C_5 
REMARK    2  A    between atoms: C_5  and  N_6 
REMARK    3  A    between atoms: C_11  and  C_12 
REMARK       I    between atoms: C_12  and  N_13 
REMARK    4  A    between atoms: C_15  and  N_16 
REMARK       I    between atoms: N_16  and  C_17 
REMARK    5  A    between atoms: C_17  and  C_18 
REMARK    6  A    between atoms: C_18  and  C_19 
REMARK    7  A    between atoms: C_19  and  S_20 
REMARK    8  A    between atoms: S_20  and  C_21 
ROOT
HETATM    1  N   UNL     1      43.277 -17.821   5.103  1.00  0.00    -0.063 N 
HETATM    2  H   UNL     1      43.542 -18.278   5.980  1.00  0.00     0.280 HD
HETATM    3  C   UNL     1      43.390 -16.323   5.369  1.00  0.00     0.282 C 
HETATM    4  C   UNL     1      42.613 -15.538   4.371  1.00  0.00     0.018 C 
HETATM    5  C   UNL     1      41.657 -16.047   3.516  1.00  0.00    -0.023 C 
HETATM    6  C   UNL     1      41.150 -15.033   2.615  1.00  0.00     0.073 C 
HETATM    7  C   UNL     1      41.598 -13.774   3.001  1.00  0.00     0.093 C 
HETATM    8  S   UNL     1      42.789 -13.864   4.215  1.00  0.00    -0.074 SA
HETATM    9  C   UNL     1      41.287 -17.506   3.546  1.00  0.00     0.068 C 
HETATM   10  C   UNL     1      41.830 -18.210   4.808  1.00  0.00     0.240 C 
ENDROOT
BRANCH   7  11
HETATM   11  N   UNL     1      41.137 -12.546   2.546  1.00  0.00    -0.320 N 
HETATM   12  C   UNL     1      41.536 -11.877   1.401  1.00  0.00     0.223 C 
HETATM   13  O   UNL     1      42.205 -12.329   0.479  1.00  0.00    -0.273 OA
HETATM   14  H   UNL     1      40.463 -12.069   3.142  1.00  0.00     0.169 HD
BRANCH  12  15
HETATM   15  C   UNL     1      41.036 -10.443   1.355  1.00  0.00     0.113 C 
BRANCH  15  16
HETATM   16  C   UNL     1      40.243 -10.056   2.596  1.00  0.00     0.088 C 
BRANCH  16  17
HETATM   17  S   UNL     1      40.983  -8.598   3.420  1.00  0.00    -0.130 SA
BRANCH  17  18
HETATM   18  C   UNL     1      41.207  -9.131   5.112  1.00  0.00     0.000 A 
HETATM   19  C   UNL     1      41.418  -8.279   6.200  1.00  0.00     0.020 A 
HETATM   20  C   UNL     1      41.589  -8.799   7.490  1.00  0.00     0.025 A 
HETATM   21  C   UNL     1      41.548 -10.173   7.698  1.00  0.00     0.034 A 
HETATM   22 CL   UNL     1      41.756 -10.807   9.282  1.00  0.00    -0.084 Cl
HETATM   23  C   UNL     1      41.340 -11.036   6.628  1.00  0.00     0.025 A 
HETATM   24  C   UNL     1      41.172 -10.516   5.341  1.00  0.00     0.020 A 
ENDBRANCH  17  18
ENDBRANCH  16  17
ENDBRANCH  15  16
ENDBRANCH  12  15
ENDBRANCH   7  11
BRANCH   6  25
HETATM   25  C   UNL     1      40.244 -15.311   1.502  1.00  0.00     0.252 C 
HETATM   26  N   UNL     1      38.919 -15.412   1.815  1.00  0.00    -0.366 N 
HETATM   27  H   UNL     1      38.546 -15.077   2.694  1.00  0.00     0.159 HD
HETATM   28  H   UNL     1      38.274 -15.454   1.035  1.00  0.00     0.159 HD
HETATM   29  O   UNL     1      40.620 -15.367   0.337  1.00  0.00    -0.268 OA
ENDBRANCH   6  25
BRANCH   1  30
HETATM   30  C   UNL     1      44.233 -18.346   4.054  1.00  0.00     0.273 C 
BRANCH  30  31
HETATM   31  C   UNL     1      44.365 -19.842   4.000  1.00  0.00    -0.033 A 
HETATM   32  C   UNL     1      44.283 -20.546   2.788  1.00  0.00     0.009 A 
HETATM   33  C   UNL     1      44.417 -21.936   2.771  1.00  0.00     0.001 A 
HETATM   34  C   UNL     1      44.652 -22.633   3.955  1.00  0.00     0.000 A 
HETATM   35  C   UNL     1      44.752 -21.943   5.160  1.00  0.00     0.001 A 
HETATM   36  C   UNL     1      44.609 -20.557   5.183  1.00  0.00     0.009 A 
ENDBRANCH  30  31
ENDBRANCH   1  30
TORSDOF 8
ENDMDL
