MODEL 1
REMARK VINA RESULT:      -7.6      0.000      0.000
REMARK  5 active torsions:
REMARK  status: ('A' for Active; 'I' for Inactive)
REMARK    1  A    between atoms: C_8  and  O_9 
REMARK    2  A    between atoms: O_9  and  C_10 
REMARK    3  A    between atoms: C_17  and  C_18 
REMARK       I    between atoms: C_18  and  N_19 
REMARK    4  A    between atoms: N_19  and  C_20 
REMARK    5  A    between atoms: C_20  and  C_21 
ROOT
HETATM    1  C   UNL     1      43.808 -19.650   7.317  1.00  0.00     0.051 C 
HETATM    2  C   UNL     1      43.909 -19.361   5.840  1.00  0.00    -0.018 A 
HETATM    3  C   UNL     1      44.307 -20.353   4.923  1.00  0.00     0.065 A 
HETATM    4 CL   UNL     1      44.724 -21.948   5.461  1.00  0.00    -0.082 Cl
HETATM    5  C   UNL     1      44.376 -20.040   3.558  1.00  0.00     0.056 A 
HETATM    6  C   UNL     1      44.777 -21.054   2.524  1.00  0.00     0.072 C 
HETATM    7  N   UNL     1      44.097 -18.803   3.078  1.00  0.00    -0.227 NA
HETATM    8  C   UNL     1      43.774 -17.838   3.970  1.00  0.00     0.186 A 
HETATM    9  C   UNL     1      43.649 -18.065   5.339  1.00  0.00     0.092 A 
ENDROOT
BRANCH   8  10
HETATM   10  O   UNL     1      43.498 -16.569   3.477  1.00  0.00    -0.291 OA
BRANCH  10  11
HETATM   11  C   UNL     1      42.205 -16.335   3.076  1.00  0.00     0.078 A 
HETATM   12  C   UNL     1      41.600 -15.148   3.493  1.00  0.00     0.040 A 
HETATM   13  C   UNL     1      40.306 -14.847   3.066  1.00  0.00     0.045 A 
HETATM   14  C   UNL     1      39.643 -15.726   2.216  1.00  0.00     0.116 A 
HETATM   15  F   UNL     1      38.402 -15.434   1.804  1.00  0.00    -0.206 F 
HETATM   16  C   UNL     1      40.251 -16.899   1.777  1.00  0.00     0.045 A 
HETATM   17  C   UNL     1      41.544 -17.204   2.202  1.00  0.00     0.040 A 
ENDBRANCH  10  11
ENDBRANCH   8  10
BRANCH   9  18
HETATM   18  C   UNL     1      43.331 -16.940   6.254  1.00  0.00     0.256 C 
HETATM   19  N   UNL     1      44.295 -15.964   6.388  1.00  0.00    -0.353 N 
HETATM   20  H   UNL     1      45.235 -16.165   6.071  1.00  0.00     0.163 HD
HETATM   21  O   UNL     1      42.252 -16.916   6.834  1.00  0.00    -0.267 OA
BRANCH  19  22
HETATM   22  C   UNL     1      44.136 -14.923   7.372  1.00  0.00     0.149 C 
BRANCH  22  23
HETATM   23  C   UNL     1      45.139 -13.825   7.175  1.00  0.00    -0.018 C 
HETATM   24  C   UNL     1      45.525 -12.885   8.050  1.00  0.00     0.008 C 
ENDBRANCH  22  23
ENDBRANCH  19  22
ENDBRANCH   9  18
TORSDOF 5
ENDMDL
MODEL 2
REMARK VINA RESULT:      -7.4      1.904      2.197
REMARK  5 active torsions:
REMARK  status: ('A' for Active; 'I' for Inactive)
REMARK    1  A    between atoms: C_8  and  O_9 
REMARK    2  A    between atoms: O_9  and  C_10 
REMARK    3  A    between atoms: C_17  and  C_18 
REMARK       I    between atoms: C_18  and  N_19 
REMARK    4  A    between atoms: N_19  and  C_20 
REMARK    5  A    between atoms: C_20  and  C_21 
ROOT
HETATM    1  C   UNL     1      44.876 -18.309   6.298  1.00  0.00     0.051 C 
HETATM    2  C   UNL     1      44.041 -18.401   5.045  1.00  0.00    -0.018 A 
HETATM    3  C   UNL     1      44.248 -19.425   4.099  1.00  0.00     0.065 A 
HETATM    4 CL   UNL     1      45.493 -20.609   4.327  1.00  0.00    -0.082 Cl
HETATM    5  C   UNL     1      43.440 -19.476   2.954  1.00  0.00     0.056 A 
HETATM    6  C   UNL     1      43.595 -20.549   1.913  1.00  0.00     0.072 C 
HETATM    7  N   UNL     1      42.473 -18.559   2.701  1.00  0.00    -0.227 NA
HETATM    8  C   UNL     1      42.320 -17.544   3.583  1.00  0.00     0.186 A 
HETATM    9  C   UNL     1      43.054 -17.430   4.762  1.00  0.00     0.092 A 
ENDROOT
BRANCH   8  10
HETATM   10  O   UNL     1      41.335 -16.601   3.317  1.00  0.00    -0.291 OA
BRANCH  10  11
HETATM   11  C   UNL     1      41.499 -15.850   2.178  1.00  0.00     0.078 A 
HETATM   12  C   UNL     1      41.175 -16.442   0.956  1.00  0.00     0.040 A 
HETATM   13  C   UNL     1      41.278 -15.696  -0.219  1.00  0.00     0.045 A 
HETATM   14  C   UNL     1      41.684 -14.368  -0.155  1.00  0.00     0.116 A 
HETATM   15  F   UNL     1      41.778 -13.653  -1.284  1.00  0.00    -0.206 F 
HETATM   16  C   UNL     1      41.984 -13.765   1.063  1.00  0.00     0.045 A 
HETATM   17  C   UNL     1      41.884 -14.507   2.240  1.00  0.00     0.040 A 
ENDBRANCH  10  11
ENDBRANCH   8  10
BRANCH   9  18
HETATM   18  C   UNL     1      42.850 -16.262   5.654  1.00  0.00     0.256 C 
HETATM   19  N   UNL     1      43.536 -15.112   5.329  1.00  0.00    -0.353 N 
HETATM   20  H   UNL     1      44.305 -15.176   4.674  1.00  0.00     0.163 HD
HETATM   21  O   UNL     1      42.098 -16.356   6.617  1.00  0.00    -0.267 OA
BRANCH  19  22
HETATM   22  C   UNL     1      43.521 -13.984   6.226  1.00  0.00     0.149 C 
BRANCH  22  23
HETATM   23  C   UNL     1      44.714 -13.992   7.135  1.00  0.00    -0.018 C 
HETATM   24  C   UNL     1      45.051 -13.093   8.072  1.00  0.00     0.008 C 
ENDBRANCH  22  23
ENDBRANCH  19  22
ENDBRANCH   9  18
TORSDOF 5
ENDMDL
MODEL 3
REMARK VINA RESULT:      -7.4      3.059      5.011
REMARK  5 active torsions:
REMARK  status: ('A' for Active; 'I' for Inactive)
REMARK    1  A    between atoms: C_8  and  O_9 
REMARK    2  A    between atoms: O_9  and  C_10 
REMARK    3  A    between atoms: C_17  and  C_18 
REMARK       I    between atoms: C_18  and  N_19 
REMARK    4  A    between atoms: N_19  and  C_20 
REMARK    5  A    between atoms: C_20  and  C_21 
ROOT
HETATM    1  C   UNL     1      40.252 -14.758   4.896  1.00  0.00     0.051 C 
HETATM    2  C   UNL     1      41.068 -15.674   4.019  1.00  0.00    -0.018 A 
HETATM    3  C   UNL     1      40.636 -16.029   2.726  1.00  0.00     0.065 A 
HETATM    4 CL   UNL     1      39.129 -15.444   2.099  1.00  0.00    -0.082 Cl
HETATM    5  C   UNL     1      41.433 -16.876   1.943  1.00  0.00     0.056 A 
HETATM    6  C   UNL     1      41.040 -17.282   0.550  1.00  0.00     0.072 C 
HETATM    7  N   UNL     1      42.604 -17.395   2.388  1.00  0.00    -0.227 NA
HETATM    8  C   UNL     1      42.984 -17.099   3.653  1.00  0.00     0.186 A 
HETATM    9  C   UNL     1      42.273 -16.242   4.491  1.00  0.00     0.092 A 
ENDROOT
BRANCH   8  10
HETATM   10  O   UNL     1      44.179 -17.639   4.111  1.00  0.00    -0.291 OA
BRANCH  10  11
HETATM   11  C   UNL     1      44.344 -18.992   3.942  1.00  0.00     0.078 A 
HETATM   12  C   UNL     1      44.510 -19.775   5.086  1.00  0.00     0.040 A 
HETATM   13  C   UNL     1      44.628 -21.160   4.962  1.00  0.00     0.045 A 
HETATM   14  C   UNL     1      44.562 -21.744   3.702  1.00  0.00     0.116 A 
HETATM   15  F   UNL     1      44.672 -23.074   3.586  1.00  0.00    -0.206 F 
HETATM   16  C   UNL     1      44.372 -20.971   2.559  1.00  0.00     0.045 A 
HETATM   17  C   UNL     1      44.253 -19.586   2.679  1.00  0.00     0.040 A 
ENDBRANCH  10  11
ENDBRANCH   8  10
BRANCH   9  18
HETATM   18  C   UNL     1      42.740 -16.003   5.879  1.00  0.00     0.256 C 
HETATM   19  N   UNL     1      43.715 -15.044   6.045  1.00  0.00    -0.353 N 
HETATM   20  H   UNL     1      44.230 -14.732   5.231  1.00  0.00     0.163 HD
HETATM   21  O   UNL     1      42.251 -16.643   6.803  1.00  0.00    -0.267 OA
BRANCH  19  22
HETATM   22  C   UNL     1      44.337 -14.860   7.332  1.00  0.00     0.149 C 
BRANCH  22  23
HETATM   23  C   UNL     1      45.152 -13.602   7.373  1.00  0.00    -0.018 C 
HETATM   24  C   UNL     1      45.343 -12.769   8.406  1.00  0.00     0.008 C 
ENDBRANCH  22  23
ENDBRANCH  19  22
ENDBRANCH   9  18
TORSDOF 5
ENDMDL
MODEL 4
REMARK VINA RESULT:      -7.4      2.366      4.995
REMARK  5 active torsions:
REMARK  status: ('A' for Active; 'I' for Inactive)
REMARK    1  A    between atoms: C_8  and  O_9 
REMARK    2  A    between atoms: O_9  and  C_10 
REMARK    3  A    between atoms: C_17  and  C_18 
REMARK       I    between atoms: C_18  and  N_19 
REMARK    4  A    between atoms: N_19  and  C_20 
REMARK    5  A    between atoms: C_20  and  C_21 
ROOT
HETATM    1  C   UNL     1      44.881 -20.446   2.568  1.00  0.00     0.051 C 
HETATM    2  C   UNL     1      44.264 -19.979   3.863  1.00  0.00    -0.018 A 
HETATM    3  C   UNL     1      44.345 -20.755   5.036  1.00  0.00     0.065 A 
HETATM    4 CL   UNL     1      45.137 -22.297   5.031  1.00  0.00    -0.082 Cl
HETATM    5  C   UNL     1      43.765 -20.275   6.219  1.00  0.00     0.056 A 
HETATM    6  C   UNL     1      43.827 -21.042   7.510  1.00  0.00     0.072 C 
HETATM    7  N   UNL     1      43.101 -19.094   6.280  1.00  0.00    -0.227 NA
HETATM    8  C   UNL     1      42.975 -18.381   5.136  1.00  0.00     0.186 A 
HETATM    9  C   UNL     1      43.545 -18.764   3.923  1.00  0.00     0.092 A 
ENDROOT
BRANCH   8  10
HETATM   10  O   UNL     1      42.286 -17.177   5.199  1.00  0.00    -0.291 OA
BRANCH  10  11
HETATM   11  C   UNL     1      42.987 -16.094   5.671  1.00  0.00     0.078 A 
HETATM   12  C   UNL     1      43.518 -16.175   6.960  1.00  0.00     0.040 A 
HETATM   13  C   UNL     1      44.281 -15.118   7.459  1.00  0.00     0.045 A 
HETATM   14  C   UNL     1      44.516 -14.005   6.659  1.00  0.00     0.116 A 
HETATM   15  F   UNL     1      45.251 -12.993   7.138  1.00  0.00    -0.206 F 
HETATM   16  C   UNL     1      44.010 -13.929   5.364  1.00  0.00     0.045 A 
HETATM   17  C   UNL     1      43.246 -14.983   4.862  1.00  0.00     0.040 A 
ENDBRANCH  10  11
ENDBRANCH   8  10
BRANCH   9  18
HETATM   18  C   UNL     1      43.323 -17.944   2.706  1.00  0.00     0.256 C 
HETATM   19  N   UNL     1      42.049 -17.954   2.180  1.00  0.00    -0.353 N 
HETATM   20  H   UNL     1      41.408 -18.678   2.479  1.00  0.00     0.163 HD
HETATM   21  O   UNL     1      44.251 -17.300   2.230  1.00  0.00    -0.267 OA
BRANCH  19  22
HETATM   22  C   UNL     1      41.785 -17.316   0.915  1.00  0.00     0.149 C 
BRANCH  22  23
HETATM   23  C   UNL     1      40.893 -16.122   1.079  1.00  0.00    -0.018 C 
HETATM   24  C   UNL     1      40.086 -15.823   2.108  1.00  0.00     0.008 C 
ENDBRANCH  22  23
ENDBRANCH  19  22
ENDBRANCH   9  18
TORSDOF 5
ENDMDL
MODEL 5
REMARK VINA RESULT:      -7.3      2.290      4.467
REMARK  5 active torsions:
REMARK  status: ('A' for Active; 'I' for Inactive)
REMARK    1  A    between atoms: C_8  and  O_9 
REMARK    2  A    between atoms: O_9  and  C_10 
REMARK    3  A    between atoms: C_17  and  C_18 
REMARK       I    between atoms: C_18  and  N_19 
REMARK    4  A    between atoms: N_19  and  C_20 
REMARK    5  A    between atoms: C_20  and  C_21 
ROOT
HETATM    1  C   UNL     1      44.040 -20.070   2.881  1.00  0.00     0.051 C 
HETATM    2  C   UNL     1      43.960 -18.992   3.932  1.00  0.00    -0.018 A 
HETATM    3  C   UNL     1      44.081 -19.293   5.303  1.00  0.00     0.065 A 
HETATM    4 CL   UNL     1      44.301 -20.926   5.840  1.00  0.00    -0.082 Cl
HETATM    5  C   UNL     1      44.010 -18.255   6.243  1.00  0.00     0.056 A 
HETATM    6  C   UNL     1      44.147 -18.503   7.719  1.00  0.00     0.072 C 
HETATM    7  N   UNL     1      43.803 -16.962   5.891  1.00  0.00    -0.227 NA
HETATM    8  C   UNL     1      43.628 -16.688   4.577  1.00  0.00     0.186 A 
HETATM    9  C   UNL     1      43.714 -17.648   3.570  1.00  0.00     0.092 A 
ENDROOT
BRANCH   8  10
HETATM   10  O   UNL     1      43.407 -15.364   4.218  1.00  0.00    -0.291 OA
BRANCH  10  11
HETATM   11  C   UNL     1      42.320 -14.748   4.788  1.00  0.00     0.078 A 
HETATM   12  C   UNL     1      42.511 -13.487   5.356  1.00  0.00     0.040 A 
HETATM   13  C   UNL     1      41.422 -12.805   5.900  1.00  0.00     0.045 A 
HETATM   14  C   UNL     1      40.157 -13.382   5.853  1.00  0.00     0.116 A 
HETATM   15  F   UNL     1      39.113 -12.724   6.373  1.00  0.00    -0.206 F 
HETATM   16  C   UNL     1      39.957 -14.629   5.266  1.00  0.00     0.045 A 
HETATM   17  C   UNL     1      41.043 -15.315   4.722  1.00  0.00     0.040 A 
ENDBRANCH  10  11
ENDBRANCH   8  10
BRANCH   9  18
HETATM   18  C   UNL     1      43.467 -17.268   2.157  1.00  0.00     0.256 C 
HETATM   19  N   UNL     1      42.159 -17.016   1.807  1.00  0.00    -0.353 N 
HETATM   20  H   UNL     1      41.423 -17.325   2.429  1.00  0.00     0.163 HD
HETATM   21  O   UNL     1      44.408 -17.188   1.377  1.00  0.00    -0.267 OA
BRANCH  19  22
HETATM   22  C   UNL     1      41.810 -16.797   0.425  1.00  0.00     0.149 C 
BRANCH  22  23
HETATM   23  C   UNL     1      41.378 -15.380   0.187  1.00  0.00    -0.018 C 
HETATM   24  C   UNL     1      41.520 -14.321   0.997  1.00  0.00     0.008 C 
ENDBRANCH  22  23
ENDBRANCH  19  22
ENDBRANCH   9  18
TORSDOF 5
ENDMDL
MODEL 6
REMARK VINA RESULT:      -7.2      1.719      2.212
REMARK  5 active torsions:
REMARK  status: ('A' for Active; 'I' for Inactive)
REMARK    1  A    between atoms: C_8  and  O_9 
REMARK    2  A    between atoms: O_9  and  C_10 
REMARK    3  A    between atoms: C_17  and  C_18 
REMARK       I    between atoms: C_18  and  N_19 
REMARK    4  A    between atoms: N_19  and  C_20 
REMARK    5  A    between atoms: C_20  and  C_21 
ROOT
HETATM    1  C   UNL     1      43.852 -20.073   6.618  1.00  0.00     0.051 C 
HETATM    2  C   UNL     1      44.029 -19.867   5.135  1.00  0.00    -0.018 A 
HETATM    3  C   UNL     1      44.347 -20.939   4.278  1.00  0.00     0.065 A 
HETATM    4 CL   UNL     1      44.573 -22.540   4.901  1.00  0.00    -0.082 Cl
HETATM    5  C   UNL     1      44.492 -20.701   2.903  1.00  0.00     0.056 A 
HETATM    6  C   UNL     1      44.813 -21.800   1.930  1.00  0.00     0.072 C 
HETATM    7  N   UNL     1      44.362 -19.466   2.358  1.00  0.00    -0.227 NA
HETATM    8  C   UNL     1      44.116 -18.430   3.195  1.00  0.00     0.186 A 
HETATM    9  C   UNL     1      43.925 -18.576   4.567  1.00  0.00     0.092 A 
ENDROOT
BRANCH   8  10
HETATM   10  O   UNL     1      43.993 -17.164   2.636  1.00  0.00    -0.291 OA
BRANCH  10  11
HETATM   11  C   UNL     1      42.716 -16.732   2.374  1.00  0.00     0.078 A 
HETATM   12  C   UNL     1      41.736 -17.699   2.143  1.00  0.00     0.040 A 
HETATM   13  C   UNL     1      40.416 -17.304   1.924  1.00  0.00     0.045 A 
HETATM   14  C   UNL     1      40.090 -15.952   1.956  1.00  0.00     0.116 A 
HETATM   15  F   UNL     1      38.822 -15.575   1.749  1.00  0.00    -0.206 F 
HETATM   16  C   UNL     1      41.059 -14.984   2.210  1.00  0.00     0.045 A 
HETATM   17  C   UNL     1      42.380 -15.375   2.429  1.00  0.00     0.040 A 
ENDBRANCH  10  11
ENDBRANCH   8  10
BRANCH   9  18
HETATM   18  C   UNL     1      43.701 -17.382   5.418  1.00  0.00     0.256 C 
HETATM   19  N   UNL     1      42.399 -16.948   5.541  1.00  0.00    -0.353 N 
HETATM   20  H   UNL     1      41.711 -17.290   4.880  1.00  0.00     0.163 HD
HETATM   21  O   UNL     1      44.652 -16.842   5.972  1.00  0.00    -0.267 OA
BRANCH  19  22
HETATM   22  C   UNL     1      42.110 -15.708   6.215  1.00  0.00     0.149 C 
BRANCH  22  23
HETATM   23  C   UNL     1      40.680 -15.299   6.024  1.00  0.00    -0.018 C 
HETATM   24  C   UNL     1      40.200 -14.101   5.660  1.00  0.00     0.008 C 
ENDBRANCH  22  23
ENDBRANCH  19  22
ENDBRANCH   9  18
TORSDOF 5
ENDMDL
MODEL 7
REMARK VINA RESULT:      -7.2      3.434      6.655
REMARK  5 active torsions:
REMARK  status: ('A' for Active; 'I' for Inactive)
REMARK    1  A    between atoms: C_8  and  O_9 
REMARK    2  A    between atoms: O_9  and  C_10 
REMARK    3  A    between atoms: C_17  and  C_18 
REMARK       I    between atoms: C_18  and  N_19 
REMARK    4  A    between atoms: N_19  and  C_20 
REMARK    5  A    between atoms: C_20  and  C_21 
ROOT
HETATM    1  C   UNL     1      40.803 -17.472   1.181  1.00  0.00     0.051 C 
HETATM    2  C   UNL     1      41.161 -16.550   2.319  1.00  0.00    -0.018 A 
HETATM    3  C   UNL     1      40.298 -15.512   2.722  1.00  0.00     0.065 A 
HETATM    4 CL   UNL     1      38.795 -15.236   1.904  1.00  0.00    -0.082 Cl
HETATM    5  C   UNL     1      40.669 -14.686   3.793  1.00  0.00     0.056 A 
HETATM    6  C   UNL     1      39.790 -13.571   4.285  1.00  0.00     0.072 C 
HETATM    7  N   UNL     1      41.846 -14.827   4.451  1.00  0.00    -0.227 NA
HETATM    8  C   UNL     1      42.697 -15.788   4.020  1.00  0.00     0.186 A 
HETATM    9  C   UNL     1      42.400 -16.675   2.987  1.00  0.00     0.092 A 
ENDROOT
BRANCH   8  10
HETATM   10  O   UNL     1      43.907 -15.925   4.689  1.00  0.00    -0.291 OA
BRANCH  10  11
HETATM   11  C   UNL     1      43.898 -16.709   5.817  1.00  0.00     0.078 A 
HETATM   12  C   UNL     1      44.851 -17.725   5.910  1.00  0.00     0.040 A 
HETATM   13  C   UNL     1      44.909 -18.512   7.062  1.00  0.00     0.045 A 
HETATM   14  C   UNL     1      44.029 -18.261   8.109  1.00  0.00     0.116 A 
HETATM   15  F   UNL     1      44.089 -19.014   9.215  1.00  0.00    -0.206 F 
HETATM   16  C   UNL     1      43.093 -17.233   8.032  1.00  0.00     0.045 A 
HETATM   17  C   UNL     1      43.031 -16.445   6.882  1.00  0.00     0.040 A 
ENDBRANCH  10  11
ENDBRANCH   8  10
BRANCH   9  18
HETATM   18  C   UNL     1      43.408 -17.672   2.550  1.00  0.00     0.256 C 
HETATM   19  N   UNL     1      43.299 -18.935   3.091  1.00  0.00    -0.353 N 
HETATM   20  H   UNL     1      42.721 -19.061   3.912  1.00  0.00     0.163 HD
HETATM   21  O   UNL     1      44.272 -17.350   1.743  1.00  0.00    -0.267 OA
BRANCH  19  22
HETATM   22  C   UNL     1      44.326 -19.917   2.846  1.00  0.00     0.149 C 
BRANCH  22  23
HETATM   23  C   UNL     1      43.756 -21.165   2.241  1.00  0.00    -0.018 C 
HETATM   24  C   UNL     1      44.370 -22.064   1.457  1.00  0.00     0.008 C 
ENDBRANCH  22  23
ENDBRANCH  19  22
ENDBRANCH   9  18
TORSDOF 5
ENDMDL
MODEL 8
REMARK VINA RESULT:      -7.2      3.479      5.450
REMARK  5 active torsions:
REMARK  status: ('A' for Active; 'I' for Inactive)
REMARK    1  A    between atoms: C_8  and  O_9 
REMARK    2  A    between atoms: O_9  and  C_10 
REMARK    3  A    between atoms: C_17  and  C_18 
REMARK       I    between atoms: C_18  and  N_19 
REMARK    4  A    between atoms: N_19  and  C_20 
REMARK    5  A    between atoms: C_20  and  C_21 
ROOT
HETATM    1  C   UNL     1      42.473 -12.821   4.343  1.00  0.00     0.051 C 
HETATM    2  C   UNL     1      42.214 -14.043   3.499  1.00  0.00    -0.018 A 
HETATM    3  C   UNL     1      42.015 -13.946   2.108  1.00  0.00     0.065 A 
HETATM    4 CL   UNL     1      42.035 -12.407   1.311  1.00  0.00    -0.082 Cl
HETATM    5  C   UNL     1      41.787 -15.112   1.363  1.00  0.00     0.056 A 
HETATM    6  C   UNL     1      41.584 -15.083  -0.126  1.00  0.00     0.072 C 
HETATM    7  N   UNL     1      41.725 -16.341   1.931  1.00  0.00    -0.227 NA
HETATM    8  C   UNL     1      41.857 -16.422   3.276  1.00  0.00     0.186 A 
HETATM    9  C   UNL     1      42.117 -15.323   4.092  1.00  0.00     0.092 A 
ENDROOT
BRANCH   8  10
HETATM   10  O   UNL     1      41.783 -17.681   3.857  1.00  0.00    -0.291 OA
BRANCH  10  11
HETATM   11  C   UNL     1      42.693 -18.613   3.419  1.00  0.00     0.078 A 
HETATM   12  C   UNL     1      43.699 -19.006   4.304  1.00  0.00     0.040 A 
HETATM   13  C   UNL     1      44.612 -19.987   3.917  1.00  0.00     0.045 A 
HETATM   14  C   UNL     1      44.497 -20.574   2.661  1.00  0.00     0.116 A 
HETATM   15  F   UNL     1      45.373 -21.518   2.293  1.00  0.00    -0.206 F 
HETATM   16  C   UNL     1      43.481 -20.204   1.784  1.00  0.00     0.045 A 
HETATM   17  C   UNL     1      42.567 -19.223   2.167  1.00  0.00     0.040 A 
ENDBRANCH  10  11
ENDBRANCH   8  10
BRANCH   9  18
HETATM   18  C   UNL     1      42.207 -15.494   5.563  1.00  0.00     0.256 C 
HETATM   19  N   UNL     1      43.429 -15.885   6.065  1.00  0.00    -0.353 N 
HETATM   20  H   UNL     1      44.116 -16.264   5.425  1.00  0.00     0.163 HD
HETATM   21  O   UNL     1      41.222 -15.281   6.261  1.00  0.00    -0.267 OA
BRANCH  19  22
HETATM   22  C   UNL     1      43.563 -16.227   7.458  1.00  0.00     0.149 C 
BRANCH  22  23
HETATM   23  C   UNL     1      43.246 -17.673   7.700  1.00  0.00    -0.018 C 
HETATM   24  C   UNL     1      44.100 -18.690   7.889  1.00  0.00     0.008 C 
ENDBRANCH  22  23
ENDBRANCH  19  22
ENDBRANCH   9  18
TORSDOF 5
ENDMDL
MODEL 9
REMARK VINA RESULT:      -7.2      2.550      5.062
REMARK  5 active torsions:
REMARK  status: ('A' for Active; 'I' for Inactive)
REMARK    1  A    between atoms: C_8  and  O_9 
REMARK    2  A    between atoms: O_9  and  C_10 
REMARK    3  A    between atoms: C_17  and  C_18 
REMARK       I    between atoms: C_18  and  N_19 
REMARK    4  A    between atoms: N_19  and  C_20 
REMARK    5  A    between atoms: C_20  and  C_21 
ROOT
HETATM    1  C   UNL     1      45.188 -17.041   6.967  1.00  0.00     0.051 C 
HETATM    2  C   UNL     1      44.033 -16.401   6.239  1.00  0.00    -0.018 A 
HETATM    3  C   UNL     1      43.680 -15.055   6.461  1.00  0.00     0.065 A 
HETATM    4 CL   UNL     1      44.549 -14.084   7.604  1.00  0.00    -0.082 Cl
HETATM    5  C   UNL     1      42.605 -14.500   5.753  1.00  0.00     0.056 A 
HETATM    6  C   UNL     1      42.185 -13.068   5.928  1.00  0.00     0.072 C 
HETATM    7  N   UNL     1      41.864 -15.216   4.871  1.00  0.00    -0.227 NA
HETATM    8  C   UNL     1      42.169 -16.524   4.706  1.00  0.00     0.186 A 
HETATM    9  C   UNL     1      43.239 -17.152   5.342  1.00  0.00     0.092 A 
ENDROOT
BRANCH   8  10
HETATM   10  O   UNL     1      41.403 -17.259   3.810  1.00  0.00    -0.291 OA
BRANCH  10  11
HETATM   11  C   UNL     1      41.371 -16.803   2.515  1.00  0.00     0.078 A 
HETATM   12  C   UNL     1      42.367 -17.247   1.644  1.00  0.00     0.040 A 
HETATM   13  C   UNL     1      42.341 -16.849   0.306  1.00  0.00     0.045 A 
HETATM   14  C   UNL     1      41.312 -16.028  -0.145  1.00  0.00     0.116 A 
HETATM   15  F   UNL     1      41.287 -15.650  -1.429  1.00  0.00    -0.206 F 
HETATM   16  C   UNL     1      40.302 -15.602   0.714  1.00  0.00     0.045 A 
HETATM   17  C   UNL     1      40.325 -15.997   2.051  1.00  0.00     0.040 A 
ENDBRANCH  10  11
ENDBRANCH   8  10
BRANCH   9  18
HETATM   18  C   UNL     1      43.479 -18.602   5.138  1.00  0.00     0.256 C 
HETATM   19  N   UNL     1      44.233 -18.952   4.038  1.00  0.00    -0.353 N 
HETATM   20  H   UNL     1      44.376 -18.263   3.311  1.00  0.00     0.163 HD
HETATM   21  O   UNL     1      43.019 -19.412   5.933  1.00  0.00    -0.267 OA
BRANCH  19  22
HETATM   22  C   UNL     1      44.380 -20.339   3.676  1.00  0.00     0.149 C 
BRANCH  22  23
HETATM   23  C   UNL     1      43.960 -20.583   2.257  1.00  0.00    -0.018 C 
HETATM   24  C   UNL     1      43.860 -21.753   1.610  1.00  0.00     0.008 C 
ENDBRANCH  22  23
ENDBRANCH  19  22
ENDBRANCH   9  18
TORSDOF 5
ENDMDL
MODEL 10
REMARK VINA RESULT:      -7.0      3.787      6.949
REMARK  5 active torsions:
REMARK  status: ('A' for Active; 'I' for Inactive)
REMARK    1  A    between atoms: C_8  and  O_9 
REMARK    2  A    between atoms: O_9  and  C_10 
REMARK    3  A    between atoms: C_17  and  C_18 
REMARK       I    between atoms: C_18  and  N_19 
REMARK    4  A    between atoms: N_19  and  C_20 
REMARK    5  A    between atoms: C_20  and  C_21 
ROOT
HETATM    1  C   UNL     1      40.305 -13.667   1.690  1.00  0.00     0.051 C 
HETATM    2  C   UNL     1      40.276 -14.052   3.147  1.00  0.00    -0.018 A 
HETATM    3  C   UNL     1      39.981 -13.108   4.151  1.00  0.00     0.065 A 
HETATM    4 CL   UNL     1      39.663 -11.452   3.749  1.00  0.00    -0.082 Cl
HETATM    5  C   UNL     1      39.955 -13.516   5.492  1.00  0.00     0.056 A 
HETATM    6  C   UNL     1      39.632 -12.566   6.611  1.00  0.00     0.072 C 
HETATM    7  N   UNL     1      40.229 -14.788   5.874  1.00  0.00    -0.227 NA
HETATM    8  C   UNL     1      40.571 -15.676   4.912  1.00  0.00     0.186 A 
HETATM    9  C   UNL     1      40.592 -15.369   3.552  1.00  0.00     0.092 A 
ENDROOT
BRANCH   8  10
HETATM   10  O   UNL     1      40.861 -16.976   5.306  1.00  0.00    -0.291 OA
BRANCH  10  11
HETATM   11  C   UNL     1      42.153 -17.222   5.702  1.00  0.00     0.078 A 
HETATM   12  C   UNL     1      42.708 -18.462   5.377  1.00  0.00     0.040 A 
HETATM   13  C   UNL     1      44.034 -18.733   5.715  1.00  0.00     0.045 A 
HETATM   14  C   UNL     1      44.792 -17.758   6.355  1.00  0.00     0.116 A 
HETATM   15  F   UNL     1      46.066 -18.019   6.675  1.00  0.00    -0.206 F 
HETATM   16  C   UNL     1      44.252 -16.511   6.659  1.00  0.00     0.045 A 
HETATM   17  C   UNL     1      42.926 -16.236   6.324  1.00  0.00     0.040 A 
ENDBRANCH  10  11
ENDBRANCH   8  10
BRANCH   9  18
HETATM   18  C   UNL     1      41.019 -16.392   2.566  1.00  0.00     0.256 C 
HETATM   19  N   UNL     1      42.375 -16.522   2.361  1.00  0.00    -0.353 N 
HETATM   20  H   UNL     1      42.986 -15.784   2.686  1.00  0.00     0.163 HD
HETATM   21  O   UNL     1      40.176 -17.070   1.990  1.00  0.00    -0.267 OA
BRANCH  19  22
HETATM   22  C   UNL     1      42.869 -17.376   1.310  1.00  0.00     0.149 C 
BRANCH  22  23
HETATM   23  C   UNL     1      43.832 -18.396   1.839  1.00  0.00    -0.018 C 
HETATM   24  C   UNL     1      43.644 -19.715   1.993  1.00  0.00     0.008 C 
ENDBRANCH  22  23
ENDBRANCH  19  22
ENDBRANCH   9  18
TORSDOF 5
ENDMDL
