MODEL 1
REMARK VINA RESULT:      -8.9      0.000      0.000
REMARK  4 active torsions:
REMARK  status: ('A' for Active; 'I' for Inactive)
REMARK    1  A    between atoms: C_5  and  C_6 
REMARK    2  A    between atoms: C_6  and  N_7 
REMARK    3  A    between atoms: C_17  and  C_18 
REMARK    4  A    between atoms: C_27  and  C_28 
ROOT
HETATM    1  N   UNL     1      43.020 -16.682   4.610  1.00  0.00    -0.067 N 
HETATM    2  H   UNL     1      43.331 -16.683   5.592  1.00  0.00     0.280 HD
HETATM    3  C   UNL     1      43.182 -15.278   4.099  1.00  0.00     0.236 C 
HETATM    4  C   UNL     1      42.526 -15.094   2.729  1.00  0.00     0.039 C 
HETATM    5  C   UNL     1      41.044 -15.553   2.642  1.00  0.00    -0.013 C 
HETATM    6  C   UNL     1      40.068 -14.580   3.362  1.00  0.00     0.244 C 
HETATM    7  N   UNL     1      39.942 -13.257   2.645  1.00  0.00    -0.073 N 
HETATM    8  H   UNL     1      40.847 -12.769   2.621  1.00  0.00     0.279 HD
HETATM    9  C   UNL     1      39.008 -12.312   3.378  1.00  0.00     0.269 C 
HETATM   10  C   UNL     1      39.492 -13.407   1.198  1.00  0.00     0.243 C 
HETATM   11  C   UNL     1      40.485 -14.302   0.448  1.00  0.00     0.045 C 
HETATM   12  C   UNL     1      40.615 -15.666   1.149  1.00  0.00     0.022 C 
HETATM   13  C   UNL     1      40.936 -16.974   3.271  1.00  0.00     0.039 C 
HETATM   14  C   UNL     1      41.579 -17.114   4.650  1.00  0.00     0.236 C 
ENDROOT
BRANCH  11  15
HETATM   15  C   UNL     1      40.100 -14.438  -1.010  1.00  0.00    -0.052 A 
HETATM   16  C   UNL     1      40.873 -15.250  -1.857  1.00  0.00     0.007 A 
HETATM   17  C   UNL     1      40.554 -15.377  -3.209  1.00  0.00     0.001 A 
HETATM   18  C   UNL     1      39.461 -14.698  -3.735  1.00  0.00     0.000 A 
HETATM   19  C   UNL     1      38.682 -13.891  -2.910  1.00  0.00     0.001 A 
HETATM   20  C   UNL     1      38.998 -13.760  -1.556  1.00  0.00     0.007 A 
ENDBRANCH  11  15
BRANCH   1  21
HETATM   21  C   UNL     1      43.939 -17.726   3.967  1.00  0.00     0.277 C 
BRANCH  21  22
HETATM   22  C   UNL     1      44.127 -19.006   4.701  1.00  0.00     0.011 A 
HETATM   23  C   UNL     1      43.902 -19.248   6.080  1.00  0.00     0.149 A 
HETATM   24  N   UNL     1      44.215 -20.479   6.456  1.00  0.00    -0.185 NA
HETATM   25  N   UNL     1      44.582 -21.085   5.317  1.00  0.00    -0.278 N 
HETATM   26  C   UNL     1      44.960 -22.481   5.350  1.00  0.00     0.179 C 
HETATM   27  C   UNL     1      44.512 -20.254   4.220  1.00  0.00     0.043 A 
BRANCH  27  28
HETATM   28  C   UNL     1      44.790 -20.742   2.798  1.00  0.00     0.038 A 
HETATM   29  C   UNL     1      43.905 -21.814   2.198  1.00  0.00     0.011 A 
HETATM   30  C   UNL     1      43.875 -20.432   1.639  1.00  0.00     0.011 A 
ENDBRANCH  27  28
ENDBRANCH  21  22
ENDBRANCH   1  21
TORSDOF 4
ENDMDL
MODEL 2
REMARK VINA RESULT:      -8.8      1.843      8.103
REMARK  4 active torsions:
REMARK  status: ('A' for Active; 'I' for Inactive)
REMARK    1  A    between atoms: C_5  and  C_6 
REMARK    2  A    between atoms: C_6  and  N_7 
REMARK    3  A    between atoms: C_17  and  C_18 
REMARK    4  A    between atoms: C_27  and  C_28 
ROOT
HETATM    1  N   UNL     1      40.040 -13.636   2.038  1.00  0.00    -0.067 N 
HETATM    2  H   UNL     1      39.606 -12.716   2.206  1.00  0.00     0.280 HD
HETATM    3  C   UNL     1      39.843 -14.450   3.285  1.00  0.00     0.236 C 
HETATM    4  C   UNL     1      40.654 -15.746   3.251  1.00  0.00     0.039 C 
HETATM    5  C   UNL     1      42.165 -15.569   2.933  1.00  0.00    -0.013 C 
HETATM    6  C   UNL     1      42.966 -14.969   4.123  1.00  0.00     0.244 C 
HETATM    7  N   UNL     1      43.087 -15.934   5.278  1.00  0.00    -0.073 N 
HETATM    8  H   UNL     1      42.159 -16.162   5.659  1.00  0.00     0.279 HD
HETATM    9  C   UNL     1      43.847 -15.321   6.440  1.00  0.00     0.269 C 
HETATM   10  C   UNL     1      43.729 -17.257   4.882  1.00  0.00     0.243 C 
HETATM   11  C   UNL     1      42.909 -17.904   3.760  1.00  0.00     0.045 C 
HETATM   12  C   UNL     1      42.790 -16.946   2.561  1.00  0.00     0.022 C 
HETATM   13  C   UNL     1      42.295 -14.642   1.686  1.00  0.00     0.039 C 
HETATM   14  C   UNL     1      41.491 -13.345   1.767  1.00  0.00     0.236 C 
ENDROOT
BRANCH  11  15
HETATM   15  C   UNL     1      43.488 -19.247   3.370  1.00  0.00    -0.052 A 
HETATM   16  C   UNL     1      43.145 -19.814   2.130  1.00  0.00     0.007 A 
HETATM   17  C   UNL     1      43.646 -21.059   1.753  1.00  0.00     0.001 A 
HETATM   18  C   UNL     1      44.496 -21.757   2.605  1.00  0.00     0.000 A 
HETATM   19  C   UNL     1      44.849 -21.209   3.835  1.00  0.00     0.001 A 
HETATM   20  C   UNL     1      44.349 -19.962   4.217  1.00  0.00     0.007 A 
ENDBRANCH  11  15
BRANCH   1  21
HETATM   21  C   UNL     1      39.290 -14.138   0.800  1.00  0.00     0.277 C 
BRANCH  21  22
HETATM   22  C   UNL     1      39.329 -13.276  -0.411  1.00  0.00     0.011 A 
HETATM   23  C   UNL     1      38.597 -12.084  -0.643  1.00  0.00     0.149 A 
HETATM   24  N   UNL     1      38.800 -11.567  -1.846  1.00  0.00    -0.185 NA
HETATM   25  N   UNL     1      39.722 -12.370  -2.395  1.00  0.00    -0.278 N 
HETATM   26  C   UNL     1      40.217 -12.074  -3.723  1.00  0.00     0.179 C 
HETATM   27  C   UNL     1      40.106 -13.397  -1.560  1.00  0.00     0.043 A 
BRANCH  27  28
HETATM   28  C   UNL     1      41.212 -14.388  -1.927  1.00  0.00     0.038 A 
HETATM   29  C   UNL     1      41.038 -15.851  -1.578  1.00  0.00     0.011 A 
HETATM   30  C   UNL     1      41.046 -15.428  -3.007  1.00  0.00     0.011 A 
ENDBRANCH  27  28
ENDBRANCH  21  22
ENDBRANCH   1  21
TORSDOF 4
ENDMDL
MODEL 3
REMARK VINA RESULT:      -8.8      2.137      7.512
REMARK  4 active torsions:
REMARK  status: ('A' for Active; 'I' for Inactive)
REMARK    1  A    between atoms: C_5  and  C_6 
REMARK    2  A    between atoms: C_6  and  N_7 
REMARK    3  A    between atoms: C_17  and  C_18 
REMARK    4  A    between atoms: C_27  and  C_28 
ROOT
HETATM    1  N   UNL     1      40.724 -13.056   3.812  1.00  0.00    -0.067 N 
HETATM    2  H   UNL     1      40.338 -12.183   4.201  1.00  0.00     0.280 HD
HETATM    3  C   UNL     1      40.288 -14.172   4.719  1.00  0.00     0.236 C 
HETATM    4  C   UNL     1      40.998 -15.484   4.386  1.00  0.00     0.039 C 
HETATM    5  C   UNL     1      42.548 -15.395   4.315  1.00  0.00    -0.013 C 
HETATM    6  C   UNL     1      43.209 -15.266   5.716  1.00  0.00     0.244 C 
HETATM    7  N   UNL     1      43.090 -16.534   6.527  1.00  0.00    -0.073 N 
HETATM    8  H   UNL     1      42.102 -16.756   6.709  1.00  0.00     0.279 HD
HETATM    9  C   UNL     1      43.716 -16.378   7.901  1.00  0.00     0.269 C 
HETATM   10  C   UNL     1      43.684 -17.746   5.823  1.00  0.00     0.243 C 
HETATM   11  C   UNL     1      42.991 -17.938   4.470  1.00  0.00     0.045 C 
HETATM   12  C   UNL     1      43.118 -16.664   3.615  1.00  0.00     0.022 C 
HETATM   13  C   UNL     1      42.925 -14.165   3.435  1.00  0.00     0.039 C 
HETATM   14  C   UNL     1      42.216 -12.866   3.814  1.00  0.00     0.236 C 
ENDROOT
BRANCH  11  15
HETATM   15  C   UNL     1      43.520 -19.165   3.758  1.00  0.00    -0.052 A 
HETATM   16  C   UNL     1      43.127 -19.418   2.433  1.00  0.00     0.007 A 
HETATM   17  C   UNL     1      43.582 -20.552   1.759  1.00  0.00     0.001 A 
HETATM   18  C   UNL     1      44.435 -21.448   2.395  1.00  0.00     0.000 A 
HETATM   19  C   UNL     1      44.836 -21.210   3.708  1.00  0.00     0.001 A 
HETATM   20  C   UNL     1      44.383 -20.077   4.386  1.00  0.00     0.007 A 
ENDBRANCH  11  15
BRANCH   1  21
HETATM   21  C   UNL     1      40.127 -13.085   2.401  1.00  0.00     0.277 C 
BRANCH  21  22
HETATM   22  C   UNL     1      41.014 -12.671   1.282  1.00  0.00     0.011 A 
HETATM   23  C   UNL     1      41.696 -11.435   1.136  1.00  0.00     0.149 A 
HETATM   24  N   UNL     1      42.369 -11.337  -0.001  1.00  0.00    -0.185 NA
HETATM   25  N   UNL     1      42.199 -12.532  -0.586  1.00  0.00    -0.278 N 
HETATM   26  C   UNL     1      42.841 -12.795  -1.856  1.00  0.00     0.179 C 
HETATM   27  C   UNL     1      41.421 -13.390   0.162  1.00  0.00     0.043 A 
BRANCH  27  28
HETATM   28  C   UNL     1      41.164 -14.840  -0.251  1.00  0.00     0.038 A 
HETATM   29  C   UNL     1      42.121 -15.919   0.207  1.00  0.00     0.011 A 
HETATM   30  C   UNL     1      40.725 -15.898   0.730  1.00  0.00     0.011 A 
ENDBRANCH  27  28
ENDBRANCH  21  22
ENDBRANCH   1  21
TORSDOF 4
ENDMDL
MODEL 4
REMARK VINA RESULT:      -8.7      1.644      1.787
REMARK  4 active torsions:
REMARK  status: ('A' for Active; 'I' for Inactive)
REMARK    1  A    between atoms: C_5  and  C_6 
REMARK    2  A    between atoms: C_6  and  N_7 
REMARK    3  A    between atoms: C_17  and  C_18 
REMARK    4  A    between atoms: C_27  and  C_28 
ROOT
HETATM    1  N   UNL     1      42.701 -16.733   4.863  1.00  0.00    -0.067 N 
HETATM    2  H   UNL     1      42.581 -17.061   5.833  1.00  0.00     0.280 HD
HETATM    3  C   UNL     1      42.855 -15.240   4.920  1.00  0.00     0.236 C 
HETATM    4  C   UNL     1      42.796 -14.610   3.528  1.00  0.00     0.039 C 
HETATM    5  C   UNL     1      41.560 -15.012   2.676  1.00  0.00    -0.013 C 
HETATM    6  C   UNL     1      40.247 -14.333   3.159  1.00  0.00     0.244 C 
HETATM    7  N   UNL     1      40.237 -12.847   2.891  1.00  0.00    -0.073 N 
HETATM    8  H   UNL     1      40.993 -12.380   3.408  1.00  0.00     0.279 HD
HETATM    9  C   UNL     1      38.960 -12.199   3.395  1.00  0.00     0.269 C 
HETATM   10  C   UNL     1      40.442 -12.507   1.421  1.00  0.00     0.243 C 
HETATM   11  C   UNL     1      41.771 -13.103   0.944  1.00  0.00     0.045 C 
HETATM   12  C   UNL     1      41.798 -14.623   1.187  1.00  0.00     0.022 C 
HETATM   13  C   UNL     1      41.409 -16.562   2.737  1.00  0.00     0.039 C 
HETATM   14  C   UNL     1      41.447 -17.152   4.146  1.00  0.00     0.236 C 
ENDROOT
BRANCH  11  15
HETATM   15  C   UNL     1      42.037 -12.746  -0.503  1.00  0.00    -0.052 A 
HETATM   16  C   UNL     1      41.770 -13.690  -1.509  1.00  0.00     0.007 A 
HETATM   17  C   UNL     1      42.024 -13.397  -2.848  1.00  0.00     0.001 A 
HETATM   18  C   UNL     1      42.548 -12.159  -3.205  1.00  0.00     0.000 A 
HETATM   19  C   UNL     1      42.817 -11.210  -2.222  1.00  0.00     0.001 A 
HETATM   20  C   UNL     1      42.564 -11.500  -0.879  1.00  0.00     0.007 A 
ENDBRANCH  11  15
BRANCH   1  21
HETATM   21  C   UNL     1      43.941 -17.505   4.400  1.00  0.00     0.277 C 
BRANCH  21  22
HETATM   22  C   UNL     1      44.097 -18.897   4.899  1.00  0.00     0.011 A 
HETATM   23  C   UNL     1      43.906 -19.363   6.225  1.00  0.00     0.149 A 
HETATM   24  N   UNL     1      44.177 -20.652   6.374  1.00  0.00    -0.185 NA
HETATM   25  N   UNL     1      44.480 -21.067   5.136  1.00  0.00    -0.278 N 
HETATM   26  C   UNL     1      44.798 -22.462   4.916  1.00  0.00     0.179 C 
HETATM   27  C   UNL     1      44.411 -20.059   4.199  1.00  0.00     0.043 A 
BRANCH  27  28
HETATM   28  C   UNL     1      44.621 -20.306   2.704  1.00  0.00     0.038 A 
HETATM   29  C   UNL     1      43.583 -21.093   1.933  1.00  0.00     0.011 A 
HETATM   30  C   UNL     1      43.777 -19.644   1.644  1.00  0.00     0.011 A 
ENDBRANCH  27  28
ENDBRANCH  21  22
ENDBRANCH   1  21
TORSDOF 4
ENDMDL
MODEL 5
REMARK VINA RESULT:      -8.6      1.574      2.300
REMARK  4 active torsions:
REMARK  status: ('A' for Active; 'I' for Inactive)
REMARK    1  A    between atoms: C_5  and  C_6 
REMARK    2  A    between atoms: C_6  and  N_7 
REMARK    3  A    between atoms: C_17  and  C_18 
REMARK    4  A    between atoms: C_27  and  C_28 
ROOT
HETATM    1  N   UNL     1      42.221 -15.483   4.130  1.00  0.00    -0.067 N 
HETATM    2  H   UNL     1      42.807 -15.305   4.959  1.00  0.00     0.280 HD
HETATM    3  C   UNL     1      43.095 -15.289   2.923  1.00  0.00     0.236 C 
HETATM    4  C   UNL     1      42.281 -15.285   1.629  1.00  0.00     0.039 C 
HETATM    5  C   UNL     1      41.077 -14.302   1.611  1.00  0.00    -0.013 C 
HETATM    6  C   UNL     1      41.514 -12.816   1.470  1.00  0.00     0.244 C 
HETATM    7  N   UNL     1      42.081 -12.511   0.104  1.00  0.00    -0.073 N 
HETATM    8  H   UNL     1      42.930 -13.064  -0.069  1.00  0.00     0.279 HD
HETATM    9  C   UNL     1      42.526 -11.064  -0.004  1.00  0.00     0.269 C 
HETATM   10  C   UNL     1      41.114 -12.839  -1.026  1.00  0.00     0.243 C 
HETATM   11  C   UNL     1      40.729 -14.320  -0.952  1.00  0.00     0.045 C 
HETATM   12  C   UNL     1      40.129 -14.652   0.426  1.00  0.00     0.022 C 
HETATM   13  C   UNL     1      40.271 -14.495   2.930  1.00  0.00     0.039 C 
HETATM   14  C   UNL     1      41.113 -14.467   4.204  1.00  0.00     0.236 C 
ENDROOT
BRANCH  11  15
HETATM   15  C   UNL     1      39.805 -14.699  -2.090  1.00  0.00    -0.052 A 
HETATM   16  C   UNL     1      38.534 -14.106  -2.174  1.00  0.00     0.007 A 
HETATM   17  C   UNL     1      37.653 -14.451  -3.199  1.00  0.00     0.001 A 
HETATM   18  C   UNL     1      38.027 -15.390  -4.155  1.00  0.00     0.000 A 
HETATM   19  C   UNL     1      39.284 -15.985  -4.088  1.00  0.00     0.001 A 
HETATM   20  C   UNL     1      40.169 -15.643  -3.063  1.00  0.00     0.007 A 
ENDBRANCH  11  15
BRANCH   1  21
HETATM   21  C   UNL     1      41.734 -16.916   4.366  1.00  0.00     0.277 C 
BRANCH  21  22
HETATM   22  C   UNL     1      42.738 -17.903   4.844  1.00  0.00     0.011 A 
HETATM   23  C   UNL     1      43.005 -18.280   6.185  1.00  0.00     0.149 A 
HETATM   24  N   UNL     1      44.002 -19.144   6.300  1.00  0.00    -0.185 NA
HETATM   25  N   UNL     1      44.359 -19.402   5.034  1.00  0.00    -0.278 N 
HETATM   26  C   UNL     1      45.418 -20.354   4.778  1.00  0.00     0.179 C 
HETATM   27  C   UNL     1      43.605 -18.710   4.112  1.00  0.00     0.043 A 
BRANCH  27  28
HETATM   28  C   UNL     1      43.761 -18.908   2.603  1.00  0.00     0.038 A 
HETATM   29  C   UNL     1      43.239 -20.179   1.968  1.00  0.00     0.011 A 
HETATM   30  C   UNL     1      42.589 -18.874   1.654  1.00  0.00     0.011 A 
ENDBRANCH  27  28
ENDBRANCH  21  22
ENDBRANCH   1  21
TORSDOF 4
ENDMDL
MODEL 6
REMARK VINA RESULT:      -8.4      2.727      8.786
REMARK  4 active torsions:
REMARK  status: ('A' for Active; 'I' for Inactive)
REMARK    1  A    between atoms: C_5  and  C_6 
REMARK    2  A    between atoms: C_6  and  N_7 
REMARK    3  A    between atoms: C_17  and  C_18 
REMARK    4  A    between atoms: C_27  and  C_28 
ROOT
HETATM    1  N   UNL     1      39.543 -13.315   0.047  1.00  0.00    -0.067 N 
HETATM    2  H   UNL     1      38.899 -12.520  -0.071  1.00  0.00     0.280 HD
HETATM    3  C   UNL     1      38.847 -14.318   0.924  1.00  0.00     0.236 C 
HETATM    4  C   UNL     1      39.793 -15.432   1.373  1.00  0.00     0.039 C 
HETATM    5  C   UNL     1      41.119 -14.947   2.022  1.00  0.00    -0.013 C 
HETATM    6  C   UNL     1      40.918 -14.389   3.460  1.00  0.00     0.244 C 
HETATM    7  N   UNL     1      40.558 -15.469   4.451  1.00  0.00    -0.073 N 
HETATM    8  H   UNL     1      39.663 -15.909   4.200  1.00  0.00     0.279 HD
HETATM    9  C   UNL     1      40.339 -14.900   5.841  1.00  0.00     0.269 C 
HETATM   10  C   UNL     1      41.589 -16.589   4.509  1.00  0.00     0.243 C 
HETATM   11  C   UNL     1      41.747 -17.206   3.115  1.00  0.00     0.045 C 
HETATM   12  C   UNL     1      42.135 -16.126   2.089  1.00  0.00     0.022 C 
HETATM   13  C   UNL     1      41.737 -13.847   1.108  1.00  0.00     0.039 C 
HETATM   14  C   UNL     1      40.769 -12.737   0.701  1.00  0.00     0.236 C 
ENDROOT
BRANCH  11  15
HETATM   15  C   UNL     1      42.729 -18.358   3.139  1.00  0.00    -0.052 A 
HETATM   16  C   UNL     1      43.513 -18.574   4.285  1.00  0.00     0.007 A 
HETATM   17  C   UNL     1      44.441 -19.614   4.329  1.00  0.00     0.001 A 
HETATM   18  C   UNL     1      44.601 -20.454   3.231  1.00  0.00     0.000 A 
HETATM   19  C   UNL     1      43.830 -20.256   2.089  1.00  0.00     0.001 A 
HETATM   20  C   UNL     1      42.899 -19.216   2.041  1.00  0.00     0.007 A 
ENDBRANCH  11  15
BRANCH   1  21
HETATM   21  C   UNL     1      39.791 -13.763  -1.397  1.00  0.00     0.277 C 
BRANCH  21  22
HETATM   22  C   UNL     1      39.514 -12.772  -2.470  1.00  0.00     0.011 A 
HETATM   23  C   UNL     1      38.258 -12.220  -2.829  1.00  0.00     0.149 A 
HETATM   24  N   UNL     1      38.321 -11.401  -3.869  1.00  0.00    -0.185 NA
HETATM   25  N   UNL     1      39.627 -11.348  -4.164  1.00  0.00    -0.278 N 
HETATM   26  C   UNL     1      40.073 -10.500  -5.249  1.00  0.00     0.179 C 
HETATM   27  C   UNL     1      40.399 -12.126  -3.329  1.00  0.00     0.043 A 
BRANCH  27  28
HETATM   28  C   UNL     1      41.926 -12.156  -3.408  1.00  0.00     0.038 A 
HETATM   29  C   UNL     1      42.733 -11.357  -2.407  1.00  0.00     0.011 A 
HETATM   30  C   UNL     1      42.780 -12.847  -2.373  1.00  0.00     0.011 A 
ENDBRANCH  27  28
ENDBRANCH  21  22
ENDBRANCH   1  21
TORSDOF 4
ENDMDL
MODEL 7
REMARK VINA RESULT:      -8.2      2.427      3.367
REMARK  4 active torsions:
REMARK  status: ('A' for Active; 'I' for Inactive)
REMARK    1  A    between atoms: C_5  and  C_6 
REMARK    2  A    between atoms: C_6  and  N_7 
REMARK    3  A    between atoms: C_17  and  C_18 
REMARK    4  A    between atoms: C_27  and  C_28 
ROOT
HETATM    1  N   UNL     1      41.951 -17.380   3.104  1.00  0.00    -0.067 N 
HETATM    2  H   UNL     1      41.588 -18.114   3.730  1.00  0.00     0.280 HD
HETATM    3  C   UNL     1      41.403 -16.071   3.598  1.00  0.00     0.236 C 
HETATM    4  C   UNL     1      41.670 -14.935   2.610  1.00  0.00     0.039 C 
HETATM    5  C   UNL     1      41.221 -15.214   1.149  1.00  0.00    -0.013 C 
HETATM    6  C   UNL     1      39.677 -15.152   0.970  1.00  0.00     0.244 C 
HETATM    7  N   UNL     1      39.138 -13.749   1.113  1.00  0.00    -0.073 N 
HETATM    8  H   UNL     1      39.320 -13.385   2.057  1.00  0.00     0.279 HD
HETATM    9  C   UNL     1      37.628 -13.714   0.963  1.00  0.00     0.269 C 
HETATM   10  C   UNL     1      39.776 -12.767   0.139  1.00  0.00     0.243 C 
HETATM   11  C   UNL     1      41.294 -12.754   0.351  1.00  0.00     0.045 C 
HETATM   12  C   UNL     1      41.871 -14.172   0.190  1.00  0.00     0.022 C 
HETATM   13  C   UNL     1      41.747 -16.622   0.737  1.00  0.00     0.039 C 
HETATM   14  C   UNL     1      41.437 -17.737   1.736  1.00  0.00     0.236 C 
ENDROOT
BRANCH  11  15
HETATM   15  C   UNL     1      41.962 -11.752  -0.566  1.00  0.00    -0.052 A 
HETATM   16  C   UNL     1      41.950 -11.971  -1.954  1.00  0.00     0.007 A 
HETATM   17  C   UNL     1      42.576 -11.076  -2.822  1.00  0.00     0.001 A 
HETATM   18  C   UNL     1      43.221  -9.950  -2.319  1.00  0.00     0.000 A 
HETATM   19  C   UNL     1      43.239  -9.717  -0.946  1.00  0.00     0.001 A 
HETATM   20  C   UNL     1      42.614 -10.611  -0.073  1.00  0.00     0.007 A 
ENDBRANCH  11  15
BRANCH   1  21
HETATM   21  C   UNL     1      43.468 -17.549   3.236  1.00  0.00     0.277 C 
BRANCH  21  22
HETATM   22  C   UNL     1      43.980 -18.929   3.444  1.00  0.00     0.011 A 
HETATM   23  C   UNL     1      44.342 -19.872   2.449  1.00  0.00     0.149 A 
HETATM   24  N   UNL     1      44.711 -21.045   2.944  1.00  0.00    -0.185 NA
HETATM   25  N   UNL     1      44.666 -20.867   4.272  1.00  0.00    -0.278 N 
HETATM   26  C   UNL     1      45.050 -21.956   5.144  1.00  0.00     0.179 C 
HETATM   27  C   UNL     1      44.268 -19.598   4.631  1.00  0.00     0.043 A 
BRANCH  27  28
HETATM   28  C   UNL     1      44.230 -19.126   6.085  1.00  0.00     0.038 A 
HETATM   29  C   UNL     1      45.252 -18.116   6.561  1.00  0.00     0.011 A 
HETATM   30  C   UNL     1      43.815 -17.729   6.476  1.00  0.00     0.011 A 
ENDBRANCH  27  28
ENDBRANCH  21  22
ENDBRANCH   1  21
TORSDOF 4
ENDMDL
MODEL 8
REMARK VINA RESULT:      -8.2      2.403      2.827
REMARK  4 active torsions:
REMARK  status: ('A' for Active; 'I' for Inactive)
REMARK    1  A    between atoms: C_5  and  C_6 
REMARK    2  A    between atoms: C_6  and  N_7 
REMARK    3  A    between atoms: C_17  and  C_18 
REMARK    4  A    between atoms: C_27  and  C_28 
ROOT
HETATM    1  N   UNL     1      41.478 -16.824   3.625  1.00  0.00    -0.067 N 
HETATM    2  H   UNL     1      41.054 -17.479   4.298  1.00  0.00     0.280 HD
HETATM    3  C   UNL     1      40.951 -15.456   3.951  1.00  0.00     0.236 C 
HETATM    4  C   UNL     1      41.315 -14.435   2.871  1.00  0.00     0.039 C 
HETATM    5  C   UNL     1      40.939 -14.848   1.421  1.00  0.00    -0.013 C 
HETATM    6  C   UNL     1      39.411 -14.758   1.146  1.00  0.00     0.244 C 
HETATM    7  N   UNL     1      38.915 -13.332   1.114  1.00  0.00    -0.073 N 
HETATM    8  H   UNL     1      39.057 -12.879   2.026  1.00  0.00     0.279 HD
HETATM    9  C   UNL     1      37.419 -13.268   0.872  1.00  0.00     0.269 C 
HETATM   10  C   UNL     1      39.642 -12.474   0.087  1.00  0.00     0.243 C 
HETATM   11  C   UNL     1      41.145 -12.487   0.387  1.00  0.00     0.045 C 
HETATM   12  C   UNL     1      41.678 -13.931   0.403  1.00  0.00     0.022 C 
HETATM   13  C   UNL     1      41.435 -16.306   1.185  1.00  0.00     0.039 C 
HETATM   14  C   UNL     1      41.030 -17.303   2.271  1.00  0.00     0.236 C 
ENDROOT
BRANCH  11  15
HETATM   15  C   UNL     1      41.899 -11.604  -0.585  1.00  0.00    -0.052 A 
HETATM   16  C   UNL     1      42.612 -10.494  -0.101  1.00  0.00     0.007 A 
HETATM   17  C   UNL     1      43.299  -9.652  -0.974  1.00  0.00     0.001 A 
HETATM   18  C   UNL     1      43.287  -9.904  -2.342  1.00  0.00     0.000 A 
HETATM   19  C   UNL     1      42.588 -11.002  -2.839  1.00  0.00     0.001 A 
HETATM   20  C   UNL     1      41.898 -11.847  -1.967  1.00  0.00     0.007 A 
ENDBRANCH  11  15
BRANCH   1  21
HETATM   21  C   UNL     1      42.978 -17.024   3.863  1.00  0.00     0.277 C 
BRANCH  21  22
HETATM   22  C   UNL     1      43.389 -18.248   4.600  1.00  0.00     0.011 A 
HETATM   23  C   UNL     1      43.174 -18.541   5.971  1.00  0.00     0.149 A 
HETATM   24  N   UNL     1      43.708 -19.691   6.355  1.00  0.00    -0.185 NA
HETATM   25  N   UNL     1      44.221 -20.205   5.227  1.00  0.00    -0.278 N 
HETATM   26  C   UNL     1      44.862 -21.501   5.269  1.00  0.00     0.179 C 
HETATM   27  C   UNL     1      44.024 -19.395   4.130  1.00  0.00     0.043 A 
BRANCH  27  28
HETATM   28  C   UNL     1      44.435 -19.808   2.716  1.00  0.00     0.038 A 
HETATM   29  C   UNL     1      43.620 -20.854   1.986  1.00  0.00     0.011 A 
HETATM   30  C   UNL     1      43.625 -19.446   1.495  1.00  0.00     0.011 A 
ENDBRANCH  27  28
ENDBRANCH  21  22
ENDBRANCH   1  21
TORSDOF 4
ENDMDL
MODEL 9
REMARK VINA RESULT:      -8.2      1.677      3.074
REMARK  4 active torsions:
REMARK  status: ('A' for Active; 'I' for Inactive)
REMARK    1  A    between atoms: C_5  and  C_6 
REMARK    2  A    between atoms: C_6  and  N_7 
REMARK    3  A    between atoms: C_17  and  C_18 
REMARK    4  A    between atoms: C_27  and  C_28 
ROOT
HETATM    1  N   UNL     1      42.185 -15.423   4.091  1.00  0.00    -0.067 N 
HETATM    2  H   UNL     1      42.772 -15.240   4.918  1.00  0.00     0.280 HD
HETATM    3  C   UNL     1      43.061 -15.253   2.882  1.00  0.00     0.236 C 
HETATM    4  C   UNL     1      42.248 -15.259   1.587  1.00  0.00     0.039 C 
HETATM    5  C   UNL     1      41.052 -14.267   1.555  1.00  0.00    -0.013 C 
HETATM    6  C   UNL     1      41.501 -12.787   1.395  1.00  0.00     0.244 C 
HETATM    7  N   UNL     1      42.071 -12.504   0.025  1.00  0.00    -0.073 N 
HETATM    8  H   UNL     1      42.916 -13.066  -0.139  1.00  0.00     0.279 HD
HETATM    9  C   UNL     1      42.528 -11.062  -0.101  1.00  0.00     0.269 C 
HETATM   10  C   UNL     1      41.102 -12.839  -1.101  1.00  0.00     0.243 C 
HETATM   11  C   UNL     1      40.706 -14.316  -1.008  1.00  0.00     0.045 C 
HETATM   12  C   UNL     1      40.102 -14.625   0.374  1.00  0.00     0.022 C 
HETATM   13  C   UNL     1      40.243 -14.436   2.876  1.00  0.00     0.039 C 
HETATM   14  C   UNL     1      41.085 -14.398   4.151  1.00  0.00     0.236 C 
ENDROOT
BRANCH  11  15
HETATM   15  C   UNL     1      39.780 -14.702  -2.141  1.00  0.00    -0.052 A 
HETATM   16  C   UNL     1      38.518 -14.093  -2.241  1.00  0.00     0.007 A 
HETATM   17  C   UNL     1      37.635 -14.444  -3.262  1.00  0.00     0.001 A 
HETATM   18  C   UNL     1      37.998 -15.407  -4.199  1.00  0.00     0.000 A 
HETATM   19  C   UNL     1      39.246 -16.019  -4.116  1.00  0.00     0.001 A 
HETATM   20  C   UNL     1      40.133 -15.670  -3.095  1.00  0.00     0.007 A 
ENDBRANCH  11  15
BRANCH   1  21
HETATM   21  C   UNL     1      41.686 -16.850   4.345  1.00  0.00     0.277 C 
BRANCH  21  22
HETATM   22  C   UNL     1      42.637 -17.959   4.069  1.00  0.00     0.011 A 
HETATM   23  C   UNL     1      42.799 -18.671   2.853  1.00  0.00     0.149 A 
HETATM   24  N   UNL     1      43.690 -19.648   2.930  1.00  0.00    -0.185 NA
HETATM   25  N   UNL     1      44.179 -19.547   4.174  1.00  0.00    -0.278 N 
HETATM   26  C   UNL     1      45.223 -20.454   4.599  1.00  0.00     0.179 C 
HETATM   27  C   UNL     1      43.607 -18.521   4.894  1.00  0.00     0.043 A 
BRANCH  27  28
HETATM   28  C   UNL     1      44.066 -18.148   6.305  1.00  0.00     0.038 A 
HETATM   29  C   UNL     1      43.033 -17.745   7.335  1.00  0.00     0.011 A 
HETATM   30  C   UNL     1      43.789 -19.018   7.506  1.00  0.00     0.011 A 
ENDBRANCH  27  28
ENDBRANCH  21  22
ENDBRANCH   1  21
TORSDOF 4
ENDMDL
MODEL 10
REMARK VINA RESULT:      -8.1      2.491      8.620
REMARK  4 active torsions:
REMARK  status: ('A' for Active; 'I' for Inactive)
REMARK    1  A    between atoms: C_5  and  C_6 
REMARK    2  A    between atoms: C_6  and  N_7 
REMARK    3  A    between atoms: C_17  and  C_18 
REMARK    4  A    between atoms: C_27  and  C_28 
ROOT
HETATM    1  N   UNL     1      39.966 -13.687   0.717  1.00  0.00    -0.067 N 
HETATM    2  H   UNL     1      39.348 -12.863   0.719  1.00  0.00     0.280 HD
HETATM    3  C   UNL     1      39.266 -14.763   1.499  1.00  0.00     0.236 C 
HETATM    4  C   UNL     1      40.186 -15.953   1.774  1.00  0.00     0.039 C 
HETATM    5  C   UNL     1      41.553 -15.593   2.419  1.00  0.00    -0.013 C 
HETATM    6  C   UNL     1      41.428 -15.202   3.919  1.00  0.00     0.244 C 
HETATM    7  N   UNL     1      41.066 -16.380   4.792  1.00  0.00    -0.073 N 
HETATM    8  H   UNL     1      40.146 -16.757   4.529  1.00  0.00     0.279 HD
HETATM    9  C   UNL     1      40.921 -15.972   6.246  1.00  0.00     0.269 C 
HETATM   10  C   UNL     1      42.055 -17.532   4.675  1.00  0.00     0.243 C 
HETATM   11  C   UNL     1      42.136 -17.985   3.213  1.00  0.00     0.045 C 
HETATM   12  C   UNL     1      42.525 -16.804   2.305  1.00  0.00     0.022 C 
HETATM   13  C   UNL     1      42.176 -14.413   1.614  1.00  0.00     0.039 C 
HETATM   14  C   UNL     1      41.236 -13.231   1.381  1.00  0.00     0.236 C 
ENDROOT
BRANCH  11  15
HETATM   15  C   UNL     1      43.074 -19.163   3.061  1.00  0.00    -0.052 A 
HETATM   16  C   UNL     1      43.949 -19.491   4.111  1.00  0.00     0.007 A 
HETATM   17  C   UNL     1      44.839 -20.557   3.991  1.00  0.00     0.001 A 
HETATM   18  C   UNL     1      44.870 -21.313   2.824  1.00  0.00     0.000 A 
HETATM   19  C   UNL     1      44.009 -21.004   1.774  1.00  0.00     0.001 A 
HETATM   20  C   UNL     1      43.116 -19.937   1.890  1.00  0.00     0.007 A 
ENDBRANCH  11  15
BRANCH   1  21
HETATM   21  C   UNL     1      40.141 -13.970  -0.779  1.00  0.00     0.277 C 
BRANCH  21  22
HETATM   22  C   UNL     1      40.967 -13.009  -1.557  1.00  0.00     0.011 A 
HETATM   23  C   UNL     1      42.242 -13.239  -2.133  1.00  0.00     0.149 A 
HETATM   24  N   UNL     1      42.756 -12.168  -2.720  1.00  0.00    -0.185 NA
HETATM   25  N   UNL     1      41.797 -11.239  -2.601  1.00  0.00    -0.278 N 
HETATM   26  C   UNL     1      42.008  -9.928  -3.176  1.00  0.00     0.179 C 
HETATM   27  C   UNL     1      40.679 -11.702  -1.941  1.00  0.00     0.043 A 
BRANCH  27  28
HETATM   28  C   UNL     1      39.416 -10.857  -1.765  1.00  0.00     0.038 A 
HETATM   29  C   UNL     1      38.399 -10.807  -2.885  1.00  0.00     0.011 A 
HETATM   30  C   UNL     1      38.047 -11.467  -1.596  1.00  0.00     0.011 A 
ENDBRANCH  27  28
ENDBRANCH  21  22
ENDBRANCH   1  21
TORSDOF 4
ENDMDL
