MODEL 1
REMARK VINA RESULT:      -9.2      0.000      0.000
REMARK  4 active torsions:
REMARK  status: ('A' for Active; 'I' for Inactive)
REMARK    1  A    between atoms: C_3  and  C_4 
REMARK    2  A    between atoms: C_14  and  N_15 
REMARK       I    between atoms: N_15  and  C_16 
REMARK    3  A    between atoms: C_16  and  C_17 
REMARK    4  A    between atoms: C_20  and  N_21 
ROOT
HETATM    1  N   UNL     1      42.623 -18.724   2.105  1.00  0.00    -0.322 N 
HETATM    2  C   UNL     1      43.011 -17.608   1.389  1.00  0.00     0.256 C 
HETATM    3  O   UNL     1      44.142 -17.354   0.992  1.00  0.00    -0.267 OA
HETATM    4  H   UNL     1      41.698 -18.712   2.519  1.00  0.00     0.169 HD
ENDROOT
BRANCH   1   5
HETATM    5  C   UNL     1      43.390 -19.895   2.336  1.00  0.00     0.049 A 
HETATM    6  C   UNL     1      43.910 -20.143   3.627  1.00  0.00     0.037 A 
HETATM    7  C   UNL     1      44.545 -21.366   3.897  1.00  0.00     0.017 A 
HETATM    8  C   UNL     1      44.708 -22.321   2.894  1.00  0.00     0.001 A 
HETATM    9  C   UNL     1      44.236 -22.060   1.612  1.00  0.00     0.002 A 
HETATM   10  C   UNL     1      43.580 -20.857   1.335  1.00  0.00     0.030 A 
BRANCH   6  11
HETATM   11  C   UNL     1      43.887 -19.140   4.692  1.00  0.00     0.141 A 
HETATM   12  N   UNL     1      44.053 -17.839   4.561  1.00  0.00    -0.228 NA
HETATM   13  C   UNL     1      43.920 -17.314   5.824  1.00  0.00     0.086 A 
HETATM   14  C   UNL     1      43.654 -18.313   6.751  1.00  0.00     0.062 A 
HETATM   15  C   UNL     1      44.014 -15.984   6.258  1.00  0.00     0.034 A 
HETATM   16  N   UNL     1      43.607 -19.459   6.003  1.00  0.00    -0.338 N 
HETATM   17  C   UNL     1      43.478 -18.070   8.115  1.00  0.00     0.032 A 
HETATM   18  H   UNL     1      43.397 -20.387   6.342  1.00  0.00     0.167 HD
HETATM   19  C   UNL     1      43.581 -16.738   8.531  1.00  0.00     0.002 A 
HETATM   20  C   UNL     1      43.843 -15.710   7.621  1.00  0.00     0.002 A 
ENDBRANCH   6  11
ENDBRANCH   1   5
BRANCH   2  21
HETATM   21  C   UNL     1      41.937 -16.603   1.170  1.00  0.00     0.032 A 
HETATM   22  C   UNL     1      42.052 -15.598   0.211  1.00  0.00     0.019 A 
HETATM   23  C   UNL     1      41.022 -14.659   0.049  1.00  0.00     0.031 A 
HETATM   24  C   UNL     1      39.852 -14.690   0.831  1.00  0.00     0.045 A 
HETATM   25  C   UNL     1      39.769 -15.711   1.794  1.00  0.00     0.031 A 
HETATM   26  C   UNL     1      40.797 -16.650   1.969  1.00  0.00     0.019 A 
BRANCH  24  27
HETATM   27  N   UNL     1      38.808 -13.719   0.664  1.00  0.00    -0.252 N 
HETATM   28  C   UNL     1      38.041 -13.579  -0.475  1.00  0.00     0.231 C 
HETATM   29  O   UNL     1      38.007 -14.269  -1.485  1.00  0.00    -0.273 OA
HETATM   30  C   UNL     1      37.177 -12.361  -0.339  1.00  0.00     0.113 C 
HETATM   31  C   UNL     1      37.229 -12.043   1.129  1.00  0.00     0.113 C 
HETATM   32  C   UNL     1      38.425 -12.801   1.621  1.00  0.00     0.231 C 
HETATM   33  O   UNL     1      38.900 -12.579   2.728  1.00  0.00    -0.273 OA
ENDBRANCH  24  27
ENDBRANCH   2  21
TORSDOF 4
ENDMDL
MODEL 2
REMARK VINA RESULT:      -8.9      2.628      9.148
REMARK  4 active torsions:
REMARK  status: ('A' for Active; 'I' for Inactive)
REMARK    1  A    between atoms: C_3  and  C_4 
REMARK    2  A    between atoms: C_14  and  N_15 
REMARK       I    between atoms: N_15  and  C_16 
REMARK    3  A    between atoms: C_16  and  C_17 
REMARK    4  A    between atoms: C_20  and  N_21 
ROOT
HETATM    1  N   UNL     1      40.477 -14.372   3.001  1.00  0.00    -0.322 N 
HETATM    2  C   UNL     1      41.854 -14.480   3.037  1.00  0.00     0.256 C 
HETATM    3  O   UNL     1      42.661 -13.573   2.873  1.00  0.00    -0.267 OA
HETATM    4  H   UNL     1      39.945 -15.234   2.973  1.00  0.00     0.169 HD
ENDROOT
BRANCH   1   5
HETATM    5  C   UNL     1      39.718 -13.174   2.986  1.00  0.00     0.049 A 
HETATM    6  C   UNL     1      39.057 -12.783   1.799  1.00  0.00     0.037 A 
HETATM    7  C   UNL     1      38.190 -11.678   1.818  1.00  0.00     0.017 A 
HETATM    8  C   UNL     1      38.008 -10.936   2.984  1.00  0.00     0.001 A 
HETATM    9  C   UNL     1      38.693 -11.292   4.141  1.00  0.00     0.002 A 
HETATM   10  C   UNL     1      39.540 -12.405   4.143  1.00  0.00     0.030 A 
BRANCH   6  11
HETATM   11  C   UNL     1      39.295 -13.438   0.512  1.00  0.00     0.141 A 
HETATM   12  N   UNL     1      40.388 -14.070   0.133  1.00  0.00    -0.228 NA
HETATM   13  C   UNL     1      40.132 -14.537  -1.134  1.00  0.00     0.086 A 
HETATM   14  C   UNL     1      38.848 -14.195  -1.538  1.00  0.00     0.062 A 
HETATM   15  C   UNL     1      40.954 -15.267  -2.005  1.00  0.00     0.034 A 
HETATM   16  N   UNL     1      38.327 -13.525  -0.464  1.00  0.00    -0.338 N 
HETATM   17  C   UNL     1      38.319 -14.534  -2.786  1.00  0.00     0.032 A 
HETATM   18  H   UNL     1      37.390 -13.157  -0.386  1.00  0.00     0.167 HD
HETATM   19  C   UNL     1      39.155 -15.256  -3.644  1.00  0.00     0.002 A 
HETATM   20  C   UNL     1      40.450 -15.620  -3.263  1.00  0.00     0.002 A 
ENDBRANCH   6  11
ENDBRANCH   1   5
BRANCH   2  21
HETATM   21  C   UNL     1      42.366 -15.865   3.216  1.00  0.00     0.032 A 
HETATM   22  C   UNL     1      41.778 -16.757   4.112  1.00  0.00     0.019 A 
HETATM   23  C   UNL     1      42.304 -18.050   4.264  1.00  0.00     0.031 A 
HETATM   24  C   UNL     1      43.423 -18.493   3.533  1.00  0.00     0.045 A 
HETATM   25  C   UNL     1      43.997 -17.568   2.643  1.00  0.00     0.031 A 
HETATM   26  C   UNL     1      43.485 -16.270   2.490  1.00  0.00     0.019 A 
BRANCH  24  27
HETATM   27  N   UNL     1      43.959 -19.814   3.702  1.00  0.00    -0.252 N 
HETATM   28  C   UNL     1      43.988 -20.781   2.718  1.00  0.00     0.231 C 
HETATM   29  O   UNL     1      43.683 -20.703   1.535  1.00  0.00    -0.273 OA
HETATM   30  C   UNL     1      44.464 -22.072   3.311  1.00  0.00     0.113 C 
HETATM   31  C   UNL     1      45.077 -21.663   4.621  1.00  0.00     0.113 C 
HETATM   32  C   UNL     1      44.525 -20.292   4.866  1.00  0.00     0.231 C 
HETATM   33  O   UNL     1      44.631 -19.757   5.963  1.00  0.00    -0.273 OA
ENDBRANCH  24  27
ENDBRANCH   2  21
TORSDOF 4
ENDMDL
MODEL 3
REMARK VINA RESULT:      -8.9      2.614      9.249
REMARK  4 active torsions:
REMARK  status: ('A' for Active; 'I' for Inactive)
REMARK    1  A    between atoms: C_3  and  C_4 
REMARK    2  A    between atoms: C_14  and  N_15 
REMARK       I    between atoms: N_15  and  C_16 
REMARK    3  A    between atoms: C_16  and  C_17 
REMARK    4  A    between atoms: C_20  and  N_21 
ROOT
HETATM    1  N   UNL     1      40.478 -14.342   3.029  1.00  0.00    -0.322 N 
HETATM    2  C   UNL     1      41.846 -14.442   3.193  1.00  0.00     0.256 C 
HETATM    3  O   UNL     1      42.653 -13.521   3.151  1.00  0.00    -0.267 OA
HETATM    4  H   UNL     1      39.961 -15.206   2.910  1.00  0.00     0.169 HD
ENDROOT
BRANCH   1   5
HETATM    5  C   UNL     1      39.709 -13.151   2.998  1.00  0.00     0.049 A 
HETATM    6  C   UNL     1      39.070 -12.766   1.797  1.00  0.00     0.037 A 
HETATM    7  C   UNL     1      38.193 -11.669   1.798  1.00  0.00     0.017 A 
HETATM    8  C   UNL     1      37.980 -10.928   2.959  1.00  0.00     0.001 A 
HETATM    9  C   UNL     1      38.644 -11.278   4.131  1.00  0.00     0.002 A 
HETATM   10  C   UNL     1      39.499 -12.383   4.151  1.00  0.00     0.030 A 
BRANCH   6  11
HETATM   11  C   UNL     1      39.341 -13.419   0.516  1.00  0.00     0.141 A 
HETATM   12  N   UNL     1      40.429 -14.081   0.176  1.00  0.00    -0.228 NA
HETATM   13  C   UNL     1      40.211 -14.531  -1.103  1.00  0.00     0.086 A 
HETATM   14  C   UNL     1      38.955 -14.149  -1.557  1.00  0.00     0.062 A 
HETATM   15  C   UNL     1      41.046 -15.279  -1.947  1.00  0.00     0.034 A 
HETATM   16  N   UNL     1      38.410 -13.471  -0.500  1.00  0.00    -0.338 N 
HETATM   17  C   UNL     1      38.467 -14.463  -2.827  1.00  0.00     0.032 A 
HETATM   18  H   UNL     1      37.482 -13.076  -0.456  1.00  0.00     0.167 HD
HETATM   19  C   UNL     1      39.316 -15.205  -3.657  1.00  0.00     0.002 A 
HETATM   20  C   UNL     1      40.583 -15.609  -3.227  1.00  0.00     0.002 A 
ENDBRANCH   6  11
ENDBRANCH   1   5
BRANCH   2  21
HETATM   21  C   UNL     1      42.356 -15.829   3.355  1.00  0.00     0.032 A 
HETATM   22  C   UNL     1      41.777 -16.727   4.251  1.00  0.00     0.019 A 
HETATM   23  C   UNL     1      42.300 -18.022   4.386  1.00  0.00     0.031 A 
HETATM   24  C   UNL     1      43.408 -18.463   3.638  1.00  0.00     0.045 A 
HETATM   25  C   UNL     1      43.974 -17.533   2.749  1.00  0.00     0.031 A 
HETATM   26  C   UNL     1      43.464 -16.232   2.612  1.00  0.00     0.019 A 
BRANCH  24  27
HETATM   27  N   UNL     1      43.942 -19.787   3.790  1.00  0.00    -0.252 N 
HETATM   28  C   UNL     1      44.458 -20.296   4.964  1.00  0.00     0.231 C 
HETATM   29  O   UNL     1      44.477 -19.807   6.086  1.00  0.00    -0.273 OA
HETATM   30  C   UNL     1      45.067 -21.637   4.693  1.00  0.00     0.113 C 
HETATM   31  C   UNL     1      44.510 -22.023   3.352  1.00  0.00     0.113 C 
HETATM   32  C   UNL     1      44.004 -20.731   2.785  1.00  0.00     0.231 C 
HETATM   33  O   UNL     1      43.700 -20.638   1.602  1.00  0.00    -0.273 OA
ENDBRANCH  24  27
ENDBRANCH   2  21
TORSDOF 4
ENDMDL
MODEL 4
REMARK VINA RESULT:      -8.6      4.931      9.007
REMARK  4 active torsions:
REMARK  status: ('A' for Active; 'I' for Inactive)
REMARK    1  A    between atoms: C_3  and  C_4 
REMARK    2  A    between atoms: C_14  and  N_15 
REMARK       I    between atoms: N_15  and  C_16 
REMARK    3  A    between atoms: C_16  and  C_17 
REMARK    4  A    between atoms: C_20  and  N_21 
ROOT
HETATM    1  N   UNL     1      41.655 -11.988   5.806  1.00  0.00    -0.322 N 
HETATM    2  C   UNL     1      40.853 -13.110   5.906  1.00  0.00     0.256 C 
HETATM    3  O   UNL     1      39.666 -13.131   6.206  1.00  0.00    -0.267 OA
HETATM    4  H   UNL     1      42.654 -12.138   5.727  1.00  0.00     0.169 HD
ENDROOT
BRANCH   1   5
HETATM    5  C   UNL     1      41.229 -10.635   5.812  1.00  0.00     0.049 A 
HETATM    6  C   UNL     1      41.516  -9.821   6.932  1.00  0.00     0.037 A 
HETATM    7  C   UNL     1      41.226  -8.447   6.885  1.00  0.00     0.017 A 
HETATM    8  C   UNL     1      40.617  -7.887   5.763  1.00  0.00     0.001 A 
HETATM    9  C   UNL     1      40.293  -8.696   4.678  1.00  0.00     0.002 A 
HETATM   10  C   UNL     1      40.599 -10.059   4.701  1.00  0.00     0.030 A 
BRANCH   6  11
HETATM   11  C   UNL     1      42.039 -10.362   8.187  1.00  0.00     0.141 A 
HETATM   12  N   UNL     1      43.149 -11.054   8.352  1.00  0.00    -0.228 NA
HETATM   13  C   UNL     1      43.232 -11.317   9.698  1.00  0.00     0.086 A 
HETATM   14  C   UNL     1      42.155 -10.763  10.378  1.00  0.00     0.062 A 
HETATM   15  C   UNL     1      44.205 -12.025  10.417  1.00  0.00     0.034 A 
HETATM   16  N   UNL     1      41.429 -10.137   9.402  1.00  0.00    -0.338 N 
HETATM   17  C   UNL     1      41.976 -10.879  11.759  1.00  0.00     0.032 A 
HETATM   18  H   UNL     1      40.589  -9.592   9.536  1.00  0.00     0.167 HD
HETATM   19  C   UNL     1      42.954 -11.594  12.458  1.00  0.00     0.002 A 
HETATM   20  C   UNL     1      44.052 -12.158  11.802  1.00  0.00     0.002 A 
ENDBRANCH   6  11
ENDBRANCH   1   5
BRANCH   2  21
HETATM   21  C   UNL     1      41.560 -14.402   5.700  1.00  0.00     0.032 A 
HETATM   22  C   UNL     1      42.941 -14.518   5.855  1.00  0.00     0.019 A 
HETATM   23  C   UNL     1      43.572 -15.753   5.633  1.00  0.00     0.031 A 
HETATM   24  C   UNL     1      42.853 -16.902   5.252  1.00  0.00     0.045 A 
HETATM   25  C   UNL     1      41.464 -16.750   5.097  1.00  0.00     0.031 A 
HETATM   26  C   UNL     1      40.825 -15.518   5.309  1.00  0.00     0.019 A 
BRANCH  24  27
HETATM   27  N   UNL     1      43.508 -18.158   5.018  1.00  0.00    -0.252 N 
HETATM   28  C   UNL     1      43.962 -18.589   3.789  1.00  0.00     0.231 C 
HETATM   29  O   UNL     1      44.001 -17.998   2.718  1.00  0.00    -0.273 OA
HETATM   30  C   UNL     1      44.433 -20.007   3.909  1.00  0.00     0.113 C 
HETATM   31  C   UNL     1      44.576 -20.216   5.390  1.00  0.00     0.113 C 
HETATM   32  C   UNL     1      43.779 -19.098   5.992  1.00  0.00     0.231 C 
HETATM   33  O   UNL     1      43.485 -19.103   7.180  1.00  0.00    -0.273 OA
ENDBRANCH  24  27
ENDBRANCH   2  21
TORSDOF 4
ENDMDL
MODEL 5
REMARK VINA RESULT:      -8.6      3.093      3.870
REMARK  4 active torsions:
REMARK  status: ('A' for Active; 'I' for Inactive)
REMARK    1  A    between atoms: C_3  and  C_4 
REMARK    2  A    between atoms: C_14  and  N_15 
REMARK       I    between atoms: N_15  and  C_16 
REMARK    3  A    between atoms: C_16  and  C_17 
REMARK    4  A    between atoms: C_20  and  N_21 
ROOT
HETATM    1  N   UNL     1      42.956 -17.081   1.217  1.00  0.00    -0.322 N 
HETATM    2  C   UNL     1      41.640 -16.972   0.809  1.00  0.00     0.256 C 
HETATM    3  O   UNL     1      40.724 -17.734   1.092  1.00  0.00    -0.267 OA
HETATM    4  H   UNL     1      43.635 -16.483   0.760  1.00  0.00     0.169 HD
ENDROOT
BRANCH   1   5
HETATM    5  C   UNL     1      43.469 -17.957   2.208  1.00  0.00     0.049 A 
HETATM    6  C   UNL     1      43.258 -17.663   3.574  1.00  0.00     0.037 A 
HETATM    7  C   UNL     1      43.636 -18.597   4.553  1.00  0.00     0.017 A 
HETATM    8  C   UNL     1      44.259 -19.791   4.194  1.00  0.00     0.001 A 
HETATM    9  C   UNL     1      44.508 -20.062   2.853  1.00  0.00     0.002 A 
HETATM   10  C   UNL     1      44.114 -19.153   1.867  1.00  0.00     0.030 A 
BRANCH   6  11
HETATM   11  C   UNL     1      42.725 -16.379   4.031  1.00  0.00     0.141 A 
HETATM   12  N   UNL     1      43.180 -15.178   3.731  1.00  0.00    -0.228 NA
HETATM   13  C   UNL     1      42.345 -14.290   4.366  1.00  0.00     0.086 A 
HETATM   14  C   UNL     1      41.346 -14.959   5.061  1.00  0.00     0.062 A 
HETATM   15  C   UNL     1      42.378 -12.889   4.393  1.00  0.00     0.034 A 
HETATM   16  N   UNL     1      41.591 -16.282   4.808  1.00  0.00    -0.338 N 
HETATM   17  C   UNL     1      40.359 -14.309   5.806  1.00  0.00     0.032 A 
HETATM   18  H   UNL     1      41.037 -17.065   5.125  1.00  0.00     0.167 HD
HETATM   19  C   UNL     1      40.412 -12.911   5.826  1.00  0.00     0.002 A 
HETATM   20  C   UNL     1      41.401 -12.209   5.131  1.00  0.00     0.002 A 
ENDBRANCH   6  11
ENDBRANCH   1   5
BRANCH   2  21
HETATM   21  C   UNL     1      41.370 -15.849  -0.128  1.00  0.00     0.032 A 
HETATM   22  C   UNL     1      41.148 -16.062  -1.488  1.00  0.00     0.019 A 
HETATM   23  C   UNL     1      40.915 -14.973  -2.342  1.00  0.00     0.031 A 
HETATM   24  C   UNL     1      40.895 -13.646  -1.872  1.00  0.00     0.045 A 
HETATM   25  C   UNL     1      41.129 -13.463  -0.498  1.00  0.00     0.031 A 
HETATM   26  C   UNL     1      41.372 -14.545   0.363  1.00  0.00     0.019 A 
BRANCH  24  27
HETATM   27  N   UNL     1      40.665 -12.537  -2.755  1.00  0.00    -0.252 N 
HETATM   28  C   UNL     1      41.634 -11.644  -3.163  1.00  0.00     0.231 C 
HETATM   29  O   UNL     1      42.842 -11.656  -2.965  1.00  0.00    -0.273 OA
HETATM   30  C   UNL     1      40.987 -10.536  -3.938  1.00  0.00     0.113 C 
HETATM   31  C   UNL     1      39.625 -11.077  -4.272  1.00  0.00     0.113 C 
HETATM   32  C   UNL     1      39.446 -12.220  -3.320  1.00  0.00     0.231 C 
HETATM   33  O   UNL     1      38.348 -12.737  -3.156  1.00  0.00    -0.273 OA
ENDBRANCH  24  27
ENDBRANCH   2  21
TORSDOF 4
ENDMDL
MODEL 6
REMARK VINA RESULT:      -8.5      2.208      4.854
REMARK  4 active torsions:
REMARK  status: ('A' for Active; 'I' for Inactive)
REMARK    1  A    between atoms: C_3  and  C_4 
REMARK    2  A    between atoms: C_14  and  N_15 
REMARK       I    between atoms: N_15  and  C_16 
REMARK    3  A    between atoms: C_16  and  C_17 
REMARK    4  A    between atoms: C_20  and  N_21 
ROOT
HETATM    1  N   UNL     1      42.859 -16.567   4.799  1.00  0.00    -0.322 N 
HETATM    2  C   UNL     1      41.664 -15.988   4.418  1.00  0.00     0.256 C 
HETATM    3  O   UNL     1      40.620 -15.980   5.060  1.00  0.00    -0.267 OA
HETATM    4  H   UNL     1      43.580 -16.651   4.092  1.00  0.00     0.169 HD
ENDROOT
BRANCH   1   5
HETATM    5  C   UNL     1      43.187 -17.073   6.083  1.00  0.00     0.049 A 
HETATM    6  C   UNL     1      43.792 -18.346   6.196  1.00  0.00     0.037 A 
HETATM    7  C   UNL     1      44.250 -18.789   7.447  1.00  0.00     0.017 A 
HETATM    8  C   UNL     1      44.073 -18.007   8.588  1.00  0.00     0.001 A 
HETATM    9  C   UNL     1      43.437 -16.774   8.486  1.00  0.00     0.002 A 
HETATM   10  C   UNL     1      43.000 -16.309   7.242  1.00  0.00     0.030 A 
BRANCH   6  11
HETATM   11  C   UNL     1      43.898 -19.271   5.067  1.00  0.00     0.141 A 
HETATM   12  N   UNL     1      43.504 -19.059   3.827  1.00  0.00    -0.228 NA
HETATM   13  C   UNL     1      43.835 -20.194   3.127  1.00  0.00     0.086 A 
HETATM   14  C   UNL     1      44.458 -21.121   3.953  1.00  0.00     0.062 A 
HETATM   15  C   UNL     1      43.634 -20.507   1.775  1.00  0.00     0.034 A 
HETATM   16  N   UNL     1      44.514 -20.499   5.171  1.00  0.00    -0.338 N 
HETATM   17  C   UNL     1      44.897 -22.372   3.512  1.00  0.00     0.032 A 
HETATM   18  H   UNL     1      44.938 -20.865   6.012  1.00  0.00     0.167 HD
HETATM   19  C   UNL     1      44.682 -22.669   2.162  1.00  0.00     0.002 A 
HETATM   20  C   UNL     1      44.064 -21.754   1.305  1.00  0.00     0.002 A 
ENDBRANCH   6  11
ENDBRANCH   1   5
BRANCH   2  21
HETATM   21  C   UNL     1      41.665 -15.396   3.053  1.00  0.00     0.032 A 
HETATM   22  C   UNL     1      42.441 -15.925   2.022  1.00  0.00     0.019 A 
HETATM   23  C   UNL     1      42.428 -15.325   0.753  1.00  0.00     0.031 A 
HETATM   24  C   UNL     1      41.647 -14.188   0.472  1.00  0.00     0.045 A 
HETATM   25  C   UNL     1      40.883 -13.674   1.534  1.00  0.00     0.031 A 
HETATM   26  C   UNL     1      40.895 -14.261   2.809  1.00  0.00     0.019 A 
BRANCH  24  27
HETATM   27  N   UNL     1      41.647 -13.576  -0.826  1.00  0.00    -0.252 N 
HETATM   28  C   UNL     1      41.022 -14.097  -1.940  1.00  0.00     0.231 C 
HETATM   29  O   UNL     1      40.289 -15.073  -2.041  1.00  0.00    -0.273 OA
HETATM   30  C   UNL     1      41.381 -13.271  -3.138  1.00  0.00     0.113 C 
HETATM   31  C   UNL     1      41.945 -12.009  -2.550  1.00  0.00     0.113 C 
HETATM   32  C   UNL     1      42.266 -12.380  -1.134  1.00  0.00     0.231 C 
HETATM   33  O   UNL     1      42.961 -11.655  -0.434  1.00  0.00    -0.273 OA
ENDBRANCH  24  27
ENDBRANCH   2  21
TORSDOF 4
ENDMDL
MODEL 7
REMARK VINA RESULT:      -8.5      3.745      6.390
REMARK  4 active torsions:
REMARK  status: ('A' for Active; 'I' for Inactive)
REMARK    1  A    between atoms: C_3  and  C_4 
REMARK    2  A    between atoms: C_14  and  N_15 
REMARK       I    between atoms: N_15  and  C_16 
REMARK    3  A    between atoms: C_16  and  C_17 
REMARK    4  A    between atoms: C_20  and  N_21 
ROOT
HETATM    1  N   UNL     1      42.180 -16.477   4.382  1.00  0.00    -0.322 N 
HETATM    2  C   UNL     1      42.839 -15.620   5.243  1.00  0.00     0.256 C 
HETATM    3  O   UNL     1      43.948 -15.794   5.734  1.00  0.00    -0.267 OA
HETATM    4  H   UNL     1      41.200 -16.289   4.201  1.00  0.00     0.169 HD
ENDROOT
BRANCH   1   5
HETATM    5  C   UNL     1      42.726 -17.609   3.724  1.00  0.00     0.049 A 
HETATM    6  C   UNL     1      42.670 -17.689   2.314  1.00  0.00     0.037 A 
HETATM    7  C   UNL     1      43.334 -18.733   1.650  1.00  0.00     0.017 A 
HETATM    8  C   UNL     1      44.010 -19.717   2.369  1.00  0.00     0.001 A 
HETATM    9  C   UNL     1      44.028 -19.665   3.759  1.00  0.00     0.002 A 
HETATM   10  C   UNL     1      43.393 -18.617   4.432  1.00  0.00     0.030 A 
BRANCH   6  11
HETATM   11  C   UNL     1      41.876 -16.764   1.503  1.00  0.00     0.141 A 
HETATM   12  N   UNL     1      40.855 -16.033   1.903  1.00  0.00    -0.228 NA
HETATM   13  C   UNL     1      40.456 -15.310   0.804  1.00  0.00     0.086 A 
HETATM   14  C   UNL     1      41.259 -15.594  -0.294  1.00  0.00     0.062 A 
HETATM   15  C   UNL     1      39.411 -14.385   0.668  1.00  0.00     0.034 A 
HETATM   16  N   UNL     1      42.171 -16.496   0.184  1.00  0.00    -0.338 N 
HETATM   17  C   UNL     1      41.079 -15.009  -1.550  1.00  0.00     0.032 A 
HETATM   18  H   UNL     1      42.940 -16.899  -0.332  1.00  0.00     0.167 HD
HETATM   19  C   UNL     1      40.028 -14.094  -1.668  1.00  0.00     0.002 A 
HETATM   20  C   UNL     1      39.207 -13.783  -0.580  1.00  0.00     0.002 A 
ENDBRANCH   6  11
ENDBRANCH   1   5
BRANCH   2  21
HETATM   21  C   UNL     1      42.058 -14.422   5.649  1.00  0.00     0.032 A 
HETATM   22  C   UNL     1      40.665 -14.432   5.696  1.00  0.00     0.019 A 
HETATM   23  C   UNL     1      39.965 -13.273   6.067  1.00  0.00     0.031 A 
HETATM   24  C   UNL     1      40.626 -12.076   6.403  1.00  0.00     0.045 A 
HETATM   25  C   UNL     1      42.030 -12.096   6.340  1.00  0.00     0.031 A 
HETATM   26  C   UNL     1      42.739 -13.247   5.961  1.00  0.00     0.019 A 
BRANCH  24  27
HETATM   27  N   UNL     1      39.901 -10.894   6.773  1.00  0.00    -0.252 N 
HETATM   28  C   UNL     1      39.395  -9.971   5.880  1.00  0.00     0.231 C 
HETATM   29  O   UNL     1      39.360 -10.005   4.657  1.00  0.00    -0.273 OA
HETATM   30  C   UNL     1      38.854  -8.797   6.639  1.00  0.00     0.113 C 
HETATM   31  C   UNL     1      38.738  -9.302   8.050  1.00  0.00     0.113 C 
HETATM   32  C   UNL     1      39.606 -10.524   8.070  1.00  0.00     0.231 C 
HETATM   33  O   UNL     1      39.929 -11.049   9.127  1.00  0.00    -0.273 OA
ENDBRANCH  24  27
ENDBRANCH   2  21
TORSDOF 4
ENDMDL
MODEL 8
REMARK VINA RESULT:      -8.4      5.493      9.650
REMARK  4 active torsions:
REMARK  status: ('A' for Active; 'I' for Inactive)
REMARK    1  A    between atoms: C_3  and  C_4 
REMARK    2  A    between atoms: C_14  and  N_15 
REMARK       I    between atoms: N_15  and  C_16 
REMARK    3  A    between atoms: C_16  and  C_17 
REMARK    4  A    between atoms: C_20  and  N_21 
ROOT
HETATM    1  N   UNL     1      40.379 -11.398   6.341  1.00  0.00    -0.322 N 
HETATM    2  C   UNL     1      41.054 -12.032   5.316  1.00  0.00     0.256 C 
HETATM    3  O   UNL     1      41.183 -11.625   4.168  1.00  0.00    -0.267 OA
HETATM    4  H   UNL     1      40.201 -11.935   7.183  1.00  0.00     0.169 HD
ENDROOT
BRANCH   1   5
HETATM    5  C   UNL     1      39.890 -10.066   6.343  1.00  0.00     0.049 A 
HETATM    6  C   UNL     1      40.446  -9.121   7.236  1.00  0.00     0.037 A 
HETATM    7  C   UNL     1      40.069  -7.772   7.143  1.00  0.00     0.017 A 
HETATM    8  C   UNL     1      39.120  -7.360   6.208  1.00  0.00     0.001 A 
HETATM    9  C   UNL     1      38.539  -8.297   5.359  1.00  0.00     0.002 A 
HETATM   10  C   UNL     1      38.923  -9.639   5.423  1.00  0.00     0.030 A 
BRANCH   6  11
HETATM   11  C   UNL     1      41.352  -9.501   8.320  1.00  0.00     0.141 A 
HETATM   12  N   UNL     1      42.424 -10.263   8.229  1.00  0.00    -0.228 NA
HETATM   13  C   UNL     1      42.960 -10.310   9.494  1.00  0.00     0.086 A 
HETATM   14  C   UNL     1      42.209  -9.549  10.380  1.00  0.00     0.062 A 
HETATM   15  C   UNL     1      44.096 -10.986   9.963  1.00  0.00     0.034 A 
HETATM   16  N   UNL     1      41.212  -9.021   9.604  1.00  0.00    -0.338 N 
HETATM   17  C   UNL     1      42.517  -9.420  11.736  1.00  0.00     0.032 A 
HETATM   18  H   UNL     1      40.492  -8.381   9.908  1.00  0.00     0.167 HD
HETATM   19  C   UNL     1      43.649 -10.107  12.188  1.00  0.00     0.002 A 
HETATM   20  C   UNL     1      44.429 -10.876  11.319  1.00  0.00     0.002 A 
ENDBRANCH   6  11
ENDBRANCH   1   5
BRANCH   2  21
HETATM   21  C   UNL     1      41.593 -13.374   5.662  1.00  0.00     0.032 A 
HETATM   22  C   UNL     1      42.954 -13.589   5.875  1.00  0.00     0.019 A 
HETATM   23  C   UNL     1      43.424 -14.875   6.181  1.00  0.00     0.031 A 
HETATM   24  C   UNL     1      42.560 -15.982   6.284  1.00  0.00     0.045 A 
HETATM   25  C   UNL     1      41.195 -15.735   6.057  1.00  0.00     0.031 A 
HETATM   26  C   UNL     1      40.715 -14.453   5.742  1.00  0.00     0.019 A 
BRANCH  24  27
HETATM   27  N   UNL     1      43.051 -17.296   6.589  1.00  0.00    -0.252 N 
HETATM   28  C   UNL     1      43.170 -18.321   5.673  1.00  0.00     0.231 C 
HETATM   29  O   UNL     1      42.999 -18.311   4.461  1.00  0.00    -0.273 OA
HETATM   30  C   UNL     1      43.555 -19.579   6.391  1.00  0.00     0.113 C 
HETATM   31  C   UNL     1      44.027 -19.099   7.734  1.00  0.00     0.113 C 
HETATM   32  C   UNL     1      43.476 -17.709   7.836  1.00  0.00     0.231 C 
HETATM   33  O   UNL     1      43.469 -17.110   8.904  1.00  0.00    -0.273 OA
ENDBRANCH  24  27
ENDBRANCH   2  21
TORSDOF 4
ENDMDL
MODEL 9
REMARK VINA RESULT:      -8.4      5.323      9.221
REMARK  4 active torsions:
REMARK  status: ('A' for Active; 'I' for Inactive)
REMARK    1  A    between atoms: C_3  and  C_4 
REMARK    2  A    between atoms: C_14  and  N_15 
REMARK       I    between atoms: N_15  and  C_16 
REMARK    3  A    between atoms: C_16  and  C_17 
REMARK    4  A    between atoms: C_20  and  N_21 
ROOT
HETATM    1  N   UNL     1      40.582 -11.143   6.024  1.00  0.00    -0.322 N 
HETATM    2  C   UNL     1      40.018 -12.386   6.238  1.00  0.00     0.256 C 
HETATM    3  O   UNL     1      39.012 -12.626   6.895  1.00  0.00    -0.267 OA
HETATM    4  H   UNL     1      41.509 -11.118   5.615  1.00  0.00     0.169 HD
ENDROOT
BRANCH   1   5
HETATM    5  C   UNL     1      40.005  -9.883   6.329  1.00  0.00     0.049 A 
HETATM    6  C   UNL     1      40.537  -9.111   7.387  1.00  0.00     0.037 A 
HETATM    7  C   UNL     1      40.065  -7.805   7.599  1.00  0.00     0.017 A 
HETATM    8  C   UNL     1      39.047  -7.279   6.807  1.00  0.00     0.001 A 
HETATM    9  C   UNL     1      38.491  -8.054   5.794  1.00  0.00     0.002 A 
HETATM   10  C   UNL     1      38.968  -9.346   5.555  1.00  0.00     0.030 A 
BRANCH   6  11
HETATM   11  C   UNL     1      41.517  -9.642   8.334  1.00  0.00     0.141 A 
HETATM   12  N   UNL     1      42.523 -10.451   8.067  1.00  0.00    -0.228 NA
HETATM   13  C   UNL     1      43.175 -10.649   9.260  1.00  0.00     0.086 A 
HETATM   14  C   UNL     1      42.564  -9.935  10.283  1.00  0.00     0.062 A 
HETATM   15  C   UNL     1      44.304 -11.428   9.548  1.00  0.00     0.034 A 
HETATM   16  N   UNL     1      41.533  -9.280   9.664  1.00  0.00    -0.338 N 
HETATM   17  C   UNL     1      43.009  -9.954  11.607  1.00  0.00     0.032 A 
HETATM   18  H   UNL     1      40.889  -8.633  10.096  1.00  0.00     0.167 HD
HETATM   19  C   UNL     1      44.133 -10.742  11.877  1.00  0.00     0.002 A 
HETATM   20  C   UNL     1      44.774 -11.467  10.867  1.00  0.00     0.002 A 
ENDBRANCH   6  11
ENDBRANCH   1   5
BRANCH   2  21
HETATM   21  C   UNL     1      40.784 -13.525   5.664  1.00  0.00     0.032 A 
HETATM   22  C   UNL     1      42.172 -13.605   5.768  1.00  0.00     0.019 A 
HETATM   23  C   UNL     1      42.858 -14.688   5.196  1.00  0.00     0.031 A 
HETATM   24  C   UNL     1      42.189 -15.718   4.508  1.00  0.00     0.045 A 
HETATM   25  C   UNL     1      40.791 -15.604   4.415  1.00  0.00     0.031 A 
HETATM   26  C   UNL     1      40.096 -14.521   4.976  1.00  0.00     0.019 A 
BRANCH  24  27
HETATM   27  N   UNL     1      42.900 -16.817   3.919  1.00  0.00    -0.252 N 
HETATM   28  C   UNL     1      43.311 -17.943   4.602  1.00  0.00     0.231 C 
HETATM   29  O   UNL     1      43.085 -18.284   5.756  1.00  0.00    -0.273 OA
HETATM   30  C   UNL     1      44.162 -18.784   3.698  1.00  0.00     0.113 C 
HETATM   31  C   UNL     1      43.878 -18.239   2.326  1.00  0.00     0.113 C 
HETATM   32  C   UNL     1      43.262 -16.899   2.589  1.00  0.00     0.231 C 
HETATM   33  O   UNL     1      43.125 -16.081   1.688  1.00  0.00    -0.273 OA
ENDBRANCH  24  27
ENDBRANCH   2  21
TORSDOF 4
ENDMDL
MODEL 10
REMARK VINA RESULT:      -8.3      3.313      9.002
REMARK  4 active torsions:
REMARK  status: ('A' for Active; 'I' for Inactive)
REMARK    1  A    between atoms: C_3  and  C_4 
REMARK    2  A    between atoms: C_14  and  N_15 
REMARK       I    between atoms: N_15  and  C_16 
REMARK    3  A    between atoms: C_16  and  C_17 
REMARK    4  A    between atoms: C_20  and  N_21 
ROOT
HETATM    1  N   UNL     1      42.088 -13.424   5.753  1.00  0.00    -0.322 N 
HETATM    2  C   UNL     1      41.279 -14.539   5.873  1.00  0.00     0.256 C 
HETATM    3  O   UNL     1      40.102 -14.551   6.210  1.00  0.00    -0.267 OA
HETATM    4  H   UNL     1      43.083 -13.583   5.643  1.00  0.00     0.169 HD
ENDROOT
BRANCH   1   5
HETATM    5  C   UNL     1      41.676 -12.067   5.780  1.00  0.00     0.049 A 
HETATM    6  C   UNL     1      41.076 -11.499   4.633  1.00  0.00     0.037 A 
HETATM    7  C   UNL     1      40.537 -10.204   4.700  1.00  0.00     0.017 A 
HETATM    8  C   UNL     1      40.626  -9.456   5.873  1.00  0.00     0.001 A 
HETATM    9  C   UNL     1      41.257  -9.996   6.988  1.00  0.00     0.002 A 
HETATM   10  C   UNL     1      41.775 -11.294   6.944  1.00  0.00     0.030 A 
BRANCH   6  11
HETATM   11  C   UNL     1      41.057 -12.177   3.336  1.00  0.00     0.141 A 
HETATM   12  N   UNL     1      40.266 -13.164   2.967  1.00  0.00    -0.228 NA
HETATM   13  C   UNL     1      40.598 -13.448   1.665  1.00  0.00     0.086 A 
HETATM   14  C   UNL     1      41.609 -12.606   1.217  1.00  0.00     0.062 A 
HETATM   15  C   UNL     1      40.076 -14.414   0.794  1.00  0.00     0.034 A 
HETATM   16  N   UNL     1      41.861 -11.789   2.286  1.00  0.00    -0.338 N 
HETATM   17  C   UNL     1      42.152 -12.672  -0.068  1.00  0.00     0.032 A 
HETATM   18  H   UNL     1      42.519 -11.023   2.312  1.00  0.00     0.167 HD
HETATM   19  C   UNL     1      41.623 -13.647  -0.921  1.00  0.00     0.002 A 
HETATM   20  C   UNL     1      40.601 -14.504  -0.502  1.00  0.00     0.002 A 
ENDBRANCH   6  11
ENDBRANCH   1   5
BRANCH   2  21
HETATM   21  C   UNL     1      41.968 -15.836   5.639  1.00  0.00     0.032 A 
HETATM   22  C   UNL     1      43.337 -15.992   5.852  1.00  0.00     0.019 A 
HETATM   23  C   UNL     1      43.951 -17.229   5.601  1.00  0.00     0.031 A 
HETATM   24  C   UNL     1      43.226 -18.343   5.134  1.00  0.00     0.045 A 
HETATM   25  C   UNL     1      41.850 -18.151   4.922  1.00  0.00     0.031 A 
HETATM   26  C   UNL     1      41.228 -16.916   5.162  1.00  0.00     0.019 A 
BRANCH  24  27
HETATM   27  N   UNL     1      43.865 -19.601   4.871  1.00  0.00    -0.252 N 
HETATM   28  C   UNL     1      44.330 -20.003   3.636  1.00  0.00     0.231 C 
HETATM   29  O   UNL     1      44.395 -19.380   2.584  1.00  0.00    -0.273 OA
HETATM   30  C   UNL     1      44.777 -21.431   3.719  1.00  0.00     0.113 C 
HETATM   31  C   UNL     1      44.893 -21.687   5.195  1.00  0.00     0.113 C 
HETATM   32  C   UNL     1      44.106 -20.575   5.819  1.00  0.00     0.231 C 
HETATM   33  O   UNL     1      43.794 -20.612   7.003  1.00  0.00    -0.273 OA
ENDBRANCH  24  27
ENDBRANCH   2  21
TORSDOF 4
ENDMDL
