MODEL 1
REMARK VINA RESULT:      -8.4      0.000      0.000
REMARK  7 active torsions:
REMARK  status: ('A' for Active; 'I' for Inactive)
REMARK    1  A    between atoms: C_2  and  O_3 
REMARK    2  A    between atoms: O_3  and  C_4 
REMARK    3  A    between atoms: C_4  and  C_5 
REMARK    4  A    between atoms: C_6  and  C_7 
REMARK    5  A    between atoms: C_18  and  S_19 
REMARK    6  A    between atoms: S_19  and  C_20 
REMARK    7  A    between atoms: C_20  and  C_21 
ROOT
HETATM    1  C   UNL     1      39.795 -13.957  -1.450  1.00  0.00     0.070 C 
HETATM    2  C   UNL     1      39.423 -14.159   0.021  1.00  0.00     0.203 C 
HETATM    3  N   UNL     1      40.436 -14.961   0.712  1.00  0.00    -0.082 N 
HETATM    4  C   UNL     1      41.690 -15.188   0.222  1.00  0.00     0.726 A 
HETATM    5  N   UNL     1      42.021 -14.681  -0.983  1.00  0.00    -0.192 N 
HETATM    6  N   UNL     1      40.223 -15.635   1.855  1.00  0.00    -0.128 NA
HETATM    7  C   UNL     1      41.419 -16.208   2.034  1.00  0.00     0.226 A 
HETATM    8  N   UNL     1      42.353 -15.945   1.059  1.00  0.00    -0.035 NA
HETATM    9  C   UNL     1      41.073 -14.163  -1.870  1.00  0.00     0.037 C 
HETATM   10  C   UNL     1      41.590 -13.863  -3.255  1.00  0.00     0.070 C 
HETATM   11  H   UNL     1      42.922 -14.942  -1.377  1.00  0.00     0.184 HD
ENDROOT
BRANCH   7  12
HETATM   12  S   UNL     1      41.701 -17.244   3.402  1.00  0.00    -0.083 SA
BRANCH  12  13
HETATM   13  C   UNL     1      43.485 -17.530   3.244  1.00  0.00     0.123 C 
BRANCH  13  14
HETATM   14  C   UNL     1      43.791 -19.007   3.156  1.00  0.00    -0.027 A 
HETATM   15  C   UNL     1      44.468 -19.707   4.169  1.00  0.00     0.041 A 
HETATM   16 CL   UNL     1      44.980 -18.943   5.631  1.00  0.00    -0.084 Cl
HETATM   17  C   UNL     1      44.757 -21.069   4.020  1.00  0.00     0.024 A 
HETATM   18  C   UNL     1      44.384 -21.746   2.860  1.00  0.00     0.002 A 
HETATM   19  C   UNL     1      43.720 -21.065   1.845  1.00  0.00     0.001 A 
HETATM   20  C   UNL     1      43.428 -19.707   1.990  1.00  0.00     0.009 A 
ENDBRANCH  13  14
ENDBRANCH  12  13
ENDBRANCH   7  12
BRANCH   2  21
HETATM   21  C   UNL     1      39.232 -12.832   0.761  1.00  0.00    -0.028 A 
HETATM   22  C   UNL     1      37.975 -12.510   1.302  1.00  0.00     0.011 A 
HETATM   23  C   UNL     1      37.769 -11.292   1.955  1.00  0.00     0.024 A 
HETATM   24  C   UNL     1      38.817 -10.382   2.074  1.00  0.00     0.034 A 
HETATM   25 CL   UNL     1      38.560  -8.878   2.866  1.00  0.00    -0.084 Cl
HETATM   26  C   UNL     1      40.071 -10.683   1.550  1.00  0.00     0.024 A 
HETATM   27  C   UNL     1      40.279 -11.901   0.898  1.00  0.00     0.011 A 
ENDBRANCH   2  21
BRANCH   1  28
HETATM   28  C   UNL     1      38.618 -13.596  -2.284  1.00  0.00     0.293 C 
HETATM   29  O   UNL     1      38.417 -12.460  -2.689  1.00  0.00    -0.259 OA
BRANCH  28  30
HETATM   30  O   UNL     1      37.759 -14.631  -2.433  1.00  0.00    -0.318 OA
BRANCH  30  31
HETATM   31  C   UNL     1      37.560 -15.094  -3.778  1.00  0.00     0.174 C 
HETATM   32  C   UNL     1      38.686 -16.020  -4.201  1.00  0.00     0.034 C 
ENDBRANCH  30  31
ENDBRANCH  28  30
ENDBRANCH   1  28
TORSDOF 7
ENDMDL
MODEL 2
REMARK VINA RESULT:      -8.3      3.806      5.781
REMARK  7 active torsions:
REMARK  status: ('A' for Active; 'I' for Inactive)
REMARK    1  A    between atoms: C_2  and  O_3 
REMARK    2  A    between atoms: O_3  and  C_4 
REMARK    3  A    between atoms: C_4  and  C_5 
REMARK    4  A    between atoms: C_6  and  C_7 
REMARK    5  A    between atoms: C_18  and  S_19 
REMARK    6  A    between atoms: S_19  and  C_20 
REMARK    7  A    between atoms: C_20  and  C_21 
ROOT
HETATM    1  C   UNL     1      41.112 -13.578   5.070  1.00  0.00     0.070 C 
HETATM    2  C   UNL     1      42.110 -14.593   4.506  1.00  0.00     0.203 C 
HETATM    3  N   UNL     1      42.156 -15.799   5.336  1.00  0.00    -0.082 N 
HETATM    4  C   UNL     1      41.203 -16.124   6.259  1.00  0.00     0.726 A 
HETATM    5  N   UNL     1      40.170 -15.280   6.455  1.00  0.00    -0.192 N 
HETATM    6  N   UNL     1      43.176 -16.673   5.351  1.00  0.00    -0.128 NA
HETATM    7  C   UNL     1      42.746 -17.544   6.273  1.00  0.00     0.226 A 
HETATM    8  N   UNL     1      41.529 -17.249   6.843  1.00  0.00    -0.035 NA
HETATM    9  C   UNL     1      40.160 -13.973   5.958  1.00  0.00     0.037 C 
HETATM   10  C   UNL     1      39.040 -13.103   6.473  1.00  0.00     0.070 C 
HETATM   11  H   UNL     1      39.524 -15.487   7.213  1.00  0.00     0.184 HD
ENDROOT
BRANCH   7  12
HETATM   12  S   UNL     1      43.725 -18.913   6.713  1.00  0.00    -0.083 SA
BRANCH  12  13
HETATM   13  C   UNL     1      44.959 -18.883   5.385  1.00  0.00     0.123 C 
BRANCH  13  14
HETATM   14  C   UNL     1      44.739 -20.020   4.414  1.00  0.00    -0.027 A 
HETATM   15  C   UNL     1      44.307 -19.821   3.092  1.00  0.00     0.041 A 
HETATM   16 CL   UNL     1      44.024 -18.244   2.444  1.00  0.00    -0.084 Cl
HETATM   17  C   UNL     1      44.085 -20.913   2.244  1.00  0.00     0.024 A 
HETATM   18  C   UNL     1      44.282 -22.214   2.705  1.00  0.00     0.002 A 
HETATM   19  C   UNL     1      44.702 -22.428   4.014  1.00  0.00     0.001 A 
HETATM   20  C   UNL     1      44.927 -21.341   4.862  1.00  0.00     0.009 A 
ENDBRANCH  13  14
ENDBRANCH  12  13
ENDBRANCH   7  12
BRANCH   2  21
HETATM   21  C   UNL     1      41.791 -14.982   3.059  1.00  0.00    -0.028 A 
HETATM   22  C   UNL     1      42.734 -14.736   2.047  1.00  0.00     0.011 A 
HETATM   23  C   UNL     1      42.453 -15.055   0.716  1.00  0.00     0.024 A 
HETATM   24  C   UNL     1      41.226 -15.622   0.382  1.00  0.00     0.034 A 
HETATM   25 CL   UNL     1      40.875 -16.003  -1.258  1.00  0.00    -0.084 Cl
HETATM   26  C   UNL     1      40.279 -15.879   1.370  1.00  0.00     0.024 A 
HETATM   27  C   UNL     1      40.559 -15.561   2.702  1.00  0.00     0.011 A 
ENDBRANCH   2  21
BRANCH   1  28
HETATM   28  C   UNL     1      41.375 -12.199   4.581  1.00  0.00     0.293 C 
HETATM   29  O   UNL     1      42.239 -11.480   5.062  1.00  0.00    -0.259 OA
BRANCH  28  30
HETATM   30  O   UNL     1      40.483 -11.810   3.641  1.00  0.00    -0.318 OA
BRANCH  30  31
HETATM   31  C   UNL     1      41.037 -11.374   2.390  1.00  0.00     0.174 C 
HETATM   32  C   UNL     1      40.303 -12.012   1.224  1.00  0.00     0.034 C 
ENDBRANCH  30  31
ENDBRANCH  28  30
ENDBRANCH   1  28
TORSDOF 7
ENDMDL
MODEL 3
REMARK VINA RESULT:      -8.3      2.554      4.088
REMARK  7 active torsions:
REMARK  status: ('A' for Active; 'I' for Inactive)
REMARK    1  A    between atoms: C_2  and  O_3 
REMARK    2  A    between atoms: O_3  and  C_4 
REMARK    3  A    between atoms: C_4  and  C_5 
REMARK    4  A    between atoms: C_6  and  C_7 
REMARK    5  A    between atoms: C_18  and  S_19 
REMARK    6  A    between atoms: S_19  and  C_20 
REMARK    7  A    between atoms: C_20  and  C_21 
ROOT
HETATM    1  C   UNL     1      41.705 -12.082   0.260  1.00  0.00     0.070 C 
HETATM    2  C   UNL     1      41.825 -13.586   0.002  1.00  0.00     0.203 C 
HETATM    3  N   UNL     1      41.556 -14.350   1.223  1.00  0.00    -0.082 N 
HETATM    4  C   UNL     1      40.942 -13.829   2.326  1.00  0.00     0.726 A 
HETATM    5  N   UNL     1      40.587 -12.528   2.322  1.00  0.00    -0.192 N 
HETATM    6  N   UNL     1      41.958 -15.615   1.433  1.00  0.00    -0.128 NA
HETATM    7  C   UNL     1      41.499 -15.821   2.674  1.00  0.00     0.226 A 
HETATM    8  N   UNL     1      40.855 -14.751   3.251  1.00  0.00    -0.035 NA
HETATM    9  C   UNL     1      41.046 -11.624   1.359  1.00  0.00     0.037 C 
HETATM   10  C   UNL     1      40.741 -10.175   1.647  1.00  0.00     0.070 C 
HETATM   11  H   UNL     1      40.221 -12.132   3.185  1.00  0.00     0.184 HD
ENDROOT
BRANCH   7  12
HETATM   12  S   UNL     1      41.771 -17.343   3.470  1.00  0.00    -0.083 SA
BRANCH  12  13
HETATM   13  C   UNL     1      43.507 -17.641   3.039  1.00  0.00     0.123 C 
BRANCH  13  14
HETATM   14  C   UNL     1      43.815 -19.121   3.022  1.00  0.00    -0.027 A 
HETATM   15  C   UNL     1      44.489 -19.772   4.068  1.00  0.00     0.041 A 
HETATM   16 CL   UNL     1      44.996 -18.939   5.495  1.00  0.00    -0.084 Cl
HETATM   17  C   UNL     1      44.779 -21.139   3.984  1.00  0.00     0.024 A 
HETATM   18  C   UNL     1      44.410 -21.870   2.856  1.00  0.00     0.002 A 
HETATM   19  C   UNL     1      43.749 -21.238   1.808  1.00  0.00     0.001 A 
HETATM   20  C   UNL     1      43.455 -19.875   1.889  1.00  0.00     0.009 A 
ENDBRANCH  13  14
ENDBRANCH  12  13
ENDBRANCH   7  12
BRANCH   2  21
HETATM   21  C   UNL     1      40.889 -14.063  -1.113  1.00  0.00    -0.028 A 
HETATM   22  C   UNL     1      39.553 -13.628  -1.135  1.00  0.00     0.011 A 
HETATM   23  C   UNL     1      38.673 -14.073  -2.126  1.00  0.00     0.024 A 
HETATM   24  C   UNL     1      39.120 -14.956  -3.105  1.00  0.00     0.034 A 
HETATM   25 CL   UNL     1      38.035 -15.514  -4.317  1.00  0.00    -0.084 Cl
HETATM   26  C   UNL     1      40.442 -15.395  -3.105  1.00  0.00     0.024 A 
HETATM   27  C   UNL     1      41.323 -14.951  -2.116  1.00  0.00     0.011 A 
ENDBRANCH   2  21
BRANCH   1  28
HETATM   28  C   UNL     1      42.422 -11.277  -0.764  1.00  0.00     0.293 C 
HETATM   29  O   UNL     1      43.611 -11.007  -0.679  1.00  0.00    -0.259 OA
BRANCH  28  30
HETATM   30  O   UNL     1      41.587 -10.794  -1.713  1.00  0.00    -0.318 OA
BRANCH  30  31
HETATM   31  C   UNL     1      42.177 -10.539  -2.998  1.00  0.00     0.174 C 
HETATM   32  C   UNL     1      42.163 -11.792  -3.856  1.00  0.00     0.034 C 
ENDBRANCH  30  31
ENDBRANCH  28  30
ENDBRANCH   1  28
TORSDOF 7
ENDMDL
MODEL 4
REMARK VINA RESULT:      -8.3      3.037      4.677
REMARK  7 active torsions:
REMARK  status: ('A' for Active; 'I' for Inactive)
REMARK    1  A    between atoms: C_2  and  O_3 
REMARK    2  A    between atoms: O_3  and  C_4 
REMARK    3  A    between atoms: C_4  and  C_5 
REMARK    4  A    between atoms: C_6  and  C_7 
REMARK    5  A    between atoms: C_18  and  S_19 
REMARK    6  A    between atoms: S_19  and  C_20 
REMARK    7  A    between atoms: C_20  and  C_21 
ROOT
HETATM    1  C   UNL     1      41.018 -15.153   1.879  1.00  0.00     0.070 C 
HETATM    2  C   UNL     1      41.471 -16.168   2.932  1.00  0.00     0.203 C 
HETATM    3  N   UNL     1      42.283 -17.226   2.324  1.00  0.00    -0.082 N 
HETATM    4  C   UNL     1      42.850 -17.132   1.085  1.00  0.00     0.726 A 
HETATM    5  N   UNL     1      42.632 -16.022   0.350  1.00  0.00    -0.192 N 
HETATM    6  N   UNL     1      42.488 -18.436   2.870  1.00  0.00    -0.128 NA
HETATM    7  C   UNL     1      43.243 -19.012   1.927  1.00  0.00     0.226 A 
HETATM    8  N   UNL     1      43.501 -18.236   0.820  1.00  0.00    -0.035 NA
HETATM    9  C   UNL     1      41.650 -15.082   0.676  1.00  0.00     0.037 C 
HETATM   10  C   UNL     1      41.390 -14.038  -0.380  1.00  0.00     0.070 C 
HETATM   11  H   UNL     1      42.979 -16.010  -0.606  1.00  0.00     0.184 HD
ENDROOT
BRANCH   7  12
HETATM   12  S   UNL     1      43.794 -20.650   2.121  1.00  0.00    -0.083 SA
BRANCH  12  13
HETATM   13  C   UNL     1      45.220 -20.396   3.211  1.00  0.00     0.123 C 
BRANCH  13  14
HETATM   14  C   UNL     1      44.782 -20.236   4.649  1.00  0.00    -0.027 A 
HETATM   15  C   UNL     1      44.378 -21.318   5.448  1.00  0.00     0.041 A 
HETATM   16 CL   UNL     1      44.381 -22.945   4.865  1.00  0.00    -0.084 Cl
HETATM   17  C   UNL     1      43.947 -21.109   6.764  1.00  0.00     0.024 A 
HETATM   18  C   UNL     1      43.906 -19.820   7.295  1.00  0.00     0.002 A 
HETATM   19  C   UNL     1      44.296 -18.737   6.514  1.00  0.00     0.001 A 
HETATM   20  C   UNL     1      44.729 -18.942   5.202  1.00  0.00     0.009 A 
ENDBRANCH  13  14
ENDBRANCH  12  13
ENDBRANCH   7  12
BRANCH   2  21
HETATM   21  C   UNL     1      42.258 -15.514   4.072  1.00  0.00    -0.028 A 
HETATM   22  C   UNL     1      42.041 -15.929   5.396  1.00  0.00     0.011 A 
HETATM   23  C   UNL     1      42.725 -15.327   6.456  1.00  0.00     0.024 A 
HETATM   24  C   UNL     1      43.633 -14.302   6.201  1.00  0.00     0.034 A 
HETATM   25 CL   UNL     1      44.466 -13.551   7.505  1.00  0.00    -0.084 Cl
HETATM   26  C   UNL     1      43.868 -13.878   4.895  1.00  0.00     0.024 A 
HETATM   27  C   UNL     1      43.185 -14.481   3.836  1.00  0.00     0.011 A 
ENDBRANCH   2  21
BRANCH   1  28
HETATM   28  C   UNL     1      39.834 -14.371   2.325  1.00  0.00     0.293 C 
HETATM   29  O   UNL     1      39.877 -13.579   3.255  1.00  0.00    -0.259 OA
BRANCH  28  30
HETATM   30  O   UNL     1      38.707 -14.727   1.666  1.00  0.00    -0.318 OA
BRANCH  30  31
HETATM   31  C   UNL     1      37.968 -13.654   1.061  1.00  0.00     0.174 C 
HETATM   32  C   UNL     1      37.781 -13.899  -0.426  1.00  0.00     0.034 C 
ENDBRANCH  30  31
ENDBRANCH  28  30
ENDBRANCH   1  28
TORSDOF 7
ENDMDL
MODEL 5
REMARK VINA RESULT:      -8.2      6.490      9.010
REMARK  7 active torsions:
REMARK  status: ('A' for Active; 'I' for Inactive)
REMARK    1  A    between atoms: C_2  and  O_3 
REMARK    2  A    between atoms: O_3  and  C_4 
REMARK    3  A    between atoms: C_4  and  C_5 
REMARK    4  A    between atoms: C_6  and  C_7 
REMARK    5  A    between atoms: C_18  and  S_19 
REMARK    6  A    between atoms: S_19  and  C_20 
REMARK    7  A    between atoms: C_20  and  C_21 
ROOT
HETATM    1  C   UNL     1      41.277 -13.409   3.613  1.00  0.00     0.070 C 
HETATM    2  C   UNL     1      41.936 -13.074   4.953  1.00  0.00     0.203 C 
HETATM    3  N   UNL     1      41.052 -12.245   5.777  1.00  0.00    -0.082 N 
HETATM    4  C   UNL     1      39.715 -12.095   5.545  1.00  0.00     0.726 A 
HETATM    5  N   UNL     1      39.165 -12.710   4.478  1.00  0.00    -0.192 N 
HETATM    6  N   UNL     1      41.466 -11.471   6.795  1.00  0.00    -0.128 NA
HETATM    7  C   UNL     1      40.308 -10.918   7.177  1.00  0.00     0.226 A 
HETATM    8  N   UNL     1      39.206 -11.289   6.442  1.00  0.00    -0.035 NA
HETATM    9  C   UNL     1      39.932 -13.275   3.455  1.00  0.00     0.037 C 
HETATM   10  C   UNL     1      39.154 -13.705   2.237  1.00  0.00     0.070 C 
HETATM   11  H   UNL     1      38.191 -12.509   4.263  1.00  0.00     0.184 HD
ENDROOT
BRANCH   7  12
HETATM   12  S   UNL     1      40.269  -9.779   8.490  1.00  0.00    -0.083 SA
BRANCH  12  13
HETATM   13  C   UNL     1      40.245 -10.905   9.910  1.00  0.00     0.123 C 
BRANCH  13  14
HETATM   14  C   UNL     1      41.521 -10.794  10.712  1.00  0.00    -0.027 A 
HETATM   15  C   UNL     1      41.609 -11.171  12.063  1.00  0.00     0.041 A 
HETATM   16 CL   UNL     1      40.264 -11.833  12.922  1.00  0.00    -0.084 Cl
HETATM   17  C   UNL     1      42.807 -11.014  12.768  1.00  0.00     0.024 A 
HETATM   18  C   UNL     1      43.929 -10.474  12.140  1.00  0.00     0.002 A 
HETATM   19  C   UNL     1      43.857 -10.089  10.805  1.00  0.00     0.001 A 
HETATM   20  C   UNL     1      42.663 -10.246  10.097  1.00  0.00     0.009 A 
ENDBRANCH  13  14
ENDBRANCH  12  13
ENDBRANCH   7  12
BRANCH   2  21
HETATM   21  C   UNL     1      42.335 -14.328   5.736  1.00  0.00    -0.028 A 
HETATM   22  C   UNL     1      43.636 -14.442   6.254  1.00  0.00     0.011 A 
HETATM   23  C   UNL     1      44.032 -15.589   6.946  1.00  0.00     0.024 A 
HETATM   24  C   UNL     1      43.131 -16.636   7.127  1.00  0.00     0.034 A 
HETATM   25 CL   UNL     1      43.622 -18.053   7.968  1.00  0.00    -0.084 Cl
HETATM   26  C   UNL     1      41.835 -16.542   6.627  1.00  0.00     0.024 A 
HETATM   27  C   UNL     1      41.438 -15.394   5.936  1.00  0.00     0.011 A 
ENDBRANCH   2  21
BRANCH   1  28
HETATM   28  C   UNL     1      42.272 -13.806   2.581  1.00  0.00     0.293 C 
HETATM   29  O   UNL     1      42.896 -12.992   1.916  1.00  0.00    -0.259 OA
BRANCH  28  30
HETATM   30  O   UNL     1      42.311 -15.146   2.395  1.00  0.00    -0.318 OA
BRANCH  30  31
HETATM   31  C   UNL     1      43.580 -15.777   2.630  1.00  0.00     0.174 C 
HETATM   32  C   UNL     1      43.393 -17.141   3.270  1.00  0.00     0.034 C 
ENDBRANCH  30  31
ENDBRANCH  28  30
ENDBRANCH   1  28
TORSDOF 7
ENDMDL
MODEL 6
REMARK VINA RESULT:      -8.1      0.765      1.665
REMARK  7 active torsions:
REMARK  status: ('A' for Active; 'I' for Inactive)
REMARK    1  A    between atoms: C_2  and  O_3 
REMARK    2  A    between atoms: O_3  and  C_4 
REMARK    3  A    between atoms: C_4  and  C_5 
REMARK    4  A    between atoms: C_6  and  C_7 
REMARK    5  A    between atoms: C_18  and  S_19 
REMARK    6  A    between atoms: S_19  and  C_20 
REMARK    7  A    between atoms: C_20  and  C_21 
ROOT
HETATM    1  C   UNL     1      39.655 -14.090  -1.385  1.00  0.00     0.070 C 
HETATM    2  C   UNL     1      39.359 -14.217   0.112  1.00  0.00     0.203 C 
HETATM    3  N   UNL     1      40.379 -15.030   0.779  1.00  0.00    -0.082 N 
HETATM    4  C   UNL     1      41.594 -15.326   0.231  1.00  0.00     0.726 A 
HETATM    5  N   UNL     1      41.875 -14.882  -1.011  1.00  0.00    -0.192 N 
HETATM    6  N   UNL     1      40.207 -15.648   1.960  1.00  0.00    -0.128 NA
HETATM    7  C   UNL     1      41.389 -16.261   2.098  1.00  0.00     0.226 A 
HETATM    8  N   UNL     1      42.275 -16.074   1.062  1.00  0.00    -0.035 NA
HETATM    9  C   UNL     1      40.898 -14.362  -1.865  1.00  0.00     0.037 C 
HETATM   10  C   UNL     1      41.347 -14.140  -3.288  1.00  0.00     0.070 C 
HETATM   11  H   UNL     1      42.743 -15.194  -1.442  1.00  0.00     0.184 HD
ENDROOT
BRANCH   7  12
HETATM   12  S   UNL     1      41.709 -17.251   3.491  1.00  0.00    -0.083 SA
BRANCH  12  13
HETATM   13  C   UNL     1      43.490 -17.529   3.302  1.00  0.00     0.123 C 
BRANCH  13  14
HETATM   14  C   UNL     1      43.797 -19.003   3.166  1.00  0.00    -0.027 A 
HETATM   15  C   UNL     1      44.477 -19.735   4.154  1.00  0.00     0.041 A 
HETATM   16 CL   UNL     1      44.993 -19.017   5.638  1.00  0.00    -0.084 Cl
HETATM   17  C   UNL     1      44.767 -21.090   3.961  1.00  0.00     0.024 A 
HETATM   18  C   UNL     1      44.391 -21.730   2.780  1.00  0.00     0.002 A 
HETATM   19  C   UNL     1      43.723 -21.018   1.789  1.00  0.00     0.001 A 
HETATM   20  C   UNL     1      43.430 -19.666   1.979  1.00  0.00     0.009 A 
ENDBRANCH  13  14
ENDBRANCH  12  13
ENDBRANCH   7  12
BRANCH   2  21
HETATM   21  C   UNL     1      39.260 -12.854   0.804  1.00  0.00    -0.028 A 
HETATM   22  C   UNL     1      40.248 -11.882   0.574  1.00  0.00     0.011 A 
HETATM   23  C   UNL     1      40.195 -10.642   1.217  1.00  0.00     0.024 A 
HETATM   24  C   UNL     1      39.153 -10.362   2.097  1.00  0.00     0.034 A 
HETATM   25 CL   UNL     1      39.094  -8.842   2.899  1.00  0.00    -0.084 Cl
HETATM   26  C   UNL     1      38.160 -11.309   2.336  1.00  0.00     0.024 A 
HETATM   27  C   UNL     1      38.212 -12.548   1.693  1.00  0.00     0.011 A 
ENDBRANCH   2  21
BRANCH   1  28
HETATM   28  C   UNL     1      38.447 -13.716  -2.167  1.00  0.00     0.293 C 
HETATM   29  O   UNL     1      37.652 -14.543  -2.591  1.00  0.00    -0.259 OA
BRANCH  28  30
HETATM   30  O   UNL     1      38.403 -12.392  -2.443  1.00  0.00    -0.318 OA
BRANCH  30  31
HETATM   31  C   UNL     1      37.099 -11.790  -2.434  1.00  0.00     0.174 C 
HETATM   32  C   UNL     1      36.981 -10.779  -1.307  1.00  0.00     0.034 C 
ENDBRANCH  30  31
ENDBRANCH  28  30
ENDBRANCH   1  28
TORSDOF 7
ENDMDL
MODEL 7
REMARK VINA RESULT:      -8.0      2.183      2.866
REMARK  7 active torsions:
REMARK  status: ('A' for Active; 'I' for Inactive)
REMARK    1  A    between atoms: C_2  and  O_3 
REMARK    2  A    between atoms: O_3  and  C_4 
REMARK    3  A    between atoms: C_4  and  C_5 
REMARK    4  A    between atoms: C_6  and  C_7 
REMARK    5  A    between atoms: C_18  and  S_19 
REMARK    6  A    between atoms: S_19  and  C_20 
REMARK    7  A    between atoms: C_20  and  C_21 
ROOT
HETATM    1  C   UNL     1      40.037 -13.863  -1.381  1.00  0.00     0.070 C 
HETATM    2  C   UNL     1      40.696 -13.338  -0.103  1.00  0.00     0.203 C 
HETATM    3  N   UNL     1      41.472 -14.391   0.557  1.00  0.00    -0.082 N 
HETATM    4  C   UNL     1      41.848 -15.554  -0.053  1.00  0.00     0.726 A 
HETATM    5  N   UNL     1      41.462 -15.777  -1.326  1.00  0.00    -0.192 N 
HETATM    6  N   UNL     1      41.825 -14.377   1.853  1.00  0.00    -0.128 NA
HETATM    7  C   UNL     1      42.469 -15.547   1.950  1.00  0.00     0.226 A 
HETATM    8  N   UNL     1      42.518 -16.292   0.795  1.00  0.00    -0.035 NA
HETATM    9  C   UNL     1      40.483 -15.009  -1.963  1.00  0.00     0.037 C 
HETATM   10  C   UNL     1      40.012 -15.548  -3.290  1.00  0.00     0.070 C 
HETATM   11  H   UNL     1      41.665 -16.688  -1.731  1.00  0.00     0.184 HD
ENDROOT
BRANCH   7  12
HETATM   12  S   UNL     1      43.138 -16.058   3.472  1.00  0.00    -0.083 SA
BRANCH  12  13
HETATM   13  C   UNL     1      42.219 -17.598   3.741  1.00  0.00     0.123 C 
BRANCH  13  14
HETATM   14  C   UNL     1      43.079 -18.803   3.434  1.00  0.00    -0.027 A 
HETATM   15  C   UNL     1      44.074 -19.272   4.307  1.00  0.00     0.041 A 
HETATM   16 CL   UNL     1      44.380 -18.530   5.837  1.00  0.00    -0.084 Cl
HETATM   17  C   UNL     1      44.865 -20.373   3.957  1.00  0.00     0.024 A 
HETATM   18  C   UNL     1      44.681 -21.012   2.732  1.00  0.00     0.002 A 
HETATM   19  C   UNL     1      43.704 -20.555   1.853  1.00  0.00     0.001 A 
HETATM   20  C   UNL     1      42.911 -19.459   2.199  1.00  0.00     0.009 A 
ENDBRANCH  13  14
ENDBRANCH  12  13
ENDBRANCH   7  12
BRANCH   2  21
HETATM   21  C   UNL     1      41.599 -12.129  -0.367  1.00  0.00    -0.028 A 
HETATM   22  C   UNL     1      41.455 -10.968   0.411  1.00  0.00     0.011 A 
HETATM   23  C   UNL     1      42.248  -9.842   0.168  1.00  0.00     0.024 A 
HETATM   24  C   UNL     1      43.191  -9.866  -0.855  1.00  0.00     0.034 A 
HETATM   25 CL   UNL     1      44.157  -8.477  -1.162  1.00  0.00    -0.084 Cl
HETATM   26  C   UNL     1      43.354 -11.008  -1.635  1.00  0.00     0.024 A 
HETATM   27  C   UNL     1      42.563 -12.134  -1.393  1.00  0.00     0.011 A 
ENDBRANCH   2  21
BRANCH   1  28
HETATM   28  C   UNL     1      38.885 -13.023  -1.806  1.00  0.00     0.293 C 
HETATM   29  O   UNL     1      37.768 -13.141  -1.324  1.00  0.00    -0.259 OA
BRANCH  28  30
HETATM   30  O   UNL     1      39.196 -12.216  -2.846  1.00  0.00    -0.318 OA
BRANCH  30  31
HETATM   31  C   UNL     1      38.674 -10.880  -2.783  1.00  0.00     0.174 C 
HETATM   32  C   UNL     1      39.801  -9.862  -2.757  1.00  0.00     0.034 C 
ENDBRANCH  30  31
ENDBRANCH  28  30
ENDBRANCH   1  28
TORSDOF 7
ENDMDL
MODEL 8
REMARK VINA RESULT:      -7.9      4.062      8.664
REMARK  7 active torsions:
REMARK  status: ('A' for Active; 'I' for Inactive)
REMARK    1  A    between atoms: C_2  and  O_3 
REMARK    2  A    between atoms: O_3  and  C_4 
REMARK    3  A    between atoms: C_4  and  C_5 
REMARK    4  A    between atoms: C_6  and  C_7 
REMARK    5  A    between atoms: C_18  and  S_19 
REMARK    6  A    between atoms: S_19  and  C_20 
REMARK    7  A    between atoms: C_20  and  C_21 
ROOT
HETATM    1  C   UNL     1      42.626 -15.834   5.700  1.00  0.00     0.070 C 
HETATM    2  C   UNL     1      42.016 -16.091   4.320  1.00  0.00     0.203 C 
HETATM    3  N   UNL     1      42.256 -14.959   3.422  1.00  0.00    -0.082 N 
HETATM    4  C   UNL     1      43.185 -13.985   3.657  1.00  0.00     0.726 A 
HETATM    5  N   UNL     1      43.907 -14.034   4.795  1.00  0.00    -0.192 N 
HETATM    6  N   UNL     1      41.537 -14.699   2.317  1.00  0.00    -0.128 NA
HETATM    7  C   UNL     1      42.126 -13.573   1.894  1.00  0.00     0.226 A 
HETATM    8  N   UNL     1      43.154 -13.111   2.683  1.00  0.00    -0.035 NA
HETATM    9  C   UNL     1      43.577 -14.874   5.863  1.00  0.00     0.037 C 
HETATM   10  C   UNL     1      44.349 -14.624   7.134  1.00  0.00     0.070 C 
HETATM   11  H   UNL     1      44.522 -13.251   5.001  1.00  0.00     0.184 HD
ENDROOT
BRANCH   7  12
HETATM   12  S   UNL     1      41.556 -12.768   0.462  1.00  0.00    -0.083 SA
BRANCH  12  13
HETATM   13  C   UNL     1      39.976 -13.619   0.206  1.00  0.00     0.123 C 
BRANCH  13  14
HETATM   14  C   UNL     1      39.879 -14.172  -1.197  1.00  0.00    -0.027 A 
HETATM   15  C   UNL     1      40.560 -15.330  -1.609  1.00  0.00     0.041 A 
HETATM   16 CL   UNL     1      41.546 -16.251  -0.529  1.00  0.00    -0.084 Cl
HETATM   17  C   UNL     1      40.462 -15.780  -2.931  1.00  0.00     0.024 A 
HETATM   18  C   UNL     1      39.694 -15.079  -3.859  1.00  0.00     0.002 A 
HETATM   19  C   UNL     1      39.020 -13.926  -3.469  1.00  0.00     0.001 A 
HETATM   20  C   UNL     1      39.112 -13.476  -2.151  1.00  0.00     0.009 A 
ENDBRANCH  13  14
ENDBRANCH  12  13
ENDBRANCH   7  12
BRANCH   2  21
HETATM   21  C   UNL     1      42.551 -17.374   3.677  1.00  0.00    -0.028 A 
HETATM   22  C   UNL     1      43.724 -17.967   4.175  1.00  0.00     0.011 A 
HETATM   23  C   UNL     1      44.247 -19.121   3.585  1.00  0.00     0.024 A 
HETATM   24  C   UNL     1      43.603 -19.695   2.492  1.00  0.00     0.034 A 
HETATM   25 CL   UNL     1      44.253 -21.108   1.759  1.00  0.00    -0.084 Cl
HETATM   26  C   UNL     1      42.436 -19.127   1.986  1.00  0.00     0.024 A 
HETATM   27  C   UNL     1      41.912 -17.974   2.575  1.00  0.00     0.011 A 
ENDBRANCH   2  21
BRANCH   1  28
HETATM   28  C   UNL     1      42.014 -16.685   6.754  1.00  0.00     0.293 C 
HETATM   29  O   UNL     1      40.819 -16.947   6.781  1.00  0.00    -0.259 OA
BRANCH  28  30
HETATM   30  O   UNL     1      42.900 -17.026   7.718  1.00  0.00    -0.318 OA
BRANCH  30  31
HETATM   31  C   UNL     1      43.432 -18.358   7.640  1.00  0.00     0.174 C 
HETATM   32  C   UNL     1      44.930 -18.326   7.391  1.00  0.00     0.034 C 
ENDBRANCH  30  31
ENDBRANCH  28  30
ENDBRANCH   1  28
TORSDOF 7
ENDMDL
MODEL 9
REMARK VINA RESULT:      -7.7      2.536      4.179
REMARK  7 active torsions:
REMARK  status: ('A' for Active; 'I' for Inactive)
REMARK    1  A    between atoms: C_2  and  O_3 
REMARK    2  A    between atoms: O_3  and  C_4 
REMARK    3  A    between atoms: C_4  and  C_5 
REMARK    4  A    between atoms: C_6  and  C_7 
REMARK    5  A    between atoms: C_18  and  S_19 
REMARK    6  A    between atoms: S_19  and  C_20 
REMARK    7  A    between atoms: C_20  and  C_21 
ROOT
HETATM    1  C   UNL     1      39.461 -12.840   0.904  1.00  0.00     0.070 C 
HETATM    2  C   UNL     1      40.975 -12.956   0.711  1.00  0.00     0.203 C 
HETATM    3  N   UNL     1      41.426 -14.334   0.925  1.00  0.00    -0.082 N 
HETATM    4  C   UNL     1      40.590 -15.414   0.938  1.00  0.00     0.726 A 
HETATM    5  N   UNL     1      39.266 -15.216   0.780  1.00  0.00    -0.192 N 
HETATM    6  N   UNL     1      42.689 -14.684   1.221  1.00  0.00    -0.128 NA
HETATM    7  C   UNL     1      42.560 -16.010   1.344  1.00  0.00     0.226 A 
HETATM    8  N   UNL     1      41.287 -16.499   1.162  1.00  0.00    -0.035 NA
HETATM    9  C   UNL     1      38.676 -13.952   0.867  1.00  0.00     0.037 C 
HETATM   10  C   UNL     1      37.169 -13.951   0.902  1.00  0.00     0.070 C 
HETATM   11  H   UNL     1      38.649 -16.018   0.890  1.00  0.00     0.184 HD
ENDROOT
BRANCH   7  12
HETATM   12  S   UNL     1      43.934 -16.993   1.755  1.00  0.00    -0.083 SA
BRANCH  12  13
HETATM   13  C   UNL     1      43.267 -17.935   3.153  1.00  0.00     0.123 C 
BRANCH  13  14
HETATM   14  C   UNL     1      43.684 -19.385   3.079  1.00  0.00    -0.027 A 
HETATM   15  C   UNL     1      44.456 -20.009   4.073  1.00  0.00     0.041 A 
HETATM   16 CL   UNL     1      44.969 -19.176   5.497  1.00  0.00    -0.084 Cl
HETATM   17  C   UNL     1      44.844 -21.347   3.937  1.00  0.00     0.024 A 
HETATM   18  C   UNL     1      44.476 -22.076   2.806  1.00  0.00     0.002 A 
HETATM   19  C   UNL     1      43.718 -21.471   1.809  1.00  0.00     0.001 A 
HETATM   20  C   UNL     1      43.327 -20.137   1.943  1.00  0.00     0.009 A 
ENDBRANCH  13  14
ENDBRANCH  12  13
ENDBRANCH   7  12
BRANCH   2  21
HETATM   21  C   UNL     1      41.424 -12.483  -0.675  1.00  0.00    -0.028 A 
HETATM   22  C   UNL     1      40.767 -12.960  -1.821  1.00  0.00     0.011 A 
HETATM   23  C   UNL     1      41.178 -12.566  -3.097  1.00  0.00     0.024 A 
HETATM   24  C   UNL     1      42.251 -11.690  -3.240  1.00  0.00     0.034 A 
HETATM   25 CL   UNL     1      42.765 -11.214  -4.811  1.00  0.00    -0.084 Cl
HETATM   26  C   UNL     1      42.913 -11.200  -2.117  1.00  0.00     0.024 A 
HETATM   27  C   UNL     1      42.502 -11.593  -0.841  1.00  0.00     0.011 A 
ENDBRANCH   2  21
BRANCH   1  28
HETATM   28  C   UNL     1      39.035 -11.443   1.180  1.00  0.00     0.293 C 
HETATM   29  O   UNL     1      38.519 -10.728   0.331  1.00  0.00    -0.259 OA
BRANCH  28  30
HETATM   30  O   UNL     1      39.387 -11.035   2.421  1.00  0.00    -0.318 OA
BRANCH  30  31
HETATM   31  C   UNL     1      38.516 -11.441   3.488  1.00  0.00     0.174 C 
HETATM   32  C   UNL     1      39.308 -12.064   4.623  1.00  0.00     0.034 C 
ENDBRANCH  30  31
ENDBRANCH  28  30
ENDBRANCH   1  28
TORSDOF 7
ENDMDL
MODEL 10
REMARK VINA RESULT:      -7.7      4.288      9.212
REMARK  7 active torsions:
REMARK  status: ('A' for Active; 'I' for Inactive)
REMARK    1  A    between atoms: C_2  and  O_3 
REMARK    2  A    between atoms: O_3  and  C_4 
REMARK    3  A    between atoms: C_4  and  C_5 
REMARK    4  A    between atoms: C_6  and  C_7 
REMARK    5  A    between atoms: C_18  and  S_19 
REMARK    6  A    between atoms: S_19  and  C_20 
REMARK    7  A    between atoms: C_20  and  C_21 
ROOT
HETATM    1  C   UNL     1      42.607 -15.716   5.469  1.00  0.00     0.070 C 
HETATM    2  C   UNL     1      41.952 -16.059   4.128  1.00  0.00     0.203 C 
HETATM    3  N   UNL     1      42.087 -14.950   3.181  1.00  0.00    -0.082 N 
HETATM    4  C   UNL     1      42.968 -13.918   3.338  1.00  0.00     0.726 A 
HETATM    5  N   UNL     1      43.742 -13.884   4.442  1.00  0.00    -0.192 N 
HETATM    6  N   UNL     1      41.306 -14.771   2.102  1.00  0.00    -0.128 NA
HETATM    7  C   UNL     1      41.810 -13.632   1.613  1.00  0.00     0.226 A 
HETATM    8  N   UNL     1      42.844 -13.084   2.337  1.00  0.00    -0.035 NA
HETATM    9  C   UNL     1      43.508 -14.699   5.553  1.00  0.00     0.037 C 
HETATM   10  C   UNL     1      44.319 -14.359   6.777  1.00  0.00     0.070 C 
HETATM   11  H   UNL     1      44.319 -13.060   4.592  1.00  0.00     0.184 HD
ENDROOT
BRANCH   7  12
HETATM   12  S   UNL     1      41.132 -12.914   0.181  1.00  0.00    -0.083 SA
BRANCH  12  13
HETATM   13  C   UNL     1      42.550 -13.011  -0.945  1.00  0.00     0.123 C 
BRANCH  13  14
HETATM   14  C   UNL     1      42.413 -12.018  -2.076  1.00  0.00    -0.027 A 
HETATM   15  C   UNL     1      41.845 -12.349  -3.317  1.00  0.00     0.041 A 
HETATM   16 CL   UNL     1      41.215 -13.924  -3.650  1.00  0.00    -0.084 Cl
HETATM   17  C   UNL     1      41.774 -11.399  -4.343  1.00  0.00     0.024 A 
HETATM   18  C   UNL     1      42.275 -10.113  -4.148  1.00  0.00     0.002 A 
HETATM   19  C   UNL     1      42.847  -9.771  -2.927  1.00  0.00     0.001 A 
HETATM   20  C   UNL     1      42.917 -10.715  -1.901  1.00  0.00     0.009 A 
ENDBRANCH  13  14
ENDBRANCH  12  13
ENDBRANCH   7  12
BRANCH   2  21
HETATM   21  C   UNL     1      42.530 -17.334   3.507  1.00  0.00    -0.028 A 
HETATM   22  C   UNL     1      41.890 -17.923   2.403  1.00  0.00     0.011 A 
HETATM   23  C   UNL     1      42.382 -19.102   1.838  1.00  0.00     0.024 A 
HETATM   24  C   UNL     1      43.519 -19.705   2.370  1.00  0.00     0.034 A 
HETATM   25 CL   UNL     1      44.117 -21.164   1.683  1.00  0.00    -0.084 Cl
HETATM   26  C   UNL     1      44.171 -19.136   3.461  1.00  0.00     0.024 A 
HETATM   27  C   UNL     1      43.681 -17.956   4.026  1.00  0.00     0.011 A 
ENDBRANCH   2  21
BRANCH   1  28
HETATM   28  C   UNL     1      42.091 -16.560   6.579  1.00  0.00     0.293 C 
HETATM   29  O   UNL     1      40.932 -16.946   6.633  1.00  0.00    -0.259 OA
BRANCH  28  30
HETATM   30  O   UNL     1      43.011 -16.741   7.555  1.00  0.00    -0.318 OA
BRANCH  30  31
HETATM   31  C   UNL     1      43.501 -18.082   7.715  1.00  0.00     0.174 C 
HETATM   32  C   UNL     1      44.929 -18.197   7.210  1.00  0.00     0.034 C 
ENDBRANCH  30  31
ENDBRANCH  28  30
ENDBRANCH   1  28
TORSDOF 7
ENDMDL
