MODEL 1
REMARK VINA RESULT:      -7.1      0.000      0.000
REMARK  4 active torsions:
REMARK  status: ('A' for Active; 'I' for Inactive)
REMARK    1  A    between atoms: C_7  and  N_8 
REMARK    2  A    between atoms: N_8  and  C_9 
REMARK    3  A    between atoms: C_9  and  C_10 
REMARK    4  A    between atoms: C_11  and  O_12 
ROOT
HETATM    1  N   UNL     1      41.301 -16.670   3.142  1.00  0.00    -0.222 N 
HETATM    2  H   UNL     1      41.050 -17.187   3.971  1.00  0.00     0.178 HD
ENDROOT
BRANCH   1   3
HETATM    3  C   UNL     1      40.465 -15.707   2.732  1.00  0.00     0.679 A 
HETATM    4  N   UNL     1      39.453 -15.904   1.904  1.00  0.00    -0.190 N 
HETATM    5  C   UNL     1      38.788 -14.717   1.674  1.00  0.00     0.076 A 
HETATM    6  H   UNL     1      39.189 -16.790   1.495  1.00  0.00     0.184 HD
HETATM    7  C   UNL     1      39.474 -13.751   2.412  1.00  0.00     0.076 A 
HETATM    8  C   UNL     1      37.677 -14.419   0.897  1.00  0.00     0.032 A 
HETATM    9  C   UNL     1      39.102 -12.412   2.421  1.00  0.00     0.032 A 
HETATM   10  N   UNL     1      40.498 -14.423   3.044  1.00  0.00    -0.190 N 
HETATM   11  C   UNL     1      37.980 -12.092   1.640  1.00  0.00     0.002 A 
HETATM   12  C   UNL     1      37.282 -13.071   0.897  1.00  0.00     0.002 A 
HETATM   13  H   UNL     1      41.195 -13.989   3.636  1.00  0.00     0.184 HD
ENDBRANCH   1   3
BRANCH   1  14
HETATM   14  C   UNL     1      42.635 -16.840   2.573  1.00  0.00     0.179 C 
BRANCH  14  15
HETATM   15  C   UNL     1      43.344 -18.058   3.104  1.00  0.00    -0.006 A 
HETATM   16  C   UNL     1      43.815 -18.046   4.425  1.00  0.00     0.073 A 
HETATM   17  C   UNL     1      44.446 -19.153   4.990  1.00  0.00     0.038 A 
HETATM   18  C   UNL     1      44.618 -20.308   4.229  1.00  0.00     0.022 A 
HETATM   19  C   UNL     1      44.148 -20.345   2.919  1.00  0.00     0.011 A 
HETATM   20 BR   UNL     1      44.376 -21.909   1.884  1.00  0.00    -0.051 Br
HETATM   21  C   UNL     1      43.507 -19.236   2.358  1.00  0.00     0.030 A 
BRANCH  16  22
HETATM   22  O   UNL     1      43.634 -16.909   5.162  1.00  0.00    -0.360 OA
HETATM   23  H   UNL     1      44.203 -16.203   4.803  1.00  0.00     0.217 HD
ENDBRANCH  16  22
ENDBRANCH  14  15
ENDBRANCH   1  14
TORSDOF 4
ENDMDL
MODEL 2
REMARK VINA RESULT:      -7.0      2.480      3.072
REMARK  4 active torsions:
REMARK  status: ('A' for Active; 'I' for Inactive)
REMARK    1  A    between atoms: C_7  and  N_8 
REMARK    2  A    between atoms: N_8  and  C_9 
REMARK    3  A    between atoms: C_9  and  C_10 
REMARK    4  A    between atoms: C_11  and  O_12 
ROOT
HETATM    1  N   UNL     1      43.438 -17.475   1.260  1.00  0.00    -0.222 N 
HETATM    2  H   UNL     1      44.350 -17.057   1.149  1.00  0.00     0.178 HD
ENDROOT
BRANCH   1   3
HETATM    3  C   UNL     1      42.368 -16.687   1.088  1.00  0.00     0.679 A 
HETATM    4  N   UNL     1      41.350 -16.624   1.929  1.00  0.00    -0.190 N 
HETATM    5  C   UNL     1      40.408 -15.727   1.469  1.00  0.00     0.076 A 
HETATM    6  H   UNL     1      41.261 -17.146   2.790  1.00  0.00     0.184 HD
HETATM    7  C   UNL     1      40.908 -15.240   0.260  1.00  0.00     0.076 A 
HETATM    8  C   UNL     1      39.190 -15.317   1.996  1.00  0.00     0.032 A 
HETATM    9  C   UNL     1      40.223 -14.313  -0.515  1.00  0.00     0.032 A 
HETATM   10  N   UNL     1      42.121 -15.870   0.080  1.00  0.00    -0.190 N 
HETATM   11  C   UNL     1      38.989 -13.887   0.002  1.00  0.00     0.002 A 
HETATM   12  C   UNL     1      38.485 -14.376   1.229  1.00  0.00     0.002 A 
HETATM   13  H   UNL     1      42.721 -15.748  -0.726  1.00  0.00     0.184 HD
ENDBRANCH   1   3
BRANCH   1  14
HETATM   14  C   UNL     1      43.328 -18.926   1.378  1.00  0.00     0.179 C 
BRANCH  14  15
HETATM   15  C   UNL     1      43.865 -19.446   2.686  1.00  0.00    -0.006 A 
HETATM   16  C   UNL     1      44.239 -20.795   2.776  1.00  0.00     0.073 A 
HETATM   17  C   UNL     1      44.777 -21.331   3.944  1.00  0.00     0.038 A 
HETATM   18  C   UNL     1      44.953 -20.512   5.059  1.00  0.00     0.022 A 
HETATM   19  C   UNL     1      44.599 -19.168   4.986  1.00  0.00     0.011 A 
HETATM   20 BR   UNL     1      44.837 -18.053   6.494  1.00  0.00    -0.051 Br
HETATM   21  C   UNL     1      44.068 -18.631   3.810  1.00  0.00     0.030 A 
BRANCH  16  22
HETATM   22  O   UNL     1      44.067 -21.585   1.674  1.00  0.00    -0.360 OA
HETATM   23  H   UNL     1      43.432 -21.156   1.070  1.00  0.00     0.217 HD
ENDBRANCH  16  22
ENDBRANCH  14  15
ENDBRANCH   1  14
TORSDOF 4
ENDMDL
MODEL 3
REMARK VINA RESULT:      -7.0      2.106      2.776
REMARK  4 active torsions:
REMARK  status: ('A' for Active; 'I' for Inactive)
REMARK    1  A    between atoms: C_7  and  N_8 
REMARK    2  A    between atoms: N_8  and  C_9 
REMARK    3  A    between atoms: C_9  and  C_10 
REMARK    4  A    between atoms: C_11  and  O_12 
ROOT
HETATM    1  N   UNL     1      41.556 -17.140   5.614  1.00  0.00    -0.222 N 
HETATM    2  H   UNL     1      40.974 -17.907   5.917  1.00  0.00     0.178 HD
ENDROOT
BRANCH   1   3
HETATM    3  C   UNL     1      40.960 -15.968   5.360  1.00  0.00     0.679 A 
HETATM    4  N   UNL     1      40.730 -15.498   4.146  1.00  0.00    -0.190 N 
HETATM    5  C   UNL     1      40.107 -14.269   4.220  1.00  0.00     0.076 A 
HETATM    6  H   UNL     1      40.966 -15.962   3.279  1.00  0.00     0.184 HD
HETATM    7  C   UNL     1      39.975 -13.994   5.583  1.00  0.00     0.076 A 
HETATM    8  C   UNL     1      39.665 -13.399   3.233  1.00  0.00     0.032 A 
HETATM    9  C   UNL     1      39.399 -12.823   6.058  1.00  0.00     0.032 A 
HETATM   10  N   UNL     1      40.519 -15.080   6.235  1.00  0.00    -0.190 N 
HETATM   11  C   UNL     1      38.946 -11.930   5.074  1.00  0.00     0.002 A 
HETATM   12  C   UNL     1      39.074 -12.211   3.694  1.00  0.00     0.002 A 
HETATM   13  H   UNL     1      40.600 -15.169   7.240  1.00  0.00     0.184 HD
ENDBRANCH   1   3
BRANCH   1  14
HETATM   14  C   UNL     1      43.008 -17.278   5.681  1.00  0.00     0.179 C 
BRANCH  14  15
HETATM   15  C   UNL     1      43.533 -18.361   4.775  1.00  0.00    -0.006 A 
HETATM   16  C   UNL     1      43.640 -18.103   3.401  1.00  0.00     0.073 A 
HETATM   17  C   UNL     1      44.151 -19.047   2.513  1.00  0.00     0.038 A 
HETATM   18  C   UNL     1      44.572 -20.286   2.996  1.00  0.00     0.022 A 
HETATM   19  C   UNL     1      44.485 -20.558   4.358  1.00  0.00     0.011 A 
HETATM   20 BR   UNL     1      45.056 -22.235   5.018  1.00  0.00    -0.051 Br
HETATM   21  C   UNL     1      43.980 -19.605   5.247  1.00  0.00     0.030 A 
BRANCH  16  22
HETATM   22  O   UNL     1      43.230 -16.882   2.942  1.00  0.00    -0.360 OA
HETATM   23  H   UNL     1      42.257 -16.879   2.871  1.00  0.00     0.217 HD
ENDBRANCH  16  22
ENDBRANCH  14  15
ENDBRANCH   1  14
TORSDOF 4
ENDMDL
MODEL 4
REMARK VINA RESULT:      -7.0      3.115      3.595
REMARK  4 active torsions:
REMARK  status: ('A' for Active; 'I' for Inactive)
REMARK    1  A    between atoms: C_7  and  N_8 
REMARK    2  A    between atoms: N_8  and  C_9 
REMARK    3  A    between atoms: C_9  and  C_10 
REMARK    4  A    between atoms: C_11  and  O_12 
ROOT
HETATM    1  N   UNL     1      41.471 -15.851   1.905  1.00  0.00    -0.222 N 
HETATM    2  H   UNL     1      40.731 -16.005   2.574  1.00  0.00     0.178 HD
ENDROOT
BRANCH   1   3
HETATM    3  C   UNL     1      41.123 -15.460   0.672  1.00  0.00     0.679 A 
HETATM    4  N   UNL     1      40.263 -14.489   0.415  1.00  0.00    -0.190 N 
HETATM    5  C   UNL     1      40.115 -14.332  -0.948  1.00  0.00     0.076 A 
HETATM    6  H   UNL     1      39.779 -13.930   1.105  1.00  0.00     0.184 HD
HETATM    7  C   UNL     1      40.942 -15.294  -1.531  1.00  0.00     0.076 A 
HETATM    8  C   UNL     1      39.344 -13.453  -1.696  1.00  0.00     0.032 A 
HETATM    9  C   UNL     1      41.051 -15.453  -2.906  1.00  0.00     0.032 A 
HETATM   10  N   UNL     1      41.537 -15.958  -0.480  1.00  0.00    -0.190 N 
HETATM   11  C   UNL     1      40.277 -14.573  -3.680  1.00  0.00     0.002 A 
HETATM   12  C   UNL     1      39.444 -13.595  -3.089  1.00  0.00     0.002 A 
HETATM   13  H   UNL     1      42.175 -16.737  -0.577  1.00  0.00     0.184 HD
ENDBRANCH   1   3
BRANCH   1  14
HETATM   14  C   UNL     1      42.857 -15.845   2.364  1.00  0.00     0.179 C 
BRANCH  14  15
HETATM   15  C   UNL     1      43.337 -17.209   2.786  1.00  0.00    -0.006 A 
HETATM   16  C   UNL     1      43.769 -18.110   1.801  1.00  0.00     0.073 A 
HETATM   17  C   UNL     1      44.259 -19.373   2.126  1.00  0.00     0.038 A 
HETATM   18  C   UNL     1      44.327 -19.761   3.464  1.00  0.00     0.022 A 
HETATM   19  C   UNL     1      43.913 -18.877   4.457  1.00  0.00     0.011 A 
HETATM   20 BR   UNL     1      44.004 -19.397   6.272  1.00  0.00    -0.051 Br
HETATM   21  C   UNL     1      43.431 -17.608   4.128  1.00  0.00     0.030 A 
BRANCH  16  22
HETATM   22  O   UNL     1      43.703 -17.715   0.495  1.00  0.00    -0.360 OA
HETATM   23  H   UNL     1      42.819 -17.342   0.318  1.00  0.00     0.217 HD
ENDBRANCH  16  22
ENDBRANCH  14  15
ENDBRANCH   1  14
TORSDOF 4
ENDMDL
MODEL 5
REMARK VINA RESULT:      -7.0      4.139      7.523
REMARK  4 active torsions:
REMARK  status: ('A' for Active; 'I' for Inactive)
REMARK    1  A    between atoms: C_7  and  N_8 
REMARK    2  A    between atoms: N_8  and  C_9 
REMARK    3  A    between atoms: C_9  and  C_10 
REMARK    4  A    between atoms: C_11  and  O_12 
ROOT
HETATM    1  N   UNL     1      43.470 -16.576   5.085  1.00  0.00    -0.222 N 
HETATM    2  H   UNL     1      43.315 -16.577   6.082  1.00  0.00     0.178 HD
ENDROOT
BRANCH   1   3
HETATM    3  C   UNL     1      43.652 -17.759   4.483  1.00  0.00     0.679 A 
HETATM    4  N   UNL     1      43.129 -18.086   3.313  1.00  0.00    -0.190 N 
HETATM    5  C   UNL     1      43.497 -19.371   2.970  1.00  0.00     0.076 A 
HETATM    6  H   UNL     1      42.548 -17.490   2.740  1.00  0.00     0.184 HD
HETATM    7  C   UNL     1      44.282 -19.835   4.027  1.00  0.00     0.076 A 
HETATM    8  C   UNL     1      43.209 -20.144   1.853  1.00  0.00     0.032 A 
HETATM    9  C   UNL     1      44.831 -21.111   4.047  1.00  0.00     0.032 A 
HETATM   10  N   UNL     1      44.342 -18.795   4.929  1.00  0.00    -0.190 N 
HETATM   11  C   UNL     1      44.550 -21.908   2.926  1.00  0.00     0.002 A 
HETATM   12  C   UNL     1      43.760 -21.436   1.854  1.00  0.00     0.002 A 
HETATM   13  H   UNL     1      44.818 -18.831   5.821  1.00  0.00     0.184 HD
ENDBRANCH   1   3
BRANCH   1  14
HETATM   14  C   UNL     1      43.273 -15.341   4.333  1.00  0.00     0.179 C 
BRANCH  14  15
HETATM   15  C   UNL     1      42.132 -14.512   4.863  1.00  0.00    -0.006 A 
HETATM   16  C   UNL     1      40.821 -14.981   4.699  1.00  0.00     0.073 A 
HETATM   17  C   UNL     1      39.723 -14.283   5.198  1.00  0.00     0.038 A 
HETATM   18  C   UNL     1      39.924 -13.084   5.882  1.00  0.00     0.022 A 
HETATM   19  C   UNL     1      41.219 -12.607   6.066  1.00  0.00     0.011 A 
HETATM   20 BR   UNL     1      41.497 -10.984   6.993  1.00  0.00    -0.051 Br
HETATM   21  C   UNL     1      42.319 -13.315   5.572  1.00  0.00     0.030 A 
BRANCH  16  22
HETATM   22  O   UNL     1      40.638 -16.160   4.032  1.00  0.00    -0.360 OA
HETATM   23  H   UNL     1      39.834 -16.597   4.372  1.00  0.00     0.217 HD
ENDBRANCH  16  22
ENDBRANCH  14  15
ENDBRANCH   1  14
TORSDOF 4
ENDMDL
MODEL 6
REMARK VINA RESULT:      -7.0      3.354      7.521
REMARK  4 active torsions:
REMARK  status: ('A' for Active; 'I' for Inactive)
REMARK    1  A    between atoms: C_7  and  N_8 
REMARK    2  A    between atoms: N_8  and  C_9 
REMARK    3  A    between atoms: C_9  and  C_10 
REMARK    4  A    between atoms: C_11  and  O_12 
ROOT
HETATM    1  N   UNL     1      42.243 -15.944   3.722  1.00  0.00    -0.222 N 
HETATM    2  H   UNL     1      42.875 -15.159   3.664  1.00  0.00     0.178 HD
ENDROOT
BRANCH   1   3
HETATM    3  C   UNL     1      42.756 -17.169   3.542  1.00  0.00     0.679 A 
HETATM    4  N   UNL     1      42.477 -17.947   2.509  1.00  0.00    -0.190 N 
HETATM    5  C   UNL     1      43.157 -19.143   2.617  1.00  0.00     0.076 A 
HETATM    6  H   UNL     1      41.861 -17.712   1.743  1.00  0.00     0.184 HD
HETATM    7  C   UNL     1      43.877 -19.062   3.811  1.00  0.00     0.076 A 
HETATM    8  C   UNL     1      43.196 -20.258   1.792  1.00  0.00     0.032 A 
HETATM    9  C   UNL     1      44.682 -20.096   4.270  1.00  0.00     0.032 A 
HETATM   10  N   UNL     1      43.589 -17.820   4.335  1.00  0.00    -0.190 N 
HETATM   11  C   UNL     1      44.733 -21.233   3.449  1.00  0.00     0.002 A 
HETATM   12  C   UNL     1      44.009 -21.313   2.238  1.00  0.00     0.002 A 
HETATM   13  H   UNL     1      43.939 -17.471   5.218  1.00  0.00     0.184 HD
ENDBRANCH   1   3
BRANCH   1  14
HETATM   14  C   UNL     1      40.883 -15.731   4.209  1.00  0.00     0.179 C 
BRANCH  14  15
HETATM   15  C   UNL     1      40.074 -14.840   3.304  1.00  0.00    -0.006 A 
HETATM   16  C   UNL     1      39.453 -15.401   2.178  1.00  0.00     0.073 A 
HETATM   17  C   UNL     1      38.660 -14.640   1.321  1.00  0.00     0.038 A 
HETATM   18  C   UNL     1      38.473 -13.283   1.582  1.00  0.00     0.022 A 
HETATM   19  C   UNL     1      39.071 -12.709   2.700  1.00  0.00     0.011 A 
HETATM   20 BR   UNL     1      38.818 -10.871   3.060  1.00  0.00    -0.051 Br
HETATM   21  C   UNL     1      39.858 -13.477   3.563  1.00  0.00     0.030 A 
BRANCH  16  22
HETATM   22  O   UNL     1      39.640 -16.733   1.938  1.00  0.00    -0.360 OA
HETATM   23  H   UNL     1      40.217 -17.104   2.633  1.00  0.00     0.217 HD
ENDBRANCH  16  22
ENDBRANCH  14  15
ENDBRANCH   1  14
TORSDOF 4
ENDMDL
MODEL 7
REMARK VINA RESULT:      -7.0      4.025      7.322
REMARK  4 active torsions:
REMARK  status: ('A' for Active; 'I' for Inactive)
REMARK    1  A    between atoms: C_7  and  N_8 
REMARK    2  A    between atoms: N_8  and  C_9 
REMARK    3  A    between atoms: C_9  and  C_10 
REMARK    4  A    between atoms: C_11  and  O_12 
ROOT
HETATM    1  N   UNL     1      44.440 -17.676   6.303  1.00  0.00    -0.222 N 
HETATM    2  H   UNL     1      45.327 -17.473   6.740  1.00  0.00     0.178 HD
ENDROOT
BRANCH   1   3
HETATM    3  C   UNL     1      44.404 -18.659   5.395  1.00  0.00     0.679 A 
HETATM    4  N   UNL     1      44.003 -18.502   4.144  1.00  0.00    -0.190 N 
HETATM    5  C   UNL     1      44.078 -19.702   3.466  1.00  0.00     0.076 A 
HETATM    6  H   UNL     1      43.688 -17.636   3.730  1.00  0.00     0.184 HD
HETATM    7  C   UNL     1      44.546 -20.633   4.395  1.00  0.00     0.076 A 
HETATM    8  C   UNL     1      43.779 -20.038   2.153  1.00  0.00     0.032 A 
HETATM    9  C   UNL     1      44.742 -21.971   4.080  1.00  0.00     0.032 A 
HETATM   10  N   UNL     1      44.729 -19.929   5.566  1.00  0.00    -0.190 N 
HETATM   11  C   UNL     1      44.444 -22.330   2.756  1.00  0.00     0.002 A 
HETATM   12  C   UNL     1      43.975 -21.386   1.814  1.00  0.00     0.002 A 
HETATM   13  H   UNL     1      45.037 -20.334   6.441  1.00  0.00     0.184 HD
ENDBRANCH   1   3
BRANCH   1  14
HETATM   14  C   UNL     1      43.227 -17.056   6.830  1.00  0.00     0.179 C 
BRANCH  14  15
HETATM   15  C   UNL     1      42.840 -15.806   6.084  1.00  0.00    -0.006 A 
HETATM   16  C   UNL     1      43.650 -14.667   6.204  1.00  0.00     0.073 A 
HETATM   17  C   UNL     1      43.370 -13.490   5.512  1.00  0.00     0.038 A 
HETATM   18  C   UNL     1      42.257 -13.434   4.674  1.00  0.00     0.022 A 
HETATM   19  C   UNL     1      41.448 -14.558   4.531  1.00  0.00     0.011 A 
HETATM   20 BR   UNL     1      39.939 -14.488   3.394  1.00  0.00    -0.051 Br
HETATM   21  C   UNL     1      41.736 -15.739   5.220  1.00  0.00     0.030 A 
BRANCH  16  22
HETATM   22  O   UNL     1      44.741 -14.737   7.025  1.00  0.00    -0.360 OA
HETATM   23  H   UNL     1      44.787 -13.925   7.564  1.00  0.00     0.217 HD
ENDBRANCH  16  22
ENDBRANCH  14  15
ENDBRANCH   1  14
TORSDOF 4
ENDMDL
MODEL 8
REMARK VINA RESULT:      -7.0      3.308      7.562
REMARK  4 active torsions:
REMARK  status: ('A' for Active; 'I' for Inactive)
REMARK    1  A    between atoms: C_7  and  N_8 
REMARK    2  A    between atoms: N_8  and  C_9 
REMARK    3  A    between atoms: C_9  and  C_10 
REMARK    4  A    between atoms: C_11  and  O_12 
ROOT
HETATM    1  N   UNL     1      43.765 -17.180   1.920  1.00  0.00    -0.222 N 
HETATM    2  H   UNL     1      44.315 -16.394   2.233  1.00  0.00     0.178 HD
ENDROOT
BRANCH   1   3
HETATM    3  C   UNL     1      43.999 -18.369   2.491  1.00  0.00     0.679 A 
HETATM    4  N   UNL     1      43.972 -19.522   1.845  1.00  0.00    -0.190 N 
HETATM    5  C   UNL     1      44.248 -20.560   2.712  1.00  0.00     0.076 A 
HETATM    6  H   UNL     1      43.782 -19.643   0.859  1.00  0.00     0.184 HD
HETATM    7  C   UNL     1      44.437 -19.969   3.962  1.00  0.00     0.076 A 
HETATM    8  C   UNL     1      44.340 -21.931   2.509  1.00  0.00     0.032 A 
HETATM    9  C   UNL     1      44.725 -20.706   5.103  1.00  0.00     0.032 A 
HETATM   10  N   UNL     1      44.271 -18.615   3.761  1.00  0.00    -0.190 N 
HETATM   11  C   UNL     1      44.822 -22.094   4.917  1.00  0.00     0.002 A 
HETATM   12  C   UNL     1      44.636 -22.693   3.650  1.00  0.00     0.002 A 
HETATM   13  H   UNL     1      44.319 -17.913   4.489  1.00  0.00     0.184 HD
ENDBRANCH   1   3
BRANCH   1  14
HETATM   14  C   UNL     1      42.619 -16.946   1.045  1.00  0.00     0.179 C 
BRANCH  14  15
HETATM   15  C   UNL     1      41.572 -16.070   1.680  1.00  0.00    -0.006 A 
HETATM   16  C   UNL     1      40.600 -15.475   0.862  1.00  0.00     0.073 A 
HETATM   17  C   UNL     1      39.581 -14.683   1.389  1.00  0.00     0.038 A 
HETATM   18  C   UNL     1      39.518 -14.472   2.766  1.00  0.00     0.022 A 
HETATM   19  C   UNL     1      40.465 -15.063   3.596  1.00  0.00     0.011 A 
HETATM   20 BR   UNL     1      40.382 -14.782   5.463  1.00  0.00    -0.051 Br
HETATM   21  C   UNL     1      41.481 -15.864   3.066  1.00  0.00     0.030 A 
BRANCH  16  22
HETATM   22  O   UNL     1      40.671 -15.695  -0.485  1.00  0.00    -0.360 OA
HETATM   23  H   UNL     1      41.248 -15.019  -0.888  1.00  0.00     0.217 HD
ENDBRANCH  16  22
ENDBRANCH  14  15
ENDBRANCH   1  14
TORSDOF 4
ENDMDL
MODEL 9
REMARK VINA RESULT:      -7.0      2.781      3.046
REMARK  4 active torsions:
REMARK  status: ('A' for Active; 'I' for Inactive)
REMARK    1  A    between atoms: C_7  and  N_8 
REMARK    2  A    between atoms: N_8  and  C_9 
REMARK    3  A    between atoms: C_9  and  C_10 
REMARK    4  A    between atoms: C_11  and  O_12 
ROOT
HETATM    1  N   UNL     1      42.098 -16.368   0.373  1.00  0.00    -0.222 N 
HETATM    2  H   UNL     1      43.099 -16.366   0.242  1.00  0.00     0.178 HD
ENDROOT
BRANCH   1   3
HETATM    3  C   UNL     1      41.368 -15.556  -0.404  1.00  0.00     0.679 A 
HETATM    4  N   UNL     1      40.180 -15.081  -0.072  1.00  0.00    -0.190 N 
HETATM    5  C   UNL     1      39.688 -14.281  -1.083  1.00  0.00     0.076 A 
HETATM    6  H   UNL     1      39.692 -15.263   0.795  1.00  0.00     0.184 HD
HETATM    7  C   UNL     1      40.657 -14.303  -2.088  1.00  0.00     0.076 A 
HETATM    8  C   UNL     1      38.504 -13.565  -1.198  1.00  0.00     0.032 A 
HETATM    9  C   UNL     1      40.509 -13.616  -3.286  1.00  0.00     0.032 A 
HETATM   10  N   UNL     1      41.670 -15.106  -1.609  1.00  0.00    -0.190 N 
HETATM   11  C   UNL     1      39.317 -12.886  -3.420  1.00  0.00     0.002 A 
HETATM   12  C   UNL     1      38.339 -12.859  -2.401  1.00  0.00     0.002 A 
HETATM   13  H   UNL     1      42.509 -15.344  -2.122  1.00  0.00     0.184 HD
ENDBRANCH   1   3
BRANCH   1  14
HETATM   14  C   UNL     1      41.491 -17.390   1.221  1.00  0.00     0.179 C 
BRANCH  14  15
HETATM   15  C   UNL     1      42.505 -18.140   2.045  1.00  0.00    -0.006 A 
HETATM   16  C   UNL     1      43.030 -17.529   3.194  1.00  0.00     0.073 A 
HETATM   17  C   UNL     1      43.943 -18.181   4.021  1.00  0.00     0.038 A 
HETATM   18  C   UNL     1      44.350 -19.477   3.706  1.00  0.00     0.022 A 
HETATM   19  C   UNL     1      43.833 -20.105   2.576  1.00  0.00     0.011 A 
HETATM   20 BR   UNL     1      44.381 -21.862   2.146  1.00  0.00    -0.051 Br
HETATM   21  C   UNL     1      42.911 -19.452   1.754  1.00  0.00     0.030 A 
BRANCH  16  22
HETATM   22  O   UNL     1      42.617 -16.261   3.494  1.00  0.00    -0.360 OA
HETATM   23  H   UNL     1      43.386 -15.735   3.782  1.00  0.00     0.217 HD
ENDBRANCH  16  22
ENDBRANCH  14  15
ENDBRANCH   1  14
TORSDOF 4
ENDMDL
MODEL 10
REMARK VINA RESULT:      -6.9      3.983      7.277
REMARK  4 active torsions:
REMARK  status: ('A' for Active; 'I' for Inactive)
REMARK    1  A    between atoms: C_7  and  N_8 
REMARK    2  A    between atoms: N_8  and  C_9 
REMARK    3  A    between atoms: C_9  and  C_10 
REMARK    4  A    between atoms: C_11  and  O_12 
ROOT
HETATM    1  N   UNL     1      39.498 -15.645   1.386  1.00  0.00    -0.222 N 
HETATM    2  H   UNL     1      38.598 -16.060   1.194  1.00  0.00     0.178 HD
ENDROOT
BRANCH   1   3
HETATM    3  C   UNL     1      40.421 -16.410   1.984  1.00  0.00     0.679 A 
HETATM    4  N   UNL     1      41.281 -17.178   1.337  1.00  0.00    -0.190 N 
HETATM    5  C   UNL     1      42.094 -17.842   2.234  1.00  0.00     0.076 A 
HETATM    6  H   UNL     1      41.349 -17.273   0.333  1.00  0.00     0.184 HD
HETATM    7  C   UNL     1      41.666 -17.441   3.500  1.00  0.00     0.076 A 
HETATM    8  C   UNL     1      43.137 -18.739   2.043  1.00  0.00     0.032 A 
HETATM    9  C   UNL     1      42.245 -17.915   4.671  1.00  0.00     0.032 A 
HETATM   10  N   UNL     1      40.632 -16.557   3.280  1.00  0.00    -0.190 N 
HETATM   11  C   UNL     1      43.301 -18.823   4.497  1.00  0.00     0.002 A 
HETATM   12  C   UNL     1      43.738 -19.225   3.215  1.00  0.00     0.002 A 
HETATM   13  H   UNL     1      40.090 -16.109   4.009  1.00  0.00     0.184 HD
ENDBRANCH   1   3
BRANCH   1  14
HETATM   14  C   UNL     1      39.817 -14.338   0.819  1.00  0.00     0.179 C 
BRANCH  14  15
HETATM   15  C   UNL     1      39.777 -14.332  -0.687  1.00  0.00    -0.006 A 
HETATM   16  C   UNL     1      40.905 -14.770  -1.397  1.00  0.00     0.073 A 
HETATM   17  C   UNL     1      40.921 -14.825  -2.789  1.00  0.00     0.038 A 
HETATM   18  C   UNL     1      39.789 -14.436  -3.505  1.00  0.00     0.022 A 
HETATM   19  C   UNL     1      38.656 -14.008  -2.820  1.00  0.00     0.011 A 
HETATM   20 BR   UNL     1      37.119 -13.481  -3.785  1.00  0.00    -0.051 Br
HETATM   21  C   UNL     1      38.640 -13.963  -1.423  1.00  0.00     0.030 A 
BRANCH  16  22
HETATM   22  O   UNL     1      42.004 -15.155  -0.682  1.00  0.00    -0.360 OA
HETATM   23  H   UNL     1      41.842 -16.037  -0.298  1.00  0.00     0.217 HD
ENDBRANCH  16  22
ENDBRANCH  14  15
ENDBRANCH   1  14
TORSDOF 4
ENDMDL
