MODEL 1
REMARK VINA RESULT:      -8.8      0.000      0.000
REMARK  8 active torsions:
REMARK  status: ('A' for Active; 'I' for Inactive)
REMARK    1  A    between atoms: O_2  and  C_3 
REMARK    2  A    between atoms: C_6  and  C_7 
REMARK    3  A    between atoms: C_11  and  S_12 
REMARK    4  A    between atoms: S_12  and  C_13 
REMARK    5  A    between atoms: C_13  and  C_14 
REMARK       I    between atoms: C_14  and  N_15 
REMARK    6  A    between atoms: N_15  and  C_16 
REMARK    7  A    between atoms: C_17  and  C_18 
REMARK       I    between atoms: C_18  and  N_19 
REMARK    8  A    between atoms: N_19  and  C_20 
ROOT
HETATM    1  C   UNL     1      44.874 -12.169   8.801  1.00  0.00     0.231 C 
HETATM    2  N   UNL     1      43.738 -12.190   9.582  1.00  0.00    -0.326 N 
HETATM    3  O   UNL     1      45.641 -11.203   8.747  1.00  0.00    -0.272 OA
HETATM    4  H   UNL     1      43.403 -13.118   9.830  1.00  0.00     0.169 HD
ENDROOT
BRANCH   1   5
HETATM    5  C   UNL     1      45.099 -13.389   7.914  1.00  0.00     0.185 C 
BRANCH   5   6
HETATM    6  S   UNL     1      43.794 -13.675   6.669  1.00  0.00    -0.081 SA
BRANCH   6   7
HETATM    7  C   UNL     1      43.761 -15.392   6.656  1.00  0.00     0.185 A 
HETATM    8  N   UNL     1      43.489 -16.164   7.735  1.00  0.00    -0.253 N 
HETATM    9  N   UNL     1      43.545 -17.473   7.410  1.00  0.00    -0.152 NA
HETATM   10  H   UNL     1      43.274 -15.886   8.685  1.00  0.00     0.191 HD
HETATM   11  C   UNL     1      43.854 -17.425   6.100  1.00  0.00     0.182 A 
HETATM   12  N   UNL     1      43.963 -16.142   5.609  1.00  0.00    -0.201 NA
BRANCH  11  13
HETATM   13  C   UNL     1      44.060 -18.577   5.230  1.00  0.00     0.014 A 
HETATM   14  C   UNL     1      44.630 -19.762   5.704  1.00  0.00     0.018 A 
HETATM   15  C   UNL     1      44.802 -20.854   4.844  1.00  0.00     0.037 A 
HETATM   16  C   UNL     1      44.407 -20.783   3.506  1.00  0.00     0.068 A 
HETATM   17  C   UNL     1      43.852 -19.600   3.023  1.00  0.00     0.037 A 
HETATM   18  C   UNL     1      43.680 -18.507   3.880  1.00  0.00     0.018 A 
BRANCH  16  19
HETATM   19  O   UNL     1      44.619 -21.922   2.779  1.00  0.00    -0.356 OA
HETATM   20  C   UNL     1      44.091 -21.940   1.457  1.00  0.00     0.210 C 
ENDBRANCH  16  19
ENDBRANCH  11  13
ENDBRANCH   6   7
ENDBRANCH   5   6
ENDBRANCH   1   5
BRANCH   2  21
HETATM   21  C   UNL     1      43.346 -11.136  10.428  1.00  0.00     0.050 A 
HETATM   22  C   UNL     1      42.495 -10.089  10.036  1.00  0.00     0.058 A 
HETATM   23  C   UNL     1      42.103  -9.119  10.972  1.00  0.00     0.019 A 
HETATM   24  C   UNL     1      42.557  -9.182  12.289  1.00  0.00     0.001 A 
HETATM   25  C   UNL     1      43.371 -10.239  12.688  1.00  0.00     0.002 A 
HETATM   26  C   UNL     1      43.746 -11.222  11.768  1.00  0.00     0.030 A 
BRANCH  22  27
HETATM   27  C   UNL     1      41.750 -10.080   8.757  1.00  0.00     0.254 C 
HETATM   28  N   UNL     1      40.744 -11.007   8.631  1.00  0.00    -0.352 N 
HETATM   29  H   UNL     1      40.500 -11.563   9.453  1.00  0.00     0.163 HD
HETATM   30  O   UNL     1      42.089  -9.290   7.880  1.00  0.00    -0.268 OA
BRANCH  28  31
HETATM   31  C   UNL     1      39.911 -11.092   7.474  1.00  0.00     0.084 A 
HETATM   32  C   UNL     1      40.408 -11.779   6.233  1.00  0.00     0.027 A 
HETATM   33  C   UNL     1      39.321 -12.411   7.054  1.00  0.00     0.027 A 
ENDBRANCH  28  31
ENDBRANCH  22  27
ENDBRANCH   2  21
TORSDOF 8
ENDMDL
MODEL 2
REMARK VINA RESULT:      -8.8      4.599      9.108
REMARK  8 active torsions:
REMARK  status: ('A' for Active; 'I' for Inactive)
REMARK    1  A    between atoms: O_2  and  C_3 
REMARK    2  A    between atoms: C_6  and  C_7 
REMARK    3  A    between atoms: C_11  and  S_12 
REMARK    4  A    between atoms: S_12  and  C_13 
REMARK    5  A    between atoms: C_13  and  C_14 
REMARK       I    between atoms: C_14  and  N_15 
REMARK    6  A    between atoms: N_15  and  C_16 
REMARK    7  A    between atoms: C_17  and  C_18 
REMARK       I    between atoms: C_18  and  N_19 
REMARK    8  A    between atoms: N_19  and  C_20 
ROOT
HETATM    1  C   UNL     1      44.313 -19.336   6.272  1.00  0.00     0.231 C 
HETATM    2  N   UNL     1      44.742 -19.160   4.973  1.00  0.00    -0.326 N 
HETATM    3  O   UNL     1      43.540 -20.236   6.612  1.00  0.00    -0.272 OA
HETATM    4  H   UNL     1      45.619 -18.654   4.874  1.00  0.00     0.169 HD
ENDROOT
BRANCH   1   5
HETATM    5  C   UNL     1      44.776 -18.288   7.277  1.00  0.00     0.185 C 
BRANCH   5   6
HETATM    6  S   UNL     1      43.430 -17.315   8.037  1.00  0.00    -0.081 SA
BRANCH   6   7
HETATM    7  C   UNL     1      43.445 -15.933   7.017  1.00  0.00     0.185 A 
HETATM    8  N   UNL     1      44.414 -14.987   7.017  1.00  0.00    -0.253 N 
HETATM    9  N   UNL     1      44.140 -14.026   6.110  1.00  0.00    -0.152 NA
HETATM   10  H   UNL     1      45.251 -14.925   7.585  1.00  0.00     0.191 HD
HETATM   11  C   UNL     1      42.979 -14.457   5.584  1.00  0.00     0.182 A 
HETATM   12  N   UNL     1      42.548 -15.654   6.113  1.00  0.00    -0.201 NA
BRANCH  11  13
HETATM   13  C   UNL     1      42.207 -13.778   4.549  1.00  0.00     0.014 A 
HETATM   14  C   UNL     1      42.813 -13.274   3.395  1.00  0.00     0.018 A 
HETATM   15  C   UNL     1      42.041 -12.638   2.414  1.00  0.00     0.037 A 
HETATM   16  C   UNL     1      40.659 -12.497   2.569  1.00  0.00     0.068 A 
HETATM   17  C   UNL     1      40.051 -12.981   3.725  1.00  0.00     0.037 A 
HETATM   18  C   UNL     1      40.821 -13.617   4.706  1.00  0.00     0.018 A 
BRANCH  16  19
HETATM   19  O   UNL     1      40.022 -11.867   1.535  1.00  0.00    -0.356 OA
HETATM   20  C   UNL     1      40.108 -10.447   1.505  1.00  0.00     0.210 C 
ENDBRANCH  16  19
ENDBRANCH  11  13
ENDBRANCH   6   7
ENDBRANCH   5   6
ENDBRANCH   1   5
BRANCH   2  21
HETATM   21  C   UNL     1      44.380 -20.001   3.904  1.00  0.00     0.050 A 
HETATM   22  C   UNL     1      43.616 -19.585   2.800  1.00  0.00     0.058 A 
HETATM   23  C   UNL     1      43.364 -20.478   1.747  1.00  0.00     0.019 A 
HETATM   24  C   UNL     1      43.861 -21.780   1.790  1.00  0.00     0.001 A 
HETATM   25  C   UNL     1      44.648 -22.184   2.866  1.00  0.00     0.002 A 
HETATM   26  C   UNL     1      44.923 -21.292   3.907  1.00  0.00     0.030 A 
BRANCH  22  27
HETATM   27  C   UNL     1      43.277 -18.169   2.531  1.00  0.00     0.254 C 
HETATM   28  N   UNL     1      41.945 -17.838   2.594  1.00  0.00    -0.352 N 
HETATM   29  H   UNL     1      41.290 -18.550   2.927  1.00  0.00     0.163 HD
HETATM   30  O   UNL     1      44.179 -17.391   2.231  1.00  0.00    -0.268 OA
BRANCH  28  31
HETATM   31  C   UNL     1      41.469 -16.506   2.400  1.00  0.00     0.084 A 
HETATM   32  C   UNL     1      41.134 -16.016   1.019  1.00  0.00     0.027 A 
HETATM   33  C   UNL     1      40.037 -16.256   2.015  1.00  0.00     0.027 A 
ENDBRANCH  28  31
ENDBRANCH  22  27
ENDBRANCH   2  21
TORSDOF 8
ENDMDL
MODEL 3
REMARK VINA RESULT:      -8.7      2.133      3.859
REMARK  8 active torsions:
REMARK  status: ('A' for Active; 'I' for Inactive)
REMARK    1  A    between atoms: O_2  and  C_3 
REMARK    2  A    between atoms: C_6  and  C_7 
REMARK    3  A    between atoms: C_11  and  S_12 
REMARK    4  A    between atoms: S_12  and  C_13 
REMARK    5  A    between atoms: C_13  and  C_14 
REMARK       I    between atoms: C_14  and  N_15 
REMARK    6  A    between atoms: N_15  and  C_16 
REMARK    7  A    between atoms: C_17  and  C_18 
REMARK       I    between atoms: C_18  and  N_19 
REMARK    8  A    between atoms: N_19  and  C_20 
ROOT
HETATM    1  C   UNL     1      41.635 -10.382   7.420  1.00  0.00     0.231 C 
HETATM    2  N   UNL     1      41.730 -11.201   8.526  1.00  0.00    -0.326 N 
HETATM    3  O   UNL     1      42.126  -9.250   7.373  1.00  0.00    -0.272 OA
HETATM    4  H   UNL     1      41.625 -12.195   8.335  1.00  0.00     0.169 HD
ENDROOT
BRANCH   1   5
HETATM    5  C   UNL     1      40.796 -10.914   6.263  1.00  0.00     0.185 C 
BRANCH   5   6
HETATM    6  S   UNL     1      39.650 -12.263   6.710  1.00  0.00    -0.081 SA
BRANCH   6   7
HETATM    7  C   UNL     1      40.126 -13.454   5.569  1.00  0.00     0.185 A 
HETATM    8  N   UNL     1      39.667 -13.527   4.296  1.00  0.00    -0.253 N 
HETATM    9  N   UNL     1      40.222 -14.574   3.650  1.00  0.00    -0.152 NA
HETATM   10  H   UNL     1      39.000 -12.932   3.820  1.00  0.00     0.191 HD
HETATM   11  C   UNL     1      41.022 -15.098   4.597  1.00  0.00     0.182 A 
HETATM   12  N   UNL     1      40.998 -14.398   5.784  1.00  0.00    -0.201 NA
BRANCH  11  13
HETATM   13  C   UNL     1      41.862 -16.280   4.445  1.00  0.00     0.014 A 
HETATM   14  C   UNL     1      42.773 -16.402   3.391  1.00  0.00     0.018 A 
HETATM   15  C   UNL     1      43.574 -17.546   3.281  1.00  0.00     0.037 A 
HETATM   16  C   UNL     1      43.480 -18.580   4.216  1.00  0.00     0.068 A 
HETATM   17  C   UNL     1      42.563 -18.473   5.259  1.00  0.00     0.037 A 
HETATM   18  C   UNL     1      41.762 -17.331   5.371  1.00  0.00     0.018 A 
BRANCH  16  19
HETATM   19  O   UNL     1      44.325 -19.634   4.000  1.00  0.00    -0.356 OA
HETATM   20  C   UNL     1      44.663 -20.422   5.136  1.00  0.00     0.210 C 
ENDBRANCH  16  19
ENDBRANCH  11  13
ENDBRANCH   6   7
ENDBRANCH   5   6
ENDBRANCH   1   5
BRANCH   2  21
HETATM   21  C   UNL     1      42.423 -10.859   9.702  1.00  0.00     0.050 A 
HETATM   22  C   UNL     1      43.746 -11.243   9.975  1.00  0.00     0.058 A 
HETATM   23  C   UNL     1      44.378 -10.793  11.145  1.00  0.00     0.019 A 
HETATM   24  C   UNL     1      43.699  -9.972  12.044  1.00  0.00     0.001 A 
HETATM   25  C   UNL     1      42.399  -9.562  11.759  1.00  0.00     0.002 A 
HETATM   26  C   UNL     1      41.773  -9.986  10.584  1.00  0.00     0.030 A 
BRANCH  22  27
HETATM   27  C   UNL     1      44.634 -11.876   8.973  1.00  0.00     0.254 C 
HETATM   28  N   UNL     1      44.184 -13.048   8.413  1.00  0.00    -0.352 N 
HETATM   29  H   UNL     1      43.232 -13.348   8.634  1.00  0.00     0.163 HD
HETATM   30  O   UNL     1      45.720 -11.355   8.731  1.00  0.00    -0.268 OA
BRANCH  28  31
HETATM   31  C   UNL     1      44.909 -13.751   7.404  1.00  0.00     0.084 A 
HETATM   32  C   UNL     1      44.452 -15.108   6.950  1.00  0.00     0.027 A 
HETATM   33  C   UNL     1      44.326 -13.929   6.029  1.00  0.00     0.027 A 
ENDBRANCH  28  31
ENDBRANCH  22  27
ENDBRANCH   2  21
TORSDOF 8
ENDMDL
MODEL 4
REMARK VINA RESULT:      -8.7      2.986      5.874
REMARK  8 active torsions:
REMARK  status: ('A' for Active; 'I' for Inactive)
REMARK    1  A    between atoms: O_2  and  C_3 
REMARK    2  A    between atoms: C_6  and  C_7 
REMARK    3  A    between atoms: C_11  and  S_12 
REMARK    4  A    between atoms: S_12  and  C_13 
REMARK    5  A    between atoms: C_13  and  C_14 
REMARK       I    between atoms: C_14  and  N_15 
REMARK    6  A    between atoms: N_15  and  C_16 
REMARK    7  A    between atoms: C_17  and  C_18 
REMARK       I    between atoms: C_18  and  N_19 
REMARK    8  A    between atoms: N_19  and  C_20 
ROOT
HETATM    1  C   UNL     1      41.178 -14.791   4.309  1.00  0.00     0.231 C 
HETATM    2  N   UNL     1      42.408 -15.395   4.460  1.00  0.00    -0.326 N 
HETATM    3  O   UNL     1      40.282 -14.858   5.156  1.00  0.00    -0.272 OA
HETATM    4  H   UNL     1      43.159 -14.986   3.909  1.00  0.00     0.169 HD
ENDROOT
BRANCH   1   5
HETATM    5  C   UNL     1      40.934 -14.094   2.975  1.00  0.00     0.185 C 
BRANCH   5   6
HETATM    6  S   UNL     1      40.204 -15.158   1.683  1.00  0.00    -0.081 SA
BRANCH   6   7
HETATM    7  C   UNL     1      41.476 -16.293   1.473  1.00  0.00     0.185 A 
HETATM    8  N   UNL     1      42.377 -16.260   0.462  1.00  0.00    -0.253 N 
HETATM    9  N   UNL     1      43.246 -17.288   0.566  1.00  0.00    -0.152 NA
HETATM   10  H   UNL     1      42.455 -15.605  -0.307  1.00  0.00     0.191 HD
HETATM   11  C   UNL     1      42.814 -17.910   1.679  1.00  0.00     0.182 A 
HETATM   12  N   UNL     1      41.736 -17.289   2.272  1.00  0.00    -0.201 NA
BRANCH  11  13
HETATM   13  C   UNL     1      43.391 -19.118   2.258  1.00  0.00     0.014 A 
HETATM   14  C   UNL     1      43.203 -20.373   1.673  1.00  0.00     0.018 A 
HETATM   15  C   UNL     1      43.781 -21.512   2.248  1.00  0.00     0.037 A 
HETATM   16  C   UNL     1      44.554 -21.417   3.409  1.00  0.00     0.068 A 
HETATM   17  C   UNL     1      44.731 -20.171   4.006  1.00  0.00     0.037 A 
HETATM   18  C   UNL     1      44.154 -19.032   3.434  1.00  0.00     0.018 A 
BRANCH  16  19
HETATM   19  O   UNL     1      45.069 -22.600   3.859  1.00  0.00    -0.356 OA
HETATM   20  C   UNL     1      45.138 -22.768   5.271  1.00  0.00     0.210 C 
ENDBRANCH  16  19
ENDBRANCH  11  13
ENDBRANCH   6   7
ENDBRANCH   5   6
ENDBRANCH   1   5
BRANCH   2  21
HETATM   21  C   UNL     1      42.794 -16.120   5.603  1.00  0.00     0.050 A 
HETATM   22  C   UNL     1      43.637 -15.615   6.607  1.00  0.00     0.058 A 
HETATM   23  C   UNL     1      43.909 -16.389   7.747  1.00  0.00     0.019 A 
HETATM   24  C   UNL     1      43.353 -17.659   7.888  1.00  0.00     0.001 A 
HETATM   25  C   UNL     1      42.489 -18.148   6.911  1.00  0.00     0.002 A 
HETATM   26  C   UNL     1      42.195 -17.373   5.785  1.00  0.00     0.030 A 
BRANCH  22  27
HETATM   27  C   UNL     1      44.053 -14.197   6.685  1.00  0.00     0.254 C 
HETATM   28  N   UNL     1      44.175 -13.665   7.947  1.00  0.00    -0.352 N 
HETATM   29  H   UNL     1      44.083 -14.299   8.744  1.00  0.00     0.163 HD
HETATM   30  O   UNL     1      44.221 -13.571   5.642  1.00  0.00    -0.268 OA
BRANCH  28  31
HETATM   31  C   UNL     1      44.607 -12.325   8.183  1.00  0.00     0.084 A 
HETATM   32  C   UNL     1      44.133 -11.579   9.398  1.00  0.00     0.027 A 
HETATM   33  C   UNL     1      45.566 -12.017   9.301  1.00  0.00     0.027 A 
ENDBRANCH  28  31
ENDBRANCH  22  27
ENDBRANCH   2  21
TORSDOF 8
ENDMDL
MODEL 5
REMARK VINA RESULT:      -8.7      2.123      3.895
REMARK  8 active torsions:
REMARK  status: ('A' for Active; 'I' for Inactive)
REMARK    1  A    between atoms: O_2  and  C_3 
REMARK    2  A    between atoms: C_6  and  C_7 
REMARK    3  A    between atoms: C_11  and  S_12 
REMARK    4  A    between atoms: S_12  and  C_13 
REMARK    5  A    between atoms: C_13  and  C_14 
REMARK       I    between atoms: C_14  and  N_15 
REMARK    6  A    between atoms: N_15  and  C_16 
REMARK    7  A    between atoms: C_17  and  C_18 
REMARK       I    between atoms: C_18  and  N_19 
REMARK    8  A    between atoms: N_19  and  C_20 
ROOT
HETATM    1  C   UNL     1      39.411 -11.688   7.048  1.00  0.00     0.231 C 
HETATM    2  N   UNL     1      39.559 -11.787   8.415  1.00  0.00    -0.326 N 
HETATM    3  O   UNL     1      39.328 -10.610   6.452  1.00  0.00    -0.272 OA
HETATM    4  H   UNL     1      39.972 -12.657   8.742  1.00  0.00     0.169 HD
ENDROOT
BRANCH   1   5
HETATM    5  C   UNL     1      39.258 -13.005   6.295  1.00  0.00     0.185 C 
BRANCH   5   6
HETATM    6  S   UNL     1      40.395 -13.211   4.882  1.00  0.00    -0.081 SA
BRANCH   6   7
HETATM    7  C   UNL     1      40.781 -14.876   5.045  1.00  0.00     0.185 A 
HETATM    8  N   UNL     1      40.237 -15.705   5.969  1.00  0.00    -0.253 N 
HETATM    9  N   UNL     1      40.745 -16.949   5.849  1.00  0.00    -0.152 NA
HETATM   10  H   UNL     1      39.553 -15.503   6.688  1.00  0.00     0.191 HD
HETATM   11  C   UNL     1      41.597 -16.807   4.816  1.00  0.00     0.182 A 
HETATM   12  N   UNL     1      41.610 -15.535   4.286  1.00  0.00    -0.201 NA
BRANCH  11  13
HETATM   13  C   UNL     1      42.445 -17.856   4.260  1.00  0.00     0.014 A 
HETATM   14  C   UNL     1      42.365 -18.228   2.916  1.00  0.00     0.018 A 
HETATM   15  C   UNL     1      43.203 -19.231   2.411  1.00  0.00     0.037 A 
HETATM   16  C   UNL     1      44.130 -19.873   3.236  1.00  0.00     0.068 A 
HETATM   17  C   UNL     1      44.204 -19.519   4.581  1.00  0.00     0.037 A 
HETATM   18  C   UNL     1      43.368 -18.518   5.087  1.00  0.00     0.018 A 
BRANCH  16  19
HETATM   19  O   UNL     1      44.894 -20.824   2.617  1.00  0.00    -0.356 OA
HETATM   20  C   UNL     1      44.200 -21.779   1.822  1.00  0.00     0.210 C 
ENDBRANCH  16  19
ENDBRANCH  11  13
ENDBRANCH   6   7
ENDBRANCH   5   6
ENDBRANCH   1   5
BRANCH   2  21
HETATM   21  C   UNL     1      39.669 -10.679   9.277  1.00  0.00     0.050 A 
HETATM   22  C   UNL     1      40.891 -10.165   9.744  1.00  0.00     0.058 A 
HETATM   23  C   UNL     1      40.904  -9.011  10.545  1.00  0.00     0.019 A 
HETATM   24  C   UNL     1      39.712  -8.375  10.886  1.00  0.00     0.001 A 
HETATM   25  C   UNL     1      38.503  -8.862  10.395  1.00  0.00     0.002 A 
HETATM   26  C   UNL     1      38.484  -9.995   9.577  1.00  0.00     0.030 A 
BRANCH  22  27
HETATM   27  C   UNL     1      42.208 -10.597   9.226  1.00  0.00     0.254 C 
HETATM   28  N   UNL     1      42.995 -11.323  10.089  1.00  0.00    -0.352 N 
HETATM   29  H   UNL     1      42.587 -11.612  10.980  1.00  0.00     0.163 HD
HETATM   30  O   UNL     1      42.540 -10.257   8.094  1.00  0.00    -0.268 OA
BRANCH  28  31
HETATM   31  C   UNL     1      44.272 -11.843   9.718  1.00  0.00     0.084 A 
HETATM   32  C   UNL     1      45.495 -10.975   9.796  1.00  0.00     0.027 A 
HETATM   33  C   UNL     1      45.320 -12.109  10.764  1.00  0.00     0.027 A 
ENDBRANCH  28  31
ENDBRANCH  22  27
ENDBRANCH   2  21
TORSDOF 8
ENDMDL
MODEL 6
REMARK VINA RESULT:      -8.5      2.680     10.397
REMARK  8 active torsions:
REMARK  status: ('A' for Active; 'I' for Inactive)
REMARK    1  A    between atoms: O_2  and  C_3 
REMARK    2  A    between atoms: C_6  and  C_7 
REMARK    3  A    between atoms: C_11  and  S_12 
REMARK    4  A    between atoms: S_12  and  C_13 
REMARK    5  A    between atoms: C_13  and  C_14 
REMARK       I    between atoms: C_14  and  N_15 
REMARK    6  A    between atoms: N_15  and  C_16 
REMARK    7  A    between atoms: C_17  and  C_18 
REMARK       I    between atoms: C_18  and  N_19 
REMARK    8  A    between atoms: N_19  and  C_20 
ROOT
HETATM    1  C   UNL     1      43.293 -14.300   4.862  1.00  0.00     0.231 C 
HETATM    2  N   UNL     1      42.559 -15.467   4.889  1.00  0.00    -0.326 N 
HETATM    3  O   UNL     1      43.851 -13.875   3.846  1.00  0.00    -0.272 OA
HETATM    4  H   UNL     1      41.870 -15.525   5.636  1.00  0.00     0.169 HD
ENDROOT
BRANCH   1   5
HETATM    5  C   UNL     1      43.465 -13.586   6.199  1.00  0.00     0.185 C 
BRANCH   5   6
HETATM    6  S   UNL     1      45.045 -13.929   7.047  1.00  0.00    -0.081 SA
BRANCH   6   7
HETATM    7  C   UNL     1      45.076 -12.627   8.166  1.00  0.00     0.185 A 
HETATM    8  N   UNL     1      46.158 -11.850   8.413  1.00  0.00    -0.253 N 
HETATM    9  N   UNL     1      45.871 -10.918   9.345  1.00  0.00    -0.152 NA
HETATM   10  H   UNL     1      47.087 -11.898   8.012  1.00  0.00     0.191 HD
HETATM   11  C   UNL     1      44.580 -11.183   9.621  1.00  0.00     0.182 A 
HETATM   12  N   UNL     1      44.062 -12.220   8.877  1.00  0.00    -0.201 NA
BRANCH  11  13
HETATM   13  C   UNL     1      43.753 -10.475  10.592  1.00  0.00     0.014 A 
HETATM   14  C   UNL     1      44.122 -10.378  11.937  1.00  0.00     0.018 A 
HETATM   15  C   UNL     1      43.311  -9.681  12.841  1.00  0.00     0.037 A 
HETATM   16  C   UNL     1      42.127  -9.070  12.420  1.00  0.00     0.068 A 
HETATM   17  C   UNL     1      41.745  -9.176  11.085  1.00  0.00     0.037 A 
HETATM   18  C   UNL     1      42.553  -9.873  10.180  1.00  0.00     0.018 A 
BRANCH  16  19
HETATM   19  O   UNL     1      41.435  -8.412  13.399  1.00  0.00    -0.356 OA
HETATM   20  C   UNL     1      41.294  -9.090  14.643  1.00  0.00     0.210 C 
ENDBRANCH  16  19
ENDBRANCH  11  13
ENDBRANCH   6   7
ENDBRANCH   5   6
ENDBRANCH   1   5
BRANCH   2  21
HETATM   21  C   UNL     1      42.334 -16.281   3.764  1.00  0.00     0.050 A 
HETATM   22  C   UNL     1      42.994 -17.499   3.529  1.00  0.00     0.058 A 
HETATM   23  C   UNL     1      42.650 -18.277   2.412  1.00  0.00     0.019 A 
HETATM   24  C   UNL     1      41.664 -17.846   1.527  1.00  0.00     0.001 A 
HETATM   25  C   UNL     1      40.984 -16.656   1.776  1.00  0.00     0.002 A 
HETATM   26  C   UNL     1      41.303 -15.889   2.899  1.00  0.00     0.030 A 
BRANCH  22  27
HETATM   27  C   UNL     1      43.848 -18.169   4.535  1.00  0.00     0.254 C 
HETATM   28  N   UNL     1      43.865 -19.543   4.503  1.00  0.00    -0.352 N 
HETATM   29  H   UNL     1      43.384 -20.010   3.731  1.00  0.00     0.163 HD
HETATM   30  O   UNL     1      44.450 -17.480   5.354  1.00  0.00    -0.268 OA
BRANCH  28  31
HETATM   31  C   UNL     1      44.672 -20.327   5.382  1.00  0.00     0.084 A 
HETATM   32  C   UNL     1      44.034 -21.313   6.319  1.00  0.00     0.027 A 
HETATM   33  C   UNL     1      44.839 -21.805   5.151  1.00  0.00     0.027 A 
ENDBRANCH  28  31
ENDBRANCH  22  27
ENDBRANCH   2  21
TORSDOF 8
ENDMDL
MODEL 7
REMARK VINA RESULT:      -8.4      6.037      8.376
REMARK  8 active torsions:
REMARK  status: ('A' for Active; 'I' for Inactive)
REMARK    1  A    between atoms: O_2  and  C_3 
REMARK    2  A    between atoms: C_6  and  C_7 
REMARK    3  A    between atoms: C_11  and  S_12 
REMARK    4  A    between atoms: S_12  and  C_13 
REMARK    5  A    between atoms: C_13  and  C_14 
REMARK       I    between atoms: C_14  and  N_15 
REMARK    6  A    between atoms: N_15  and  C_16 
REMARK    7  A    between atoms: C_17  and  C_18 
REMARK       I    between atoms: C_18  and  N_19 
REMARK    8  A    between atoms: N_19  and  C_20 
ROOT
HETATM    1  C   UNL     1      41.858 -12.706   2.261  1.00  0.00     0.231 C 
HETATM    2  N   UNL     1      41.272 -11.998   1.233  1.00  0.00    -0.326 N 
HETATM    3  O   UNL     1      43.030 -13.094   2.233  1.00  0.00    -0.272 OA
HETATM    4  H   UNL     1      40.469 -11.434   1.501  1.00  0.00     0.169 HD
ENDROOT
BRANCH   1   5
HETATM    5  C   UNL     1      40.944 -13.076   3.424  1.00  0.00     0.185 C 
BRANCH   5   6
HETATM    6  S   UNL     1      39.517 -14.120   2.969  1.00  0.00    -0.081 SA
BRANCH   6   7
HETATM    7  C   UNL     1      40.328 -15.577   2.558  1.00  0.00     0.185 A 
HETATM    8  N   UNL     1      40.109 -16.286   1.424  1.00  0.00    -0.253 N 
HETATM    9  N   UNL     1      40.893 -17.384   1.392  1.00  0.00    -0.152 NA
HETATM   10  H   UNL     1      39.466 -16.098   0.664  1.00  0.00     0.191 HD
HETATM   11  C   UNL     1      41.575 -17.278   2.547  1.00  0.00     0.182 A 
HETATM   12  N   UNL     1      41.259 -16.147   3.270  1.00  0.00    -0.201 NA
BRANCH  11  13
HETATM   13  C   UNL     1      42.569 -18.225   3.041  1.00  0.00     0.014 A 
HETATM   14  C   UNL     1      43.094 -19.229   2.223  1.00  0.00     0.018 A 
HETATM   15  C   UNL     1      44.056 -20.115   2.725  1.00  0.00     0.037 A 
HETATM   16  C   UNL     1      44.509 -20.011   4.043  1.00  0.00     0.068 A 
HETATM   17  C   UNL     1      43.978 -19.023   4.868  1.00  0.00     0.037 A 
HETATM   18  C   UNL     1      43.016 -18.137   4.369  1.00  0.00     0.018 A 
BRANCH  16  19
HETATM   19  O   UNL     1      45.457 -20.929   4.403  1.00  0.00    -0.356 OA
HETATM   20  C   UNL     1      44.990 -22.098   5.067  1.00  0.00     0.210 C 
ENDBRANCH  16  19
ENDBRANCH  11  13
ENDBRANCH   6   7
ENDBRANCH   5   6
ENDBRANCH   1   5
BRANCH   2  21
HETATM   21  C   UNL     1      41.947 -11.609   0.061  1.00  0.00     0.050 A 
HETATM   22  C   UNL     1      42.065 -12.416  -1.084  1.00  0.00     0.058 A 
HETATM   23  C   UNL     1      42.697 -11.914  -2.232  1.00  0.00     0.019 A 
HETATM   24  C   UNL     1      43.218 -10.621  -2.244  1.00  0.00     0.001 A 
HETATM   25  C   UNL     1      43.072  -9.807  -1.123  1.00  0.00     0.002 A 
HETATM   26  C   UNL     1      42.421 -10.292   0.015  1.00  0.00     0.030 A 
BRANCH  22  27
HETATM   27  C   UNL     1      41.320 -13.682  -1.267  1.00  0.00     0.254 C 
HETATM   28  N   UNL     1      40.276 -13.652  -2.161  1.00  0.00    -0.352 N 
HETATM   29  H   UNL     1      40.148 -12.805  -2.718  1.00  0.00     0.163 HD
HETATM   30  O   UNL     1      41.640 -14.660  -0.596  1.00  0.00    -0.268 OA
BRANCH  28  31
HETATM   31  C   UNL     1      39.493 -14.804  -2.474  1.00  0.00     0.084 A 
HETATM   32  C   UNL     1      38.219 -14.663  -3.258  1.00  0.00     0.027 A 
HETATM   33  C   UNL     1      39.417 -15.314  -3.888  1.00  0.00     0.027 A 
ENDBRANCH  28  31
ENDBRANCH  22  27
ENDBRANCH   2  21
TORSDOF 8
ENDMDL
MODEL 8
REMARK VINA RESULT:      -8.4      3.585      9.710
REMARK  8 active torsions:
REMARK  status: ('A' for Active; 'I' for Inactive)
REMARK    1  A    between atoms: O_2  and  C_3 
REMARK    2  A    between atoms: C_6  and  C_7 
REMARK    3  A    between atoms: C_11  and  S_12 
REMARK    4  A    between atoms: S_12  and  C_13 
REMARK    5  A    between atoms: C_13  and  C_14 
REMARK       I    between atoms: C_14  and  N_15 
REMARK    6  A    between atoms: N_15  and  C_16 
REMARK    7  A    between atoms: C_17  and  C_18 
REMARK       I    between atoms: C_18  and  N_19 
REMARK    8  A    between atoms: N_19  and  C_20 
ROOT
HETATM    1  C   UNL     1      43.408 -18.484   1.973  1.00  0.00     0.231 C 
HETATM    2  N   UNL     1      44.583 -19.117   2.318  1.00  0.00    -0.326 N 
HETATM    3  O   UNL     1      42.298 -18.858   2.361  1.00  0.00    -0.272 OA
HETATM    4  H   UNL     1      45.418 -18.539   2.258  1.00  0.00     0.169 HD
ENDROOT
BRANCH   1   5
HETATM    5  C   UNL     1      43.537 -17.324   0.991  1.00  0.00     0.185 C 
BRANCH   5   6
HETATM    6  S   UNL     1      42.056 -16.263   0.866  1.00  0.00    -0.081 SA
BRANCH   6   7
HETATM    7  C   UNL     1      42.257 -15.300   2.273  1.00  0.00     0.185 A 
HETATM    8  N   UNL     1      43.447 -15.043   2.867  1.00  0.00    -0.253 N 
HETATM    9  N   UNL     1      43.278 -14.263   3.955  1.00  0.00    -0.152 NA
HETATM   10  H   UNL     1      44.374 -15.358   2.608  1.00  0.00     0.191 HD
HETATM   11  C   UNL     1      41.945 -14.074   3.962  1.00  0.00     0.182 A 
HETATM   12  N   UNL     1      41.299 -14.685   2.909  1.00  0.00    -0.201 NA
BRANCH  11  13
HETATM   13  C   UNL     1      41.197 -13.305   4.950  1.00  0.00     0.014 A 
HETATM   14  C   UNL     1      41.787 -12.255   5.660  1.00  0.00     0.018 A 
HETATM   15  C   UNL     1      41.037 -11.528   6.594  1.00  0.00     0.037 A 
HETATM   16  C   UNL     1      39.694 -11.834   6.831  1.00  0.00     0.068 A 
HETATM   17  C   UNL     1      39.105 -12.889   6.138  1.00  0.00     0.037 A 
HETATM   18  C   UNL     1      39.852 -13.617   5.206  1.00  0.00     0.018 A 
BRANCH  16  19
HETATM   19  O   UNL     1      39.075 -11.041   7.757  1.00  0.00    -0.356 OA
HETATM   20  C   UNL     1      39.563 -11.122   9.092  1.00  0.00     0.210 C 
ENDBRANCH  16  19
ENDBRANCH  11  13
ENDBRANCH   6   7
ENDBRANCH   5   6
ENDBRANCH   1   5
BRANCH   2  21
HETATM   21  C   UNL     1      44.654 -20.232   3.175  1.00  0.00     0.050 A 
HETATM   22  C   UNL     1      44.723 -20.143   4.575  1.00  0.00     0.058 A 
HETATM   23  C   UNL     1      44.719 -21.314   5.351  1.00  0.00     0.019 A 
HETATM   24  C   UNL     1      44.653 -22.565   4.742  1.00  0.00     0.001 A 
HETATM   25  C   UNL     1      44.549 -22.654   3.356  1.00  0.00     0.002 A 
HETATM   26  C   UNL     1      44.528 -21.493   2.579  1.00  0.00     0.030 A 
BRANCH  22  27
HETATM   27  C   UNL     1      44.524 -18.881   5.323  1.00  0.00     0.254 C 
HETATM   28  N   UNL     1      43.250 -18.366   5.321  1.00  0.00    -0.352 N 
HETATM   29  H   UNL     1      42.506 -18.931   4.907  1.00  0.00     0.163 HD
HETATM   30  O   UNL     1      45.494 -18.351   5.858  1.00  0.00    -0.268 OA
BRANCH  28  31
HETATM   31  C   UNL     1      42.895 -17.180   6.032  1.00  0.00     0.084 A 
HETATM   32  C   UNL     1      41.459 -16.903   6.375  1.00  0.00     0.027 A 
HETATM   33  C   UNL     1      42.433 -17.255   7.462  1.00  0.00     0.027 A 
ENDBRANCH  28  31
ENDBRANCH  22  27
ENDBRANCH   2  21
TORSDOF 8
ENDMDL
MODEL 9
REMARK VINA RESULT:      -8.3      3.515      9.667
REMARK  8 active torsions:
REMARK  status: ('A' for Active; 'I' for Inactive)
REMARK    1  A    between atoms: O_2  and  C_3 
REMARK    2  A    between atoms: C_6  and  C_7 
REMARK    3  A    between atoms: C_11  and  S_12 
REMARK    4  A    between atoms: S_12  and  C_13 
REMARK    5  A    between atoms: C_13  and  C_14 
REMARK       I    between atoms: C_14  and  N_15 
REMARK    6  A    between atoms: N_15  and  C_16 
REMARK    7  A    between atoms: C_17  and  C_18 
REMARK       I    between atoms: C_18  and  N_19 
REMARK    8  A    between atoms: N_19  and  C_20 
ROOT
HETATM    1  C   UNL     1      42.557 -17.343   1.102  1.00  0.00     0.231 C 
HETATM    2  N   UNL     1      42.216 -18.467   1.824  1.00  0.00    -0.326 N 
HETATM    3  O   UNL     1      43.701 -16.881   1.070  1.00  0.00    -0.272 OA
HETATM    4  H   UNL     1      41.382 -18.951   1.498  1.00  0.00     0.169 HD
ENDROOT
BRANCH   1   5
HETATM    5  C   UNL     1      41.409 -16.624   0.400  1.00  0.00     0.185 C 
BRANCH   5   6
HETATM    6  S   UNL     1      41.468 -14.803   0.513  1.00  0.00    -0.081 SA
BRANCH   6   7
HETATM    7  C   UNL     1      40.925 -14.583   2.127  1.00  0.00     0.185 A 
HETATM    8  N   UNL     1      40.277 -15.523   2.855  1.00  0.00    -0.253 N 
HETATM    9  N   UNL     1      39.975 -15.050   4.082  1.00  0.00    -0.152 NA
HETATM   10  H   UNL     1      40.008 -16.465   2.594  1.00  0.00     0.191 HD
HETATM   11  C   UNL     1      40.479 -13.802   4.035  1.00  0.00     0.182 A 
HETATM   12  N   UNL     1      41.099 -13.506   2.840  1.00  0.00    -0.201 NA
BRANCH  11  13
HETATM   13  C   UNL     1      40.418 -12.817   5.108  1.00  0.00     0.014 A 
HETATM   14  C   UNL     1      39.533 -12.955   6.181  1.00  0.00     0.018 A 
HETATM   15  C   UNL     1      39.508 -11.996   7.202  1.00  0.00     0.037 A 
HETATM   16  C   UNL     1      40.363 -10.891   7.169  1.00  0.00     0.068 A 
HETATM   17  C   UNL     1      41.236 -10.738   6.095  1.00  0.00     0.037 A 
HETATM   18  C   UNL     1      41.262 -11.695   5.074  1.00  0.00     0.018 A 
BRANCH  16  19
HETATM   19  O   UNL     1      40.245 -10.038   8.232  1.00  0.00    -0.356 OA
HETATM   20  C   UNL     1      39.015 -10.078   8.947  1.00  0.00     0.210 C 
ENDBRANCH  16  19
ENDBRANCH  11  13
ENDBRANCH   6   7
ENDBRANCH   5   6
ENDBRANCH   1   5
BRANCH   2  21
HETATM   21  C   UNL     1      43.132 -19.231   2.570  1.00  0.00     0.050 A 
HETATM   22  C   UNL     1      43.526 -18.924   3.884  1.00  0.00     0.058 A 
HETATM   23  C   UNL     1      44.393 -19.786   4.574  1.00  0.00     0.019 A 
HETATM   24  C   UNL     1      44.874 -20.942   3.963  1.00  0.00     0.001 A 
HETATM   25  C   UNL     1      44.458 -21.267   2.674  1.00  0.00     0.002 A 
HETATM   26  C   UNL     1      43.576 -20.426   1.990  1.00  0.00     0.030 A 
BRANCH  22  27
HETATM   27  C   UNL     1      42.871 -17.883   4.708  1.00  0.00     0.254 C 
HETATM   28  N   UNL     1      43.705 -17.044   5.407  1.00  0.00    -0.352 N 
HETATM   29  H   UNL     1      44.710 -17.114   5.232  1.00  0.00     0.163 HD
HETATM   30  O   UNL     1      41.644 -17.852   4.757  1.00  0.00    -0.268 OA
BRANCH  28  31
HETATM   31  C   UNL     1      43.222 -15.967   6.211  1.00  0.00     0.084 A 
HETATM   32  C   UNL     1      44.156 -15.226   7.125  1.00  0.00     0.027 A 
HETATM   33  C   UNL     1      43.612 -14.548   5.900  1.00  0.00     0.027 A 
ENDBRANCH  28  31
ENDBRANCH  22  27
ENDBRANCH   2  21
TORSDOF 8
ENDMDL
MODEL 10
REMARK VINA RESULT:      -8.2      3.814      5.845
REMARK  8 active torsions:
REMARK  status: ('A' for Active; 'I' for Inactive)
REMARK    1  A    between atoms: O_2  and  C_3 
REMARK    2  A    between atoms: C_6  and  C_7 
REMARK    3  A    between atoms: C_11  and  S_12 
REMARK    4  A    between atoms: S_12  and  C_13 
REMARK    5  A    between atoms: C_13  and  C_14 
REMARK       I    between atoms: C_14  and  N_15 
REMARK    6  A    between atoms: N_15  and  C_16 
REMARK    7  A    between atoms: C_17  and  C_18 
REMARK       I    between atoms: C_18  and  N_19 
REMARK    8  A    between atoms: N_19  and  C_20 
ROOT
HETATM    1  C   UNL     1      41.110 -12.799   1.714  1.00  0.00     0.231 C 
HETATM    2  N   UNL     1      41.809 -11.985   2.580  1.00  0.00    -0.326 N 
HETATM    3  O   UNL     1      40.031 -13.325   2.002  1.00  0.00    -0.272 OA
HETATM    4  H   UNL     1      42.457 -11.339   2.136  1.00  0.00     0.169 HD
ENDROOT
BRANCH   1   5
HETATM    5  C   UNL     1      41.790 -13.100   0.383  1.00  0.00     0.185 C 
BRANCH   5   6
HETATM    6  S   UNL     1      41.015 -14.442  -0.582  1.00  0.00    -0.081 SA
BRANCH   6   7
HETATM    7  C   UNL     1      41.095 -15.720   0.561  1.00  0.00     0.185 A 
HETATM    8  N   UNL     1      40.032 -16.209   1.245  1.00  0.00    -0.253 N 
HETATM    9  N   UNL     1      40.415 -17.204   2.072  1.00  0.00    -0.152 NA
HETATM   10  H   UNL     1      39.060 -15.922   1.211  1.00  0.00     0.191 HD
HETATM   11  C   UNL     1      41.738 -17.275   1.834  1.00  0.00     0.182 A 
HETATM   12  N   UNL     1      42.172 -16.382   0.878  1.00  0.00    -0.201 NA
BRANCH  11  13
HETATM   13  C   UNL     1      42.673 -18.187   2.483  1.00  0.00     0.014 A 
HETATM   14  C   UNL     1      42.784 -18.256   3.874  1.00  0.00     0.018 A 
HETATM   15  C   UNL     1      43.684 -19.153   4.465  1.00  0.00     0.037 A 
HETATM   16  C   UNL     1      44.481 -19.992   3.681  1.00  0.00     0.068 A 
HETATM   17  C   UNL     1      44.386 -19.916   2.293  1.00  0.00     0.037 A 
HETATM   18  C   UNL     1      43.489 -19.021   1.701  1.00  0.00     0.018 A 
BRANCH  16  19
HETATM   19  O   UNL     1      45.306 -20.826   4.382  1.00  0.00    -0.356 OA
HETATM   20  C   UNL     1      44.690 -21.655   5.362  1.00  0.00     0.210 C 
ENDBRANCH  16  19
ENDBRANCH  11  13
ENDBRANCH   6   7
ENDBRANCH   5   6
ENDBRANCH   1   5
BRANCH   2  21
HETATM   21  C   UNL     1      41.360 -11.636   3.867  1.00  0.00     0.050 A 
HETATM   22  C   UNL     1      41.654 -12.370   5.029  1.00  0.00     0.058 A 
HETATM   23  C   UNL     1      41.219 -11.904   6.280  1.00  0.00     0.019 A 
HETATM   24  C   UNL     1      40.490 -10.720   6.379  1.00  0.00     0.001 A 
HETATM   25  C   UNL     1      40.227  -9.973   5.233  1.00  0.00     0.002 A 
HETATM   26  C   UNL     1      40.678 -10.418   3.987  1.00  0.00     0.030 A 
BRANCH  22  27
HETATM   27  C   UNL     1      42.637 -13.476   5.067  1.00  0.00     0.254 C 
HETATM   28  N   UNL     1      42.428 -14.446   6.018  1.00  0.00    -0.352 N 
HETATM   29  H   UNL     1      41.562 -14.406   6.559  1.00  0.00     0.163 HD
HETATM   30  O   UNL     1      43.590 -13.448   4.292  1.00  0.00    -0.268 OA
BRANCH  28  31
HETATM   31  C   UNL     1      43.267 -15.594   6.149  1.00  0.00     0.084 A 
HETATM   32  C   UNL     1      44.460 -15.560   7.063  1.00  0.00     0.027 A 
HETATM   33  C   UNL     1      43.267 -16.399   7.420  1.00  0.00     0.027 A 
ENDBRANCH  28  31
ENDBRANCH  22  27
ENDBRANCH   2  21
TORSDOF 8
ENDMDL
