MODEL 1
REMARK VINA RESULT:      -8.1      0.000      0.000
REMARK  2 active torsions:
REMARK  status: ('A' for Active; 'I' for Inactive)
REMARK    1  A    between atoms: C_2  and  C_3 
REMARK    2  A    between atoms: C_3  and  N_4 
ROOT
HETATM    1  N   UNL     1      42.440 -17.125   2.413  1.00  0.00    -0.203 NA
HETATM    2  S   UNL     1      41.103 -16.389   1.660  1.00  0.00     0.219 S 
HETATM    3  O   UNL     1      39.892 -17.097   1.978  1.00  0.00    -0.211 OA
HETATM    4  O   UNL     1      41.498 -16.062   0.307  1.00  0.00    -0.211 OA
HETATM    5  C   UNL     1      41.203 -14.863   2.565  1.00  0.00     0.164 C 
HETATM    6  C   UNL     1      42.523 -14.927   3.338  1.00  0.00     0.116 C 
HETATM    7  O   UNL     1      42.131 -15.194   4.709  1.00  0.00    -0.369 OA
HETATM    8  C   UNL     1      40.964 -14.373   4.902  1.00  0.00     0.149 C 
HETATM    9  C   UNL     1      41.456 -12.916   5.062  1.00  0.00     0.264 C 
HETATM   10  N   UNL     1      42.287 -12.487   3.863  1.00  0.00    -0.070 N 
HETATM   11  H   UNL     1      41.665 -12.165   3.108  1.00  0.00     0.277 HD
HETATM   12  H   UNL     1      42.836 -11.654   4.128  1.00  0.00     0.277 HD
HETATM   13  C   UNL     1      43.239 -13.564   3.357  1.00  0.00     0.273 C 
HETATM   14  C   UNL     1      43.401 -16.064   2.795  1.00  0.00     0.148 C 
HETATM   15  C   UNL     1      40.150 -14.634   3.639  1.00  0.00     0.058 C 
ENDROOT
BRANCH   1  16
HETATM   16  C   UNL     1      43.064 -18.252   1.675  1.00  0.00     0.145 C 
BRANCH  16  17
HETATM   17  C   UNL     1      43.642 -19.330   2.556  1.00  0.00    -0.044 A 
HETATM   18  C   UNL     1      43.943 -19.064   3.901  1.00  0.00     0.010 A 
HETATM   19  C   UNL     1      44.479 -20.062   4.718  1.00  0.00     0.024 A 
HETATM   20  C   UNL     1      44.720 -21.330   4.195  1.00  0.00     0.034 A 
HETATM   21  C   UNL     1      44.432 -21.608   2.860  1.00  0.00     0.024 A 
HETATM   22 CL   UNL     1      45.377 -22.559   5.203  1.00  0.00    -0.084 Cl
HETATM   23  C   UNL     1      43.896 -20.610   2.042  1.00  0.00     0.010 A 
ENDBRANCH  16  17
ENDBRANCH   1  16
TORSDOF 2
ENDMDL
MODEL 2
REMARK VINA RESULT:      -7.7      2.353      3.408
REMARK  2 active torsions:
REMARK  status: ('A' for Active; 'I' for Inactive)
REMARK    1  A    between atoms: C_2  and  C_3 
REMARK    2  A    between atoms: C_3  and  N_4 
ROOT
HETATM    1  N   UNL     1      42.700 -15.552   4.776  1.00  0.00    -0.203 NA
HETATM    2  S   UNL     1      43.477 -14.050   4.579  1.00  0.00     0.219 S 
HETATM    3  O   UNL     1      44.126 -13.982   3.297  1.00  0.00    -0.211 OA
HETATM    4  O   UNL     1      44.150 -13.749   5.824  1.00  0.00    -0.211 OA
HETATM    5  C   UNL     1      41.992 -13.075   4.593  1.00  0.00     0.164 C 
HETATM    6  C   UNL     1      40.870 -14.036   4.994  1.00  0.00     0.116 C 
HETATM    7  O   UNL     1      40.154 -14.295   3.760  1.00  0.00    -0.369 OA
HETATM    8  C   UNL     1      40.107 -13.012   3.109  1.00  0.00     0.149 C 
HETATM    9  C   UNL     1      39.042 -12.168   3.844  1.00  0.00     0.264 C 
HETATM   10  N   UNL     1      39.356 -12.066   5.329  1.00  0.00    -0.070 N 
HETATM   11  H   UNL     1      40.030 -11.304   5.487  1.00  0.00     0.277 HD
HETATM   12  H   UNL     1      38.501 -11.771   5.824  1.00  0.00     0.277 HD
HETATM   13  C   UNL     1      39.858 -13.367   5.942  1.00  0.00     0.273 C 
HETATM   14  C   UNL     1      41.461 -15.336   5.560  1.00  0.00     0.148 C 
HETATM   15  C   UNL     1      41.537 -12.502   3.259  1.00  0.00     0.058 C 
ENDROOT
BRANCH   1  16
HETATM   16  C   UNL     1      43.543 -16.659   5.292  1.00  0.00     0.145 C 
BRANCH  16  17
HETATM   17  C   UNL     1      43.648 -17.846   4.369  1.00  0.00    -0.044 A 
HETATM   18  C   UNL     1      44.361 -18.990   4.760  1.00  0.00     0.010 A 
HETATM   19  C   UNL     1      44.461 -20.090   3.906  1.00  0.00     0.024 A 
HETATM   20  C   UNL     1      43.851 -20.052   2.655  1.00  0.00     0.034 A 
HETATM   21  C   UNL     1      43.145 -18.921   2.249  1.00  0.00     0.024 A 
HETATM   22 CL   UNL     1      43.972 -21.408   1.604  1.00  0.00    -0.084 Cl
HETATM   23  C   UNL     1      43.045 -17.820   3.103  1.00  0.00     0.010 A 
ENDBRANCH  16  17
ENDBRANCH   1  16
TORSDOF 2
ENDMDL
MODEL 3
REMARK VINA RESULT:      -7.7      2.077      3.419
REMARK  2 active torsions:
REMARK  status: ('A' for Active; 'I' for Inactive)
REMARK    1  A    between atoms: C_2  and  C_3 
REMARK    2  A    between atoms: C_3  and  N_4 
ROOT
HETATM    1  N   UNL     1      42.521 -15.961   3.334  1.00  0.00    -0.203 NA
HETATM    2  S   UNL     1      42.771 -14.317   3.697  1.00  0.00     0.219 S 
HETATM    3  O   UNL     1      44.063 -13.889   3.233  1.00  0.00    -0.211 OA
HETATM    4  O   UNL     1      42.302 -14.101   5.049  1.00  0.00    -0.211 OA
HETATM    5  C   UNL     1      41.480 -13.701   2.643  1.00  0.00     0.164 C 
HETATM    6  C   UNL     1      40.708 -14.936   2.170  1.00  0.00     0.116 C 
HETATM    7  O   UNL     1      41.128 -15.123   0.794  1.00  0.00    -0.369 OA
HETATM    8  C   UNL     1      41.184 -13.786   0.263  1.00  0.00     0.149 C 
HETATM    9  C   UNL     1      39.726 -13.332   0.020  1.00  0.00     0.264 C 
HETATM   10  N   UNL     1      38.907 -13.425   1.298  1.00  0.00    -0.070 N 
HETATM   11  H   UNL     1      39.049 -12.576   1.862  1.00  0.00     0.277 HD
HETATM   12  H   UNL     1      37.906 -13.412   1.045  1.00  0.00     0.277 HD
HETATM   13  C   UNL     1      39.191 -14.676   2.121  1.00  0.00     0.273 C 
HETATM   14  C   UNL     1      41.085 -16.156   3.021  1.00  0.00     0.148 C 
HETATM   15  C   UNL     1      41.916 -13.015   1.356  1.00  0.00     0.058 C 
ENDROOT
BRANCH   1  16
HETATM   16  C   UNL     1      43.050 -16.935   4.321  1.00  0.00     0.145 C 
BRANCH  16  17
HETATM   17  C   UNL     1      43.473 -18.255   3.731  1.00  0.00    -0.044 A 
HETATM   18  C   UNL     1      43.106 -18.599   2.420  1.00  0.00     0.010 A 
HETATM   19  C   UNL     1      43.497 -19.822   1.872  1.00  0.00     0.024 A 
HETATM   20  C   UNL     1      44.254 -20.711   2.631  1.00  0.00     0.034 A 
HETATM   21  C   UNL     1      44.620 -20.388   3.936  1.00  0.00     0.024 A 
HETATM   22 CL   UNL     1      44.737 -22.217   1.954  1.00  0.00    -0.084 Cl
HETATM   23  C   UNL     1      44.230 -19.164   4.485  1.00  0.00     0.010 A 
ENDBRANCH  16  17
ENDBRANCH   1  16
TORSDOF 2
ENDMDL
MODEL 4
REMARK VINA RESULT:      -7.4      1.332      1.594
REMARK  2 active torsions:
REMARK  status: ('A' for Active; 'I' for Inactive)
REMARK    1  A    between atoms: C_2  and  C_3 
REMARK    2  A    between atoms: C_3  and  N_4 
ROOT
HETATM    1  N   UNL     1      42.777 -15.768   3.148  1.00  0.00    -0.203 NA
HETATM    2  S   UNL     1      41.116 -16.129   3.235  1.00  0.00     0.219 S 
HETATM    3  O   UNL     1      40.864 -17.095   4.270  1.00  0.00    -0.211 OA
HETATM    4  O   UNL     1      40.638 -16.279   1.877  1.00  0.00    -0.211 OA
HETATM    5  C   UNL     1      40.604 -14.505   3.741  1.00  0.00     0.164 C 
HETATM    6  C   UNL     1      41.846 -13.619   3.607  1.00  0.00     0.116 C 
HETATM    7  O   UNL     1      42.296 -13.414   4.971  1.00  0.00    -0.369 OA
HETATM    8  C   UNL     1      41.078 -13.223   5.714  1.00  0.00     0.149 C 
HETATM    9  C   UNL     1      40.574 -11.796   5.400  1.00  0.00     0.264 C 
HETATM   10  N   UNL     1      40.389 -11.601   3.902  1.00  0.00    -0.070 N 
HETATM   11  H   UNL     1      39.467 -11.960   3.619  1.00  0.00     0.277 HD
HETATM   12  H   UNL     1      40.351 -10.588   3.708  1.00  0.00     0.277 HD
HETATM   13  C   UNL     1      41.495 -12.224   3.060  1.00  0.00     0.273 C 
HETATM   14  C   UNL     1      42.924 -14.339   2.784  1.00  0.00     0.148 C 
HETATM   15  C   UNL     1      40.182 -14.342   5.194  1.00  0.00     0.058 C 
ENDROOT
BRANCH   1  16
HETATM   16  C   UNL     1      43.600 -16.679   2.313  1.00  0.00     0.145 C 
BRANCH  16  17
HETATM   17  C   UNL     1      43.943 -17.990   2.973  1.00  0.00    -0.044 A 
HETATM   18  C   UNL     1      44.236 -18.040   4.345  1.00  0.00     0.010 A 
HETATM   19  C   UNL     1      44.555 -19.254   4.958  1.00  0.00     0.024 A 
HETATM   20  C   UNL     1      44.586 -20.423   4.203  1.00  0.00     0.034 A 
HETATM   21  C   UNL     1      44.304 -20.389   2.839  1.00  0.00     0.024 A 
HETATM   22 CL   UNL     1      44.977 -21.918   4.959  1.00  0.00    -0.084 Cl
HETATM   23  C   UNL     1      43.984 -19.176   2.225  1.00  0.00     0.010 A 
ENDBRANCH  16  17
ENDBRANCH   1  16
TORSDOF 2
ENDMDL
MODEL 5
REMARK VINA RESULT:      -7.0      1.615      2.100
REMARK  2 active torsions:
REMARK  status: ('A' for Active; 'I' for Inactive)
REMARK    1  A    between atoms: C_2  and  C_3 
REMARK    2  A    between atoms: C_3  and  N_4 
ROOT
HETATM    1  N   UNL     1      42.542 -16.321   2.541  1.00  0.00    -0.203 NA
HETATM    2  S   UNL     1      41.327 -16.473   1.358  1.00  0.00     0.219 S 
HETATM    3  O   UNL     1      40.319 -17.406   1.787  1.00  0.00    -0.211 OA
HETATM    4  O   UNL     1      41.987 -16.556   0.073  1.00  0.00    -0.211 OA
HETATM    5  C   UNL     1      40.741 -14.801   1.484  1.00  0.00     0.164 C 
HETATM    6  C   UNL     1      41.749 -14.076   2.380  1.00  0.00     0.116 C 
HETATM    7  O   UNL     1      41.070 -13.935   3.654  1.00  0.00    -0.369 OA
HETATM    8  C   UNL     1      39.719 -13.598   3.292  1.00  0.00     0.149 C 
HETATM    9  C   UNL     1      39.724 -12.118   2.846  1.00  0.00     0.264 C 
HETATM   10  N   UNL     1      40.712 -11.893   1.712  1.00  0.00    -0.070 N 
HETATM   11  H   UNL     1      40.268 -12.133   0.815  1.00  0.00     0.277 HD
HETATM   12  H   UNL     1      40.911 -10.883   1.649  1.00  0.00     0.277 HD
HETATM   13  C   UNL     1      42.026 -12.645   1.884  1.00  0.00     0.273 C 
HETATM   14  C   UNL     1      43.023 -14.919   2.536  1.00  0.00     0.148 C 
HETATM   15  C   UNL     1      39.404 -14.594   2.181  1.00  0.00     0.058 C 
ENDROOT
BRANCH   1  16
HETATM   16  C   UNL     1      43.635 -17.323   2.485  1.00  0.00     0.145 C 
BRANCH  16  17
HETATM   17  C   UNL     1      43.690 -18.253   3.669  1.00  0.00    -0.044 A 
HETATM   18  C   UNL     1      44.415 -19.453   3.598  1.00  0.00     0.010 A 
HETATM   19  C   UNL     1      44.466 -20.317   4.694  1.00  0.00     0.024 A 
HETATM   20  C   UNL     1      43.790 -19.988   5.867  1.00  0.00     0.034 A 
HETATM   21  C   UNL     1      43.061 -18.803   5.951  1.00  0.00     0.024 A 
HETATM   22 CL   UNL     1      43.856 -21.051   7.218  1.00  0.00    -0.084 Cl
HETATM   23  C   UNL     1      43.010 -17.939   4.855  1.00  0.00     0.010 A 
ENDBRANCH  16  17
ENDBRANCH   1  16
TORSDOF 2
ENDMDL
MODEL 6
REMARK VINA RESULT:      -6.9      2.701      3.401
REMARK  2 active torsions:
REMARK  status: ('A' for Active; 'I' for Inactive)
REMARK    1  A    between atoms: C_2  and  C_3 
REMARK    2  A    between atoms: C_3  and  N_4 
ROOT
HETATM    1  N   UNL     1      41.076 -15.661   1.367  1.00  0.00    -0.203 NA
HETATM    2  S   UNL     1      39.866 -14.821   2.220  1.00  0.00     0.219 S 
HETATM    3  O   UNL     1      40.224 -14.693   3.608  1.00  0.00    -0.211 OA
HETATM    4  O   UNL     1      38.590 -15.337   1.775  1.00  0.00    -0.211 OA
HETATM    5  C   UNL     1      40.080 -13.279   1.363  1.00  0.00     0.164 C 
HETATM    6  C   UNL     1      41.033 -13.579   0.203  1.00  0.00     0.116 C 
HETATM    7  O   UNL     1      42.302 -13.010   0.617  1.00  0.00    -0.369 OA
HETATM    8  C   UNL     1      41.937 -11.764   1.239  1.00  0.00     0.149 C 
HETATM    9  C   UNL     1      41.579 -10.778   0.104  1.00  0.00     0.264 C 
HETATM   10  N   UNL     1      40.476 -11.341  -0.780  1.00  0.00    -0.070 N 
HETATM   11  H   UNL     1      39.559 -11.144  -0.356  1.00  0.00     0.277 HD
HETATM   12  H   UNL     1      40.475 -10.820  -1.671  1.00  0.00     0.277 HD
HETATM   13  C   UNL     1      40.626 -12.828  -1.078  1.00  0.00     0.273 C 
HETATM   14  C   UNL     1      41.161 -15.096   0.000  1.00  0.00     0.148 C 
HETATM   15  C   UNL     1      40.765 -12.158   2.132  1.00  0.00     0.058 C 
ENDROOT
BRANCH   1  16
HETATM   16  C   UNL     1      40.980 -17.142   1.391  1.00  0.00     0.145 C 
BRANCH  16  17
HETATM   17  C   UNL     1      42.009 -17.821   2.259  1.00  0.00    -0.044 A 
HETATM   18  C   UNL     1      41.898 -17.779   3.657  1.00  0.00     0.010 A 
HETATM   19  C   UNL     1      42.851 -18.407   4.463  1.00  0.00     0.024 A 
HETATM   20  C   UNL     1      43.922 -19.076   3.875  1.00  0.00     0.034 A 
HETATM   21  C   UNL     1      44.049 -19.120   2.488  1.00  0.00     0.024 A 
HETATM   22 CL   UNL     1      45.094 -19.851   4.868  1.00  0.00    -0.084 Cl
HETATM   23  C   UNL     1      43.097 -18.494   1.682  1.00  0.00     0.010 A 
ENDBRANCH  16  17
ENDBRANCH   1  16
TORSDOF 2
ENDMDL
MODEL 7
REMARK VINA RESULT:      -6.7      4.017      6.066
REMARK  2 active torsions:
REMARK  status: ('A' for Active; 'I' for Inactive)
REMARK    1  A    between atoms: C_2  and  C_3 
REMARK    2  A    between atoms: C_3  and  N_4 
ROOT
HETATM    1  N   UNL     1      41.822 -17.116   3.335  1.00  0.00    -0.203 NA
HETATM    2  S   UNL     1      42.838 -15.782   3.626  1.00  0.00     0.219 S 
HETATM    3  O   UNL     1      42.058 -14.599   3.876  1.00  0.00    -0.211 OA
HETATM    4  O   UNL     1      43.907 -15.835   2.653  1.00  0.00    -0.211 OA
HETATM    5  C   UNL     1      43.537 -16.413   5.133  1.00  0.00     0.164 C 
HETATM    6  C   UNL     1      43.052 -17.861   5.239  1.00  0.00     0.116 C 
HETATM    7  O   UNL     1      42.020 -17.826   6.259  1.00  0.00    -0.369 OA
HETATM    8  C   UNL     1      42.549 -16.934   7.258  1.00  0.00     0.149 C 
HETATM    9  C   UNL     1      43.639 -17.712   8.030  1.00  0.00     0.264 C 
HETATM   10  N   UNL     1      44.707 -18.239   7.084  1.00  0.00    -0.070 N 
HETATM   11  H   UNL     1      45.402 -17.500   6.902  1.00  0.00     0.277 HD
HETATM   12  H   UNL     1      45.232 -18.984   7.567  1.00  0.00     0.277 HD
HETATM   13  C   UNL     1      44.152 -18.793   5.778  1.00  0.00     0.273 C 
HETATM   14  C   UNL     1      42.469 -18.325   3.897  1.00  0.00     0.148 C 
HETATM   15  C   UNL     1      43.070 -15.765   6.429  1.00  0.00     0.058 C 
ENDROOT
BRANCH   1  16
HETATM   16  C   UNL     1      41.358 -17.288   1.936  1.00  0.00     0.145 C 
BRANCH  16  17
HETATM   17  C   UNL     1      40.573 -16.123   1.391  1.00  0.00    -0.044 A 
HETATM   18  C   UNL     1      41.041 -15.408   0.277  1.00  0.00     0.010 A 
HETATM   19  C   UNL     1      40.315 -14.328  -0.229  1.00  0.00     0.024 A 
HETATM   20  C   UNL     1      39.119 -13.954   0.378  1.00  0.00     0.034 A 
HETATM   21  C   UNL     1      38.644 -14.649   1.489  1.00  0.00     0.024 A 
HETATM   22 CL   UNL     1      38.224 -12.624  -0.247  1.00  0.00    -0.084 Cl
HETATM   23  C   UNL     1      39.369 -15.729   1.995  1.00  0.00     0.010 A 
ENDBRANCH  16  17
ENDBRANCH   1  16
TORSDOF 2
ENDMDL
MODEL 8
REMARK VINA RESULT:      -6.7      4.244      5.762
REMARK  2 active torsions:
REMARK  status: ('A' for Active; 'I' for Inactive)
REMARK    1  A    between atoms: C_2  and  C_3 
REMARK    2  A    between atoms: C_3  and  N_4 
ROOT
HETATM    1  N   UNL     1      42.242 -13.923   2.950  1.00  0.00    -0.203 NA
HETATM    2  S   UNL     1      40.943 -13.720   4.031  1.00  0.00     0.219 S 
HETATM    3  O   UNL     1      39.839 -14.564   3.658  1.00  0.00    -0.211 OA
HETATM    4  O   UNL     1      40.807 -12.301   4.277  1.00  0.00    -0.211 OA
HETATM    5  C   UNL     1      41.788 -14.369   5.453  1.00  0.00     0.164 C 
HETATM    6  C   UNL     1      43.248 -14.540   5.024  1.00  0.00     0.116 C 
HETATM    7  O   UNL     1      43.408 -15.969   4.835  1.00  0.00    -0.369 OA
HETATM    8  C   UNL     1      42.673 -16.549   5.928  1.00  0.00     0.149 C 
HETATM    9  C   UNL     1      43.533 -16.367   7.200  1.00  0.00     0.264 C 
HETATM   10  N   UNL     1      43.869 -14.901   7.426  1.00  0.00    -0.070 N 
HETATM   11  H   UNL     1      43.091 -14.441   7.919  1.00  0.00     0.277 HD
HETATM   12  H   UNL     1      44.667 -14.846   8.078  1.00  0.00     0.277 HD
HETATM   13  C   UNL     1      44.222 -14.147   6.150  1.00  0.00     0.273 C 
HETATM   14  C   UNL     1      43.507 -13.787   3.711  1.00  0.00     0.148 C 
HETATM   15  C   UNL     1      41.371 -15.755   5.923  1.00  0.00     0.058 C 
ENDROOT
BRANCH   1  16
HETATM   16  C   UNL     1      42.200 -13.096   1.718  1.00  0.00     0.145 C 
BRANCH  16  17
HETATM   17  C   UNL     1      41.727 -13.831   0.490  1.00  0.00    -0.044 A 
HETATM   18  C   UNL     1      41.742 -15.234   0.450  1.00  0.00     0.010 A 
HETATM   19  C   UNL     1      41.304 -15.916  -0.687  1.00  0.00     0.024 A 
HETATM   20  C   UNL     1      40.852 -15.199  -1.792  1.00  0.00     0.034 A 
HETATM   21  C   UNL     1      40.836 -13.805  -1.771  1.00  0.00     0.024 A 
HETATM   22 CL   UNL     1      40.310 -16.039  -3.192  1.00  0.00    -0.084 Cl
HETATM   23  C   UNL     1      41.274 -13.123  -0.634  1.00  0.00     0.010 A 
ENDBRANCH  16  17
ENDBRANCH   1  16
TORSDOF 2
ENDMDL
MODEL 9
REMARK VINA RESULT:      -6.7      2.184      3.178
REMARK  2 active torsions:
REMARK  status: ('A' for Active; 'I' for Inactive)
REMARK    1  A    between atoms: C_2  and  C_3 
REMARK    2  A    between atoms: C_3  and  N_4 
ROOT
HETATM    1  N   UNL     1      42.797 -16.128   4.400  1.00  0.00    -0.203 NA
HETATM    2  S   UNL     1      41.131 -16.453   4.524  1.00  0.00     0.219 S 
HETATM    3  O   UNL     1      40.480 -15.453   5.327  1.00  0.00    -0.211 OA
HETATM    4  O   UNL     1      40.988 -17.874   4.758  1.00  0.00    -0.211 OA
HETATM    5  C   UNL     1      40.773 -16.218   2.800  1.00  0.00     0.164 C 
HETATM    6  C   UNL     1      42.133 -16.085   2.109  1.00  0.00     0.116 C 
HETATM    7  O   UNL     1      42.256 -14.670   1.817  1.00  0.00    -0.369 OA
HETATM    8  C   UNL     1      40.938 -14.288   1.383  1.00  0.00     0.149 C 
HETATM    9  C   UNL     1      40.760 -14.827  -0.055  1.00  0.00     0.264 C 
HETATM   10  N   UNL     1      40.986 -16.330  -0.107  1.00  0.00    -0.070 N 
HETATM   11  H   UNL     1      40.118 -16.819   0.155  1.00  0.00     0.277 HD
HETATM   12  H   UNL     1      41.158 -16.600  -1.087  1.00  0.00     0.277 HD
HETATM   13  C   UNL     1      42.154 -16.805   0.749  1.00  0.00     0.273 C 
HETATM   14  C   UNL     1      43.254 -16.542   3.053  1.00  0.00     0.148 C 
HETATM   15  C   UNL     1      40.034 -14.942   2.422  1.00  0.00     0.058 C 
ENDROOT
BRANCH   1  16
HETATM   16  C   UNL     1      43.647 -16.649   5.501  1.00  0.00     0.145 C 
BRANCH  16  17
HETATM   17  C   UNL     1      43.947 -18.123   5.413  1.00  0.00    -0.044 A 
HETATM   18  C   UNL     1      43.738 -18.959   6.521  1.00  0.00     0.010 A 
HETATM   19  C   UNL     1      44.016 -20.325   6.441  1.00  0.00     0.024 A 
HETATM   20  C   UNL     1      44.507 -20.863   5.254  1.00  0.00     0.034 A 
HETATM   21  C   UNL     1      44.726 -20.046   4.147  1.00  0.00     0.024 A 
HETATM   22 CL   UNL     1      44.847 -22.547   5.156  1.00  0.00    -0.084 Cl
HETATM   23  C   UNL     1      44.448 -18.679   4.226  1.00  0.00     0.010 A 
ENDBRANCH  16  17
ENDBRANCH   1  16
TORSDOF 2
ENDMDL
MODEL 10
REMARK VINA RESULT:      -6.6      3.225      4.067
REMARK  2 active torsions:
REMARK  status: ('A' for Active; 'I' for Inactive)
REMARK    1  A    between atoms: C_2  and  C_3 
REMARK    2  A    between atoms: C_3  and  N_4 
ROOT
HETATM    1  N   UNL     1      41.320 -15.472   2.389  1.00  0.00    -0.203 NA
HETATM    2  S   UNL     1      39.819 -14.674   2.466  1.00  0.00     0.219 S 
HETATM    3  O   UNL     1      39.634 -14.068   3.757  1.00  0.00    -0.211 OA
HETATM    4  O   UNL     1      38.839 -15.544   1.851  1.00  0.00    -0.211 OA
HETATM    5  C   UNL     1      40.203 -13.449   1.237  1.00  0.00     0.164 C 
HETATM    6  C   UNL     1      41.535 -13.886   0.620  1.00  0.00     0.116 C 
HETATM    7  O   UNL     1      42.514 -12.978   1.186  1.00  0.00    -0.369 OA
HETATM    8  C   UNL     1      41.848 -11.702   1.182  1.00  0.00     0.149 C 
HETATM    9  C   UNL     1      41.848 -11.193  -0.277  1.00  0.00     0.264 C 
HETATM   10  N   UNL     1      41.193 -12.203  -1.207  1.00  0.00    -0.070 N 
HETATM   11  H   UNL     1      40.172 -12.075  -1.192  1.00  0.00     0.277 HD
HETATM   12  H   UNL     1      41.474 -11.984  -2.176  1.00  0.00     0.277 HD
HETATM   13  C   UNL     1      41.562 -13.650  -0.901  1.00  0.00     0.273 C 
HETATM   14  C   UNL     1      41.851 -15.336   1.012  1.00  0.00     0.148 C 
HETATM   15  C   UNL     1      40.467 -12.037   1.738  1.00  0.00     0.058 C 
ENDROOT
BRANCH   1  16
HETATM   16  C   UNL     1      41.344 -16.866   2.899  1.00  0.00     0.145 C 
BRANCH  16  17
HETATM   17  C   UNL     1      41.895 -17.011   4.294  1.00  0.00    -0.044 A 
HETATM   18  C   UNL     1      41.054 -16.867   5.409  1.00  0.00     0.010 A 
HETATM   19  C   UNL     1      41.563 -17.001   6.703  1.00  0.00     0.024 A 
HETATM   20  C   UNL     1      42.916 -17.276   6.889  1.00  0.00     0.034 A 
HETATM   21  C   UNL     1      43.764 -17.416   5.793  1.00  0.00     0.024 A 
HETATM   22 CL   UNL     1      43.541 -17.444   8.483  1.00  0.00    -0.084 Cl
HETATM   23  C   UNL     1      43.256 -17.283   4.499  1.00  0.00     0.010 A 
ENDBRANCH  16  17
ENDBRANCH   1  16
TORSDOF 2
ENDMDL
