MODEL 1
REMARK VINA RESULT:      -7.9      0.000      0.000
REMARK  2 active torsions:
REMARK  status: ('A' for Active; 'I' for Inactive)
REMARK    1  A    between atoms: C_2  and  C_3 
REMARK       I    between atoms: C_3  and  N_4 
REMARK    2  A    between atoms: N_4  and  C_5 
ROOT
HETATM    1  C   UNL     1      43.915 -15.348   6.723  1.00  0.00     0.174 A 
HETATM    2  S   UNL     1      43.089 -15.272   5.240  1.00  0.00    -0.050 SA
HETATM    3  C   UNL     1      43.578 -16.882   4.874  1.00  0.00     0.040 A 
HETATM    4  C   UNL     1      44.346 -17.369   5.944  1.00  0.00     0.079 A 
HETATM    5  N   UNL     1      44.523 -16.478   6.990  1.00  0.00    -0.223 NA
HETATM    6  C   UNL     1      43.301 -17.650   3.728  1.00  0.00     0.061 A 
HETATM    7  C   UNL     1      43.840 -18.922   3.715  1.00  0.00     0.106 A 
HETATM    8  C   UNL     1      44.593 -19.418   4.749  1.00  0.00     0.107 A 
HETATM    9  O   UNL     1      45.021 -20.690   4.518  1.00  0.00    -0.323 OA
HETATM   10  C   UNL     1      44.455 -20.936   3.214  1.00  0.00     0.352 A 
HETATM   11  O   UNL     1      43.698 -19.821   2.701  1.00  0.00    -0.323 OA
HETATM   12  C   UNL     1      44.870 -18.679   5.883  1.00  0.00     0.073 A 
ENDROOT
BRANCH   1  13
HETATM   13  N   UNL     1      43.971 -14.305   7.607  1.00  0.00    -0.301 N 
HETATM   14  C   UNL     1      44.947 -13.342   7.724  1.00  0.00     0.264 C 
HETATM   15  O   UNL     1      45.938 -13.252   7.008  1.00  0.00    -0.267 OA
HETATM   16  H   UNL     1      43.189 -14.281   8.249  1.00  0.00     0.171 HD
BRANCH  14  17
HETATM   17  C   UNL     1      44.725 -12.383   8.810  1.00  0.00     0.074 A 
HETATM   18  C   UNL     1      45.574 -12.136   9.878  1.00  0.00     0.027 A 
HETATM   19  C   UNL     1      45.065 -11.147  10.772  1.00  0.00     0.033 A 
HETATM   20  C   UNL     1      43.850 -10.682  10.344  1.00  0.00     0.075 A 
HETATM   21  S   UNL     1      43.317 -11.400   8.909  1.00  0.00    -0.072 SA
HETATM   22 CL   UNL     1      42.880  -9.493  11.112  1.00  0.00    -0.076 Cl
ENDBRANCH  14  17
ENDBRANCH   1  13
TORSDOF 2
ENDMDL
MODEL 2
REMARK VINA RESULT:      -7.5      6.433      8.161
REMARK  2 active torsions:
REMARK  status: ('A' for Active; 'I' for Inactive)
REMARK    1  A    between atoms: C_2  and  C_3 
REMARK       I    between atoms: C_3  and  N_4 
REMARK    2  A    between atoms: N_4  and  C_5 
ROOT
HETATM    1  C   UNL     1      43.060 -17.223   1.265  1.00  0.00     0.174 A 
HETATM    2  S   UNL     1      43.263 -16.729   2.877  1.00  0.00    -0.050 SA
HETATM    3  C   UNL     1      43.727 -18.327   3.320  1.00  0.00     0.040 A 
HETATM    4  C   UNL     1      43.698 -19.133   2.171  1.00  0.00     0.079 A 
HETATM    5  N   UNL     1      43.318 -18.483   1.009  1.00  0.00    -0.223 NA
HETATM    6  C   UNL     1      44.086 -18.824   4.587  1.00  0.00     0.061 A 
HETATM    7  C   UNL     1      44.407 -20.166   4.634  1.00  0.00     0.106 A 
HETATM    8  C   UNL     1      44.386 -20.973   3.525  1.00  0.00     0.107 A 
HETATM    9  O   UNL     1      44.736 -22.257   3.809  1.00  0.00    -0.323 OA
HETATM   10  C   UNL     1      44.973 -22.169   5.228  1.00  0.00     0.352 A 
HETATM   11  O   UNL     1      44.773 -20.843   5.758  1.00  0.00    -0.323 OA
HETATM   12  C   UNL     1      44.040 -20.500   2.273  1.00  0.00     0.073 A 
ENDROOT
BRANCH   1  13
HETATM   13  N   UNL     1      42.642 -16.385   0.267  1.00  0.00    -0.301 N 
HETATM   14  C   UNL     1      41.427 -15.751   0.143  1.00  0.00     0.264 C 
HETATM   15  O   UNL     1      40.509 -15.822   0.954  1.00  0.00    -0.267 OA
HETATM   16  H   UNL     1      43.333 -16.251  -0.459  1.00  0.00     0.171 HD
BRANCH  14  17
HETATM   17  C   UNL     1      41.283 -14.949  -1.074  1.00  0.00     0.074 A 
HETATM   18  C   UNL     1      40.937 -15.414  -2.333  1.00  0.00     0.027 A 
HETATM   19  C   UNL     1      40.891 -14.379  -3.313  1.00  0.00     0.033 A 
HETATM   20  C   UNL     1      41.202 -13.166  -2.757  1.00  0.00     0.075 A 
HETATM   21  S   UNL     1      41.543 -13.249  -1.103  1.00  0.00    -0.072 SA
HETATM   22 CL   UNL     1      41.269 -11.654  -3.566  1.00  0.00    -0.076 Cl
ENDBRANCH  14  17
ENDBRANCH   1  13
TORSDOF 2
ENDMDL
MODEL 3
REMARK VINA RESULT:      -7.2      7.068      9.514
REMARK  2 active torsions:
REMARK  status: ('A' for Active; 'I' for Inactive)
REMARK    1  A    between atoms: C_2  and  C_3 
REMARK       I    between atoms: C_3  and  N_4 
REMARK    2  A    between atoms: N_4  and  C_5 
ROOT
HETATM    1  C   UNL     1      41.573 -16.994   1.296  1.00  0.00     0.174 A 
HETATM    2  S   UNL     1      40.592 -15.979   2.241  1.00  0.00    -0.050 SA
HETATM    3  C   UNL     1      40.308 -14.967   0.877  1.00  0.00     0.040 A 
HETATM    4  C   UNL     1      40.995 -15.500  -0.225  1.00  0.00     0.079 A 
HETATM    5  N   UNL     1      41.708 -16.659   0.035  1.00  0.00    -0.223 NA
HETATM    6  C   UNL     1      39.538 -13.791   0.794  1.00  0.00     0.061 A 
HETATM    7  C   UNL     1      39.502 -13.185  -0.447  1.00  0.00     0.106 A 
HETATM    8  C   UNL     1      40.165 -13.690  -1.536  1.00  0.00     0.107 A 
HETATM    9  O   UNL     1      39.989 -12.927  -2.651  1.00  0.00    -0.323 OA
HETATM   10  C   UNL     1      39.143 -11.880  -2.134  1.00  0.00     0.352 A 
HETATM   11  O   UNL     1      38.824 -12.040  -0.737  1.00  0.00    -0.323 OA
HETATM   12  C   UNL     1      40.921 -14.844  -1.474  1.00  0.00     0.073 A 
ENDROOT
BRANCH   1  13
HETATM   13  N   UNL     1      42.209 -18.101   1.791  1.00  0.00    -0.301 N 
HETATM   14  C   UNL     1      43.562 -18.321   1.907  1.00  0.00     0.264 C 
HETATM   15  O   UNL     1      44.436 -17.518   1.600  1.00  0.00    -0.267 OA
HETATM   16  H   UNL     1      41.573 -18.831   2.082  1.00  0.00     0.171 HD
BRANCH  14  17
HETATM   17  C   UNL     1      43.918 -19.637   2.444  1.00  0.00     0.074 A 
HETATM   18  C   UNL     1      43.825 -20.851   1.780  1.00  0.00     0.027 A 
HETATM   19  C   UNL     1      44.241 -21.954   2.584  1.00  0.00     0.033 A 
HETATM   20  C   UNL     1      44.635 -21.532   3.826  1.00  0.00     0.075 A 
HETATM   21  S   UNL     1      44.516 -19.859   4.041  1.00  0.00    -0.072 SA
HETATM   22 CL   UNL     1      45.206 -22.517   5.110  1.00  0.00    -0.076 Cl
ENDBRANCH  14  17
ENDBRANCH   1  13
TORSDOF 2
ENDMDL
MODEL 4
REMARK VINA RESULT:      -7.1      6.170      9.188
REMARK  2 active torsions:
REMARK  status: ('A' for Active; 'I' for Inactive)
REMARK    1  A    between atoms: C_2  and  C_3 
REMARK       I    between atoms: C_3  and  N_4 
REMARK    2  A    between atoms: N_4  and  C_5 
ROOT
HETATM    1  C   UNL     1      41.377 -16.558   2.986  1.00  0.00     0.174 A 
HETATM    2  S   UNL     1      41.705 -15.134   3.853  1.00  0.00    -0.050 SA
HETATM    3  C   UNL     1      40.416 -14.331   3.041  1.00  0.00     0.040 A 
HETATM    4  C   UNL     1      39.814 -15.238   2.154  1.00  0.00     0.079 A 
HETATM    5  N   UNL     1      40.376 -16.504   2.141  1.00  0.00    -0.223 NA
HETATM    6  C   UNL     1      39.977 -13.001   3.180  1.00  0.00     0.061 A 
HETATM    7  C   UNL     1      38.910 -12.636   2.381  1.00  0.00     0.106 A 
HETATM    8  C   UNL     1      38.307 -13.506   1.509  1.00  0.00     0.107 A 
HETATM    9  O   UNL     1      37.281 -12.929   0.825  1.00  0.00    -0.323 OA
HETATM   10  C   UNL     1      37.312 -11.591   1.363  1.00  0.00     0.352 A 
HETATM   11  O   UNL     1      38.339 -11.400   2.357  1.00  0.00    -0.323 OA
HETATM   12  C   UNL     1      38.723 -14.815   1.363  1.00  0.00     0.073 A 
ENDROOT
BRANCH   1  13
HETATM   13  N   UNL     1      42.102 -17.710   3.129  1.00  0.00    -0.301 N 
HETATM   14  C   UNL     1      43.045 -18.232   2.273  1.00  0.00     0.264 C 
HETATM   15  O   UNL     1      43.412 -17.709   1.226  1.00  0.00    -0.267 OA
HETATM   16  H   UNL     1      41.879 -18.222   3.972  1.00  0.00     0.171 HD
BRANCH  14  17
HETATM   17  C   UNL     1      43.611 -19.513   2.703  1.00  0.00     0.074 A 
HETATM   18  C   UNL     1      43.748 -20.656   1.930  1.00  0.00     0.027 A 
HETATM   19  C   UNL     1      44.329 -21.743   2.647  1.00  0.00     0.033 A 
HETATM   20  C   UNL     1      44.611 -21.381   3.937  1.00  0.00     0.075 A 
HETATM   21  S   UNL     1      44.198 -19.782   4.297  1.00  0.00    -0.072 SA
HETATM   22 CL   UNL     1      45.313 -22.373   5.150  1.00  0.00    -0.076 Cl
ENDBRANCH  14  17
ENDBRANCH   1  13
TORSDOF 2
ENDMDL
MODEL 5
REMARK VINA RESULT:      -7.1      6.268      8.814
REMARK  2 active torsions:
REMARK  status: ('A' for Active; 'I' for Inactive)
REMARK    1  A    between atoms: C_2  and  C_3 
REMARK       I    between atoms: C_3  and  N_4 
REMARK    2  A    between atoms: N_4  and  C_5 
ROOT
HETATM    1  C   UNL     1      41.593 -16.897   1.397  1.00  0.00     0.174 A 
HETATM    2  S   UNL     1      43.058 -17.756   1.379  1.00  0.00    -0.050 SA
HETATM    3  C   UNL     1      43.033 -17.854   3.098  1.00  0.00     0.040 A 
HETATM    4  C   UNL     1      41.874 -17.215   3.565  1.00  0.00     0.079 A 
HETATM    5  N   UNL     1      41.064 -16.678   2.577  1.00  0.00    -0.223 NA
HETATM    6  C   UNL     1      43.971 -18.450   3.962  1.00  0.00     0.061 A 
HETATM    7  C   UNL     1      43.681 -18.365   5.310  1.00  0.00     0.106 A 
HETATM    8  C   UNL     1      42.554 -17.745   5.788  1.00  0.00     0.107 A 
HETATM    9  O   UNL     1      42.478 -17.780   7.147  1.00  0.00    -0.323 OA
HETATM   10  C   UNL     1      43.692 -18.487   7.471  1.00  0.00     0.352 A 
HETATM   11  O   UNL     1      44.458 -18.868   6.310  1.00  0.00    -0.323 OA
HETATM   12  C   UNL     1      41.622 -17.159   4.954  1.00  0.00     0.073 A 
ENDROOT
BRANCH   1  13
HETATM   13  N   UNL     1      40.976 -16.436   0.266  1.00  0.00    -0.301 N 
HETATM   14  C   UNL     1      41.157 -15.228  -0.368  1.00  0.00     0.264 C 
HETATM   15  O   UNL     1      41.948 -14.360  -0.017  1.00  0.00    -0.267 OA
HETATM   16  H   UNL     1      40.299 -17.084  -0.114  1.00  0.00     0.171 HD
BRANCH  14  17
HETATM   17  C   UNL     1      40.305 -15.026  -1.543  1.00  0.00     0.074 A 
HETATM   18  C   UNL     1      40.490 -15.578  -2.801  1.00  0.00     0.027 A 
HETATM   19  C   UNL     1      39.489 -15.177  -3.734  1.00  0.00     0.033 A 
HETATM   20  C   UNL     1      38.581 -14.337  -3.146  1.00  0.00     0.075 A 
HETATM   21  S   UNL     1      38.905 -14.026  -1.515  1.00  0.00    -0.072 SA
HETATM   22 CL   UNL     1      37.216 -13.614  -3.895  1.00  0.00    -0.076 Cl
ENDBRANCH  14  17
ENDBRANCH   1  13
TORSDOF 2
ENDMDL
MODEL 6
REMARK VINA RESULT:      -7.0      6.407      8.400
REMARK  2 active torsions:
REMARK  status: ('A' for Active; 'I' for Inactive)
REMARK    1  A    between atoms: C_2  and  C_3 
REMARK       I    between atoms: C_3  and  N_4 
REMARK    2  A    between atoms: N_4  and  C_5 
ROOT
HETATM    1  C   UNL     1      41.072 -16.394   1.519  1.00  0.00     0.174 A 
HETATM    2  S   UNL     1      41.192 -16.144   3.194  1.00  0.00    -0.050 SA
HETATM    3  C   UNL     1      42.284 -17.470   3.324  1.00  0.00     0.040 A 
HETATM    4  C   UNL     1      42.484 -18.009   2.043  1.00  0.00     0.079 A 
HETATM    5  N   UNL     1      41.786 -17.377   1.027  1.00  0.00    -0.223 NA
HETATM    6  C   UNL     1      42.910 -17.990   4.472  1.00  0.00     0.061 A 
HETATM    7  C   UNL     1      43.738 -19.075   4.263  1.00  0.00     0.106 A 
HETATM    8  C   UNL     1      43.949 -19.617   3.020  1.00  0.00     0.107 A 
HETATM    9  O   UNL     1      44.800 -20.679   3.054  1.00  0.00    -0.323 OA
HETATM   10  C   UNL     1      45.095 -20.748   4.464  1.00  0.00     0.352 A 
HETATM   11  O   UNL     1      44.431 -19.729   5.237  1.00  0.00    -0.323 OA
HETATM   12  C   UNL     1      43.346 -19.116   1.883  1.00  0.00     0.073 A 
ENDROOT
BRANCH   1  13
HETATM   13  N   UNL     1      40.279 -15.636   0.700  1.00  0.00    -0.301 N 
HETATM   14  C   UNL     1      40.665 -14.662  -0.193  1.00  0.00     0.264 C 
HETATM   15  O   UNL     1      41.824 -14.333  -0.418  1.00  0.00    -0.267 OA
HETATM   16  H   UNL     1      39.293 -15.834   0.802  1.00  0.00     0.171 HD
BRANCH  14  17
HETATM   17  C   UNL     1      39.556 -14.006  -0.891  1.00  0.00     0.074 A 
HETATM   18  C   UNL     1      38.601 -13.175  -0.326  1.00  0.00     0.027 A 
HETATM   19  C   UNL     1      37.647 -12.703  -1.275  1.00  0.00     0.033 A 
HETATM   20  C   UNL     1      37.918 -13.194  -2.525  1.00  0.00     0.075 A 
HETATM   21  S   UNL     1      39.278 -14.197  -2.578  1.00  0.00    -0.072 SA
HETATM   22 CL   UNL     1      37.030 -12.887  -3.961  1.00  0.00    -0.076 Cl
ENDBRANCH  14  17
ENDBRANCH   1  13
TORSDOF 2
ENDMDL
MODEL 7
REMARK VINA RESULT:      -6.9      5.337      8.698
REMARK  2 active torsions:
REMARK  status: ('A' for Active; 'I' for Inactive)
REMARK    1  A    between atoms: C_2  and  C_3 
REMARK       I    between atoms: C_3  and  N_4 
REMARK    2  A    between atoms: N_4  and  C_5 
ROOT
HETATM    1  C   UNL     1      41.796 -15.839   4.695  1.00  0.00     0.174 A 
HETATM    2  S   UNL     1      40.605 -15.690   5.896  1.00  0.00    -0.050 SA
HETATM    3  C   UNL     1      40.511 -13.995   5.607  1.00  0.00     0.040 A 
HETATM    4  C   UNL     1      41.414 -13.667   4.584  1.00  0.00     0.079 A 
HETATM    5  N   UNL     1      42.135 -14.735   4.075  1.00  0.00    -0.223 NA
HETATM    6  C   UNL     1      39.701 -13.034   6.241  1.00  0.00     0.061 A 
HETATM    7  C   UNL     1      39.851 -11.736   5.795  1.00  0.00     0.106 A 
HETATM    8  C   UNL     1      40.727 -11.393   4.796  1.00  0.00     0.107 A 
HETATM    9  O   UNL     1      40.709 -10.059   4.524  1.00  0.00    -0.323 OA
HETATM   10  C   UNL     1      39.724  -9.600   5.472  1.00  0.00     0.352 A 
HETATM   11  O   UNL     1      39.170 -10.660   6.278  1.00  0.00    -0.323 OA
HETATM   12  C   UNL     1      41.526 -12.324   4.161  1.00  0.00     0.073 A 
ENDROOT
BRANCH   1  13
HETATM   13  N   UNL     1      42.397 -17.026   4.374  1.00  0.00    -0.301 N 
HETATM   14  C   UNL     1      43.533 -17.578   4.920  1.00  0.00     0.264 C 
HETATM   15  O   UNL     1      44.188 -17.085   5.832  1.00  0.00    -0.267 OA
HETATM   16  H   UNL     1      41.930 -17.523   3.627  1.00  0.00     0.171 HD
BRANCH  14  17
HETATM   17  C   UNL     1      43.938 -18.852   4.319  1.00  0.00     0.074 A 
HETATM   18  C   UNL     1      44.725 -19.829   4.908  1.00  0.00     0.027 A 
HETATM   19  C   UNL     1      44.947 -20.950   4.054  1.00  0.00     0.033 A 
HETATM   20  C   UNL     1      44.318 -20.779   2.850  1.00  0.00     0.075 A 
HETATM   21  S   UNL     1      43.476 -19.317   2.729  1.00  0.00    -0.072 SA
HETATM   22 CL   UNL     1      44.319 -21.873   1.528  1.00  0.00    -0.076 Cl
ENDBRANCH  14  17
ENDBRANCH   1  13
TORSDOF 2
ENDMDL
MODEL 8
REMARK VINA RESULT:      -6.8      3.823      4.136
REMARK  2 active torsions:
REMARK  status: ('A' for Active; 'I' for Inactive)
REMARK    1  A    between atoms: C_2  and  C_3 
REMARK       I    between atoms: C_3  and  N_4 
REMARK    2  A    between atoms: N_4  and  C_5 
ROOT
HETATM    1  C   UNL     1      42.789 -16.061   4.449  1.00  0.00     0.174 A 
HETATM    2  S   UNL     1      43.671 -16.952   5.594  1.00  0.00    -0.050 SA
HETATM    3  C   UNL     1      43.786 -18.272   4.494  1.00  0.00     0.040 A 
HETATM    4  C   UNL     1      43.132 -17.918   3.304  1.00  0.00     0.079 A 
HETATM    5  N   UNL     1      42.573 -16.650   3.298  1.00  0.00    -0.223 NA
HETATM    6  C   UNL     1      44.406 -19.523   4.676  1.00  0.00     0.061 A 
HETATM    7  C   UNL     1      44.328 -20.391   3.605  1.00  0.00     0.106 A 
HETATM    8  C   UNL     1      43.695 -20.065   2.432  1.00  0.00     0.107 A 
HETATM    9  O   UNL     1      43.741 -21.074   1.519  1.00  0.00    -0.323 OA
HETATM   10  C   UNL     1      44.472 -22.076   2.255  1.00  0.00     0.352 A 
HETATM   11  O   UNL     1      44.854 -21.647   3.577  1.00  0.00    -0.323 OA
HETATM   12  C   UNL     1      43.085 -18.841   2.235  1.00  0.00     0.073 A 
ENDROOT
BRANCH   1  13
HETATM   13  N   UNL     1      42.307 -14.801   4.684  1.00  0.00    -0.301 N 
HETATM   14  C   UNL     1      41.258 -14.431   5.494  1.00  0.00     0.264 C 
HETATM   15  O   UNL     1      40.589 -15.199   6.176  1.00  0.00    -0.267 OA
HETATM   16  H   UNL     1      42.797 -14.082   4.168  1.00  0.00     0.171 HD
BRANCH  14  17
HETATM   17  C   UNL     1      40.970 -12.994   5.493  1.00  0.00     0.074 A 
HETATM   18  C   UNL     1      41.683 -12.010   4.825  1.00  0.00     0.027 A 
HETATM   19  C   UNL     1      41.151 -10.703   5.035  1.00  0.00     0.033 A 
HETATM   20  C   UNL     1      40.054 -10.748   5.853  1.00  0.00     0.075 A 
HETATM   21  S   UNL     1      39.656 -12.309   6.366  1.00  0.00    -0.072 SA
HETATM   22 CL   UNL     1      39.105  -9.414   6.370  1.00  0.00    -0.076 Cl
ENDBRANCH  14  17
ENDBRANCH   1  13
TORSDOF 2
ENDMDL
MODEL 9
REMARK VINA RESULT:      -6.7      5.840      6.934
REMARK  2 active torsions:
REMARK  status: ('A' for Active; 'I' for Inactive)
REMARK    1  A    between atoms: C_2  and  C_3 
REMARK       I    between atoms: C_3  and  N_4 
REMARK    2  A    between atoms: N_4  and  C_5 
ROOT
HETATM    1  C   UNL     1      40.818 -16.317   2.123  1.00  0.00     0.174 A 
HETATM    2  S   UNL     1      41.598 -17.227   0.920  1.00  0.00    -0.050 SA
HETATM    3  C   UNL     1      42.466 -18.097   2.126  1.00  0.00     0.040 A 
HETATM    4  C   UNL     1      42.077 -17.619   3.387  1.00  0.00     0.079 A 
HETATM    5  N   UNL     1      41.132 -16.606   3.363  1.00  0.00    -0.223 NA
HETATM    6  C   UNL     1      43.419 -19.120   1.964  1.00  0.00     0.061 A 
HETATM    7  C   UNL     1      43.956 -19.629   3.130  1.00  0.00     0.106 A 
HETATM    8  C   UNL     1      43.589 -19.178   4.373  1.00  0.00     0.107 A 
HETATM    9  O   UNL     1      44.249 -19.821   5.375  1.00  0.00    -0.323 OA
HETATM   10  C   UNL     1      45.079 -20.726   4.619  1.00  0.00     0.352 A 
HETATM   11  O   UNL     1      44.894 -20.615   3.194  1.00  0.00    -0.323 OA
HETATM   12  C   UNL     1      42.653 -18.177   4.550  1.00  0.00     0.073 A 
ENDROOT
BRANCH   1  13
HETATM   13  N   UNL     1      39.914 -15.326   1.851  1.00  0.00    -0.301 N 
HETATM   14  C   UNL     1      40.128 -13.967   1.819  1.00  0.00     0.264 C 
HETATM   15  O   UNL     1      41.209 -13.419   2.009  1.00  0.00    -0.267 OA
HETATM   16  H   UNL     1      38.981 -15.672   1.672  1.00  0.00     0.171 HD
BRANCH  14  17
HETATM   17  C   UNL     1      38.932 -13.171   1.533  1.00  0.00     0.074 A 
HETATM   18  C   UNL     1      37.938 -13.475   0.615  1.00  0.00     0.027 A 
HETATM   19  C   UNL     1      36.909 -12.490   0.566  1.00  0.00     0.033 A 
HETATM   20  C   UNL     1      37.161 -11.476   1.452  1.00  0.00     0.075 A 
HETATM   21  S   UNL     1      38.592 -11.685   2.329  1.00  0.00    -0.072 SA
HETATM   22 CL   UNL     1      36.191 -10.087   1.724  1.00  0.00    -0.076 Cl
ENDBRANCH  14  17
ENDBRANCH   1  13
TORSDOF 2
ENDMDL
MODEL 10
REMARK VINA RESULT:      -6.6      6.200      8.527
REMARK  2 active torsions:
REMARK  status: ('A' for Active; 'I' for Inactive)
REMARK    1  A    between atoms: C_2  and  C_3 
REMARK       I    between atoms: C_3  and  N_4 
REMARK    2  A    between atoms: N_4  and  C_5 
ROOT
HETATM    1  C   UNL     1      41.437 -16.517   1.617  1.00  0.00     0.174 A 
HETATM    2  S   UNL     1      40.322 -15.313   2.054  1.00  0.00    -0.050 SA
HETATM    3  C   UNL     1      40.208 -14.808   0.411  1.00  0.00     0.040 A 
HETATM    4  C   UNL     1      41.045 -15.624  -0.365  1.00  0.00     0.079 A 
HETATM    5  N   UNL     1      41.735 -16.596   0.342  1.00  0.00    -0.223 NA
HETATM    6  C   UNL     1      39.437 -13.768  -0.142  1.00  0.00     0.061 A 
HETATM    7  C   UNL     1      39.558 -13.595  -1.507  1.00  0.00     0.106 A 
HETATM    8  C   UNL     1      40.370 -14.381  -2.284  1.00  0.00     0.107 A 
HETATM    9  O   UNL     1      40.333 -14.027  -3.599  1.00  0.00    -0.323 OA
HETATM   10  C   UNL     1      39.408 -12.921  -3.558  1.00  0.00     0.352 A 
HETATM   11  O   UNL     1      38.907 -12.645  -2.234  1.00  0.00    -0.323 OA
HETATM   12  C   UNL     1      41.129 -15.408  -1.758  1.00  0.00     0.073 A 
ENDROOT
BRANCH   1  13
HETATM   13  N   UNL     1      42.018 -17.367   2.518  1.00  0.00    -0.301 N 
HETATM   14  C   UNL     1      43.012 -17.089   3.429  1.00  0.00     0.264 C 
HETATM   15  O   UNL     1      43.526 -15.989   3.597  1.00  0.00    -0.267 OA
HETATM   16  H   UNL     1      41.660 -18.311   2.468  1.00  0.00     0.171 HD
BRANCH  14  17
HETATM   17  C   UNL     1      43.444 -18.241   4.225  1.00  0.00     0.074 A 
HETATM   18  C   UNL     1      44.317 -19.240   3.824  1.00  0.00     0.027 A 
HETATM   19  C   UNL     1      44.527 -20.229   4.830  1.00  0.00     0.033 A 
HETATM   20  C   UNL     1      43.805 -19.939   5.958  1.00  0.00     0.075 A 
HETATM   21  S   UNL     1      42.893 -18.521   5.830  1.00  0.00    -0.072 SA
HETATM   22 CL   UNL     1      43.757 -20.855   7.408  1.00  0.00    -0.076 Cl
ENDBRANCH  14  17
ENDBRANCH   1  13
TORSDOF 2
ENDMDL
