MODEL 1
REMARK VINA RESULT:      -7.7      0.000      0.000
REMARK  9 active torsions:
REMARK  status: ('A' for Active; 'I' for Inactive)
REMARK    1  A    between atoms: C_3  and  C_4 
REMARK       I    between atoms: C_4  and  N_5 
REMARK    2  A    between atoms: N_5  and  N_6 
REMARK    3  A    between atoms: N_6  and  C_7 
REMARK    4  A    between atoms: C_7  and  N_8 
REMARK    5  A    between atoms: N_8  and  C_9 
REMARK    6  A    between atoms: C_9  and  C_10 
REMARK    7  A    between atoms: C_18  and  C_19 
REMARK    8  A    between atoms: C_19  and  O_20 
REMARK    9  A    between atoms: O_20  and  C_21 
ROOT
HETATM    1  C   UNL     1      44.450 -12.279   8.392  1.00  0.00     0.069 A 
HETATM    2  C   UNL     1      45.394 -12.347   9.420  1.00  0.00     0.038 A 
HETATM    3  C   UNL     1      45.167 -11.680  10.629  1.00  0.00     0.025 A 
HETATM    4  C   UNL     1      43.997 -10.939  10.819  1.00  0.00     0.044 A 
HETATM    5  C   UNL     1      43.768 -10.259  12.060  1.00  0.00     0.099 C 
HETATM    6  N   UNL     1      43.591  -9.713  13.069  1.00  0.00    -0.191 NA
HETATM    7  C   UNL     1      43.052 -10.870   9.793  1.00  0.00     0.025 A 
HETATM    8  C   UNL     1      43.281 -11.539   8.587  1.00  0.00     0.038 A 
ENDROOT
BRANCH   1   9
HETATM    9  O   UNL     1      44.546 -12.885   7.169  1.00  0.00    -0.347 OA
BRANCH   9  10
HETATM   10  C   UNL     1      44.942 -14.253   7.165  1.00  0.00     0.214 C 
BRANCH  10  11
HETATM   11  C   UNL     1      43.743 -15.126   6.886  1.00  0.00    -0.033 A 
HETATM   12  C   UNL     1      42.721 -14.673   6.034  1.00  0.00     0.026 A 
HETATM   13  C   UNL     1      41.549 -15.420   5.872  1.00  0.00     0.034 A 
HETATM   14  C   UNL     1      41.448 -16.675   6.490  1.00  0.00     0.017 A 
HETATM   15  C   UNL     1      42.482 -17.158   7.291  1.00  0.00     0.002 A 
HETATM   16  C   UNL     1      43.619 -16.381   7.499  1.00  0.00     0.009 A 
BRANCH  13  17
HETATM   17  C   UNL     1      40.402 -14.979   5.037  1.00  0.00     0.270 C 
HETATM   18  N   UNL     1      40.051 -15.623   3.869  1.00  0.00    -0.264 N 
HETATM   19  H   UNL     1      39.299 -15.180   3.341  1.00  0.00     0.190 HD
HETATM   20  O   UNL     1      39.761 -13.989   5.392  1.00  0.00    -0.266 OA
BRANCH  18  21
HETATM   21  N   UNL     1      40.781 -16.598   3.183  1.00  0.00    -0.274 N 
HETATM   22  H   UNL     1      41.121 -17.411   3.701  1.00  0.00     0.189 HD
BRANCH  21  23
HETATM   23  C   UNL     1      41.505 -16.259   2.066  1.00  0.00     0.186 C 
HETATM   24  S   UNL     1      41.609 -14.732   1.393  1.00  0.00    -0.040 SA
BRANCH  23  25
HETATM   25  N   UNL     1      42.144 -17.288   1.430  1.00  0.00    -0.364 N 
HETATM   26  H   UNL     1      42.049 -17.258   0.421  1.00  0.00     0.162 HD
BRANCH  25  27
HETATM   27  C   UNL     1      42.493 -18.574   2.027  1.00  0.00     0.154 C 
BRANCH  27  28
HETATM   28  C   UNL     1      43.904 -18.637   2.628  1.00  0.00     0.139 C 
HETATM   29  O   UNL     1      44.407 -19.989   2.580  1.00  0.00    -0.384 OA
HETATM   30  C   UNL     1      44.866 -20.341   3.893  1.00  0.00     0.168 C 
HETATM   31  C   UNL     1      44.109 -19.454   4.854  1.00  0.00     0.029 C 
HETATM   32  C   UNL     1      43.992 -18.169   4.074  1.00  0.00     0.035 C 
ENDBRANCH  27  28
ENDBRANCH  25  27
ENDBRANCH  23  25
ENDBRANCH  21  23
ENDBRANCH  18  21
ENDBRANCH  13  17
ENDBRANCH  10  11
ENDBRANCH   9  10
ENDBRANCH   1   9
TORSDOF 9
ENDMDL
MODEL 2
REMARK VINA RESULT:      -7.6      3.694      7.482
REMARK  9 active torsions:
REMARK  status: ('A' for Active; 'I' for Inactive)
REMARK    1  A    between atoms: C_3  and  C_4 
REMARK       I    between atoms: C_4  and  N_5 
REMARK    2  A    between atoms: N_5  and  N_6 
REMARK    3  A    between atoms: N_6  and  C_7 
REMARK    4  A    between atoms: C_7  and  N_8 
REMARK    5  A    between atoms: N_8  and  C_9 
REMARK    6  A    between atoms: C_9  and  C_10 
REMARK    7  A    between atoms: C_18  and  C_19 
REMARK    8  A    between atoms: C_19  and  O_20 
REMARK    9  A    between atoms: O_20  and  C_21 
ROOT
HETATM    1  C   UNL     1      44.441 -19.014   5.561  1.00  0.00     0.069 A 
HETATM    2  C   UNL     1      44.603 -20.393   5.709  1.00  0.00     0.038 A 
HETATM    3  C   UNL     1      44.546 -21.233   4.590  1.00  0.00     0.025 A 
HETATM    4  C   UNL     1      44.326 -20.699   3.317  1.00  0.00     0.044 A 
HETATM    5  C   UNL     1      44.270 -21.563   2.174  1.00  0.00     0.099 C 
HETATM    6  N   UNL     1      44.228 -22.270   1.253  1.00  0.00    -0.191 NA
HETATM    7  C   UNL     1      44.163 -19.321   3.167  1.00  0.00     0.025 A 
HETATM    8  C   UNL     1      44.222 -18.485   4.286  1.00  0.00     0.038 A 
ENDROOT
BRANCH   1   9
HETATM    9  O   UNL     1      44.478 -18.086   6.566  1.00  0.00    -0.347 OA
BRANCH   9  10
HETATM   10  C   UNL     1      43.222 -17.621   7.050  1.00  0.00     0.214 C 
BRANCH  10  11
HETATM   11  C   UNL     1      42.929 -16.259   6.470  1.00  0.00    -0.033 A 
HETATM   12  C   UNL     1      41.672 -15.986   5.904  1.00  0.00     0.026 A 
HETATM   13  C   UNL     1      41.437 -14.772   5.250  1.00  0.00     0.034 A 
HETATM   14  C   UNL     1      42.437 -13.788   5.255  1.00  0.00     0.017 A 
HETATM   15  C   UNL     1      43.667 -14.029   5.864  1.00  0.00     0.002 A 
HETATM   16  C   UNL     1      43.917 -15.264   6.458  1.00  0.00     0.009 A 
BRANCH  13  17
HETATM   17  C   UNL     1      40.155 -14.434   4.578  1.00  0.00     0.270 C 
HETATM   18  N   UNL     1      39.628 -15.209   3.567  1.00  0.00    -0.264 N 
HETATM   19  H   UNL     1      38.788 -14.833   3.127  1.00  0.00     0.190 HD
HETATM   20  O   UNL     1      39.560 -13.413   4.923  1.00  0.00    -0.266 OA
BRANCH  18  21
HETATM   21  N   UNL     1      40.255 -16.254   2.880  1.00  0.00    -0.274 N 
HETATM   22  H   UNL     1      40.509 -17.097   3.397  1.00  0.00     0.189 HD
BRANCH  21  23
HETATM   23  C   UNL     1      41.010 -15.989   1.763  1.00  0.00     0.186 C 
HETATM   24  S   UNL     1      42.677 -16.073   1.666  1.00  0.00    -0.040 SA
BRANCH  23  25
HETATM   25  N   UNL     1      40.321 -15.566   0.660  1.00  0.00    -0.364 N 
HETATM   26  H   UNL     1      39.943 -16.327   0.105  1.00  0.00     0.162 HD
BRANCH  25  27
HETATM   27  C   UNL     1      40.481 -14.276  -0.003  1.00  0.00     0.154 C 
BRANCH  27  28
HETATM   28  C   UNL     1      41.174 -14.343  -1.371  1.00  0.00     0.139 C 
HETATM   29  O   UNL     1      40.647 -13.325  -2.248  1.00  0.00    -0.384 OA
HETATM   30  C   UNL     1      40.261 -13.953  -3.479  1.00  0.00     0.168 C 
HETATM   31  C   UNL     1      39.992 -15.402  -3.146  1.00  0.00     0.029 C 
HETATM   32  C   UNL     1      41.026 -15.680  -2.085  1.00  0.00     0.035 C 
ENDBRANCH  27  28
ENDBRANCH  25  27
ENDBRANCH  23  25
ENDBRANCH  21  23
ENDBRANCH  18  21
ENDBRANCH  13  17
ENDBRANCH  10  11
ENDBRANCH   9  10
ENDBRANCH   1   9
TORSDOF 9
ENDMDL
MODEL 3
REMARK VINA RESULT:      -7.6      3.335     10.086
REMARK  9 active torsions:
REMARK  status: ('A' for Active; 'I' for Inactive)
REMARK    1  A    between atoms: C_3  and  C_4 
REMARK       I    between atoms: C_4  and  N_5 
REMARK    2  A    between atoms: N_5  and  N_6 
REMARK    3  A    between atoms: N_6  and  C_7 
REMARK    4  A    between atoms: C_7  and  N_8 
REMARK    5  A    between atoms: N_8  and  C_9 
REMARK    6  A    between atoms: C_9  and  C_10 
REMARK    7  A    between atoms: C_18  and  C_19 
REMARK    8  A    between atoms: C_19  and  O_20 
REMARK    9  A    between atoms: O_20  and  C_21 
ROOT
HETATM    1  C   UNL     1      44.565 -19.458   5.506  1.00  0.00     0.069 A 
HETATM    2  C   UNL     1      44.320 -18.828   4.284  1.00  0.00     0.038 A 
HETATM    3  C   UNL     1      44.221 -19.584   3.110  1.00  0.00     0.025 A 
HETATM    4  C   UNL     1      44.368 -20.974   3.150  1.00  0.00     0.044 A 
HETATM    5  C   UNL     1      44.263 -21.744   1.946  1.00  0.00     0.099 C 
HETATM    6  N   UNL     1      44.176 -22.360   0.965  1.00  0.00    -0.191 NA
HETATM    7  C   UNL     1      44.613 -21.605   4.371  1.00  0.00     0.025 A 
HETATM    8  C   UNL     1      44.710 -20.847   5.542  1.00  0.00     0.038 A 
ENDROOT
BRANCH   1   9
HETATM    9  O   UNL     1      44.680 -18.840   6.722  1.00  0.00    -0.347 OA
BRANCH   9  10
HETATM   10  C   UNL     1      43.494 -18.260   7.257  1.00  0.00     0.214 C 
BRANCH  10  11
HETATM   11  C   UNL     1      43.396 -16.819   6.822  1.00  0.00    -0.033 A 
HETATM   12  C   UNL     1      44.418 -15.910   7.148  1.00  0.00     0.026 A 
HETATM   13  C   UNL     1      44.274 -14.548   6.861  1.00  0.00     0.034 A 
HETATM   14  C   UNL     1      43.144 -14.114   6.154  1.00  0.00     0.017 A 
HETATM   15  C   UNL     1      42.152 -15.018   5.777  1.00  0.00     0.002 A 
HETATM   16  C   UNL     1      42.271 -16.362   6.121  1.00  0.00     0.009 A 
BRANCH  13  17
HETATM   17  C   UNL     1      45.284 -13.520   7.227  1.00  0.00     0.270 C 
HETATM   18  N   UNL     1      45.219 -12.810   8.406  1.00  0.00    -0.264 N 
HETATM   19  H   UNL     1      45.919 -12.076   8.508  1.00  0.00     0.190 HD
HETATM   20  O   UNL     1      46.195 -13.282   6.433  1.00  0.00    -0.266 OA
BRANCH  18  21
HETATM   21  N   UNL     1      44.155 -12.763   9.313  1.00  0.00    -0.274 N 
HETATM   22  H   UNL     1      43.595 -13.605   9.456  1.00  0.00     0.189 HD
BRANCH  21  23
HETATM   23  C   UNL     1      43.515 -11.573   9.564  1.00  0.00     0.186 C 
HETATM   24  S   UNL     1      42.533 -10.745   8.494  1.00  0.00    -0.040 SA
BRANCH  23  25
HETATM   25  N   UNL     1      43.764 -11.004  10.782  1.00  0.00    -0.364 N 
HETATM   26  H   UNL     1      44.397 -11.549  11.358  1.00  0.00     0.162 HD
BRANCH  25  27
HETATM   27  C   UNL     1      42.907 -10.041  11.466  1.00  0.00     0.154 C 
BRANCH  27  28
HETATM   28  C   UNL     1      42.699 -10.319  12.961  1.00  0.00     0.139 C 
HETATM   29  O   UNL     1      41.292 -10.291  13.284  1.00  0.00    -0.384 OA
HETATM   30  C   UNL     1      41.108  -9.406  14.398  1.00  0.00     0.168 C 
HETATM   31  C   UNL     1      42.277  -8.449  14.374  1.00  0.00     0.029 C 
HETATM   32  C   UNL     1      43.398  -9.332  13.887  1.00  0.00     0.035 C 
ENDBRANCH  27  28
ENDBRANCH  25  27
ENDBRANCH  23  25
ENDBRANCH  21  23
ENDBRANCH  18  21
ENDBRANCH  13  17
ENDBRANCH  10  11
ENDBRANCH   9  10
ENDBRANCH   1   9
TORSDOF 9
ENDMDL
MODEL 4
REMARK VINA RESULT:      -7.5      3.904      7.029
REMARK  9 active torsions:
REMARK  status: ('A' for Active; 'I' for Inactive)
REMARK    1  A    between atoms: C_3  and  C_4 
REMARK       I    between atoms: C_4  and  N_5 
REMARK    2  A    between atoms: N_5  and  N_6 
REMARK    3  A    between atoms: N_6  and  C_7 
REMARK    4  A    between atoms: C_7  and  N_8 
REMARK    5  A    between atoms: N_8  and  C_9 
REMARK    6  A    between atoms: C_9  and  C_10 
REMARK    7  A    between atoms: C_18  and  C_19 
REMARK    8  A    between atoms: C_19  and  O_20 
REMARK    9  A    between atoms: O_20  and  C_21 
ROOT
HETATM    1  C   UNL     1      43.768 -18.513   5.272  1.00  0.00     0.069 A 
HETATM    2  C   UNL     1      43.183 -18.437   4.006  1.00  0.00     0.038 A 
HETATM    3  C   UNL     1      43.419 -19.442   3.060  1.00  0.00     0.025 A 
HETATM    4  C   UNL     1      44.242 -20.528   3.374  1.00  0.00     0.044 A 
HETATM    5  C   UNL     1      44.480 -21.555   2.402  1.00  0.00     0.099 C 
HETATM    6  N   UNL     1      44.665 -22.384   1.610  1.00  0.00    -0.191 NA
HETATM    7  C   UNL     1      44.828 -20.604   4.639  1.00  0.00     0.025 A 
HETATM    8  C   UNL     1      44.589 -19.600   5.581  1.00  0.00     0.038 A 
ENDROOT
BRANCH   1   9
HETATM    9  O   UNL     1      43.616 -17.605   6.285  1.00  0.00    -0.347 OA
BRANCH   9  10
HETATM   10  C   UNL     1      43.942 -16.252   5.981  1.00  0.00     0.214 C 
BRANCH  10  11
HETATM   11  C   UNL     1      42.674 -15.445   5.846  1.00  0.00    -0.033 A 
HETATM   12  C   UNL     1      42.730 -14.099   5.446  1.00  0.00     0.026 A 
HETATM   13  C   UNL     1      41.575 -13.310   5.443  1.00  0.00     0.034 A 
HETATM   14  C   UNL     1      40.341 -13.905   5.745  1.00  0.00     0.017 A 
HETATM   15  C   UNL     1      40.268 -15.254   6.087  1.00  0.00     0.002 A 
HETATM   16  C   UNL     1      41.431 -16.018   6.150  1.00  0.00     0.009 A 
BRANCH  13  17
HETATM   17  C   UNL     1      41.565 -11.867   5.089  1.00  0.00     0.270 C 
HETATM   18  N   UNL     1      41.677 -11.426   3.788  1.00  0.00    -0.264 N 
HETATM   19  H   UNL     1      41.741 -10.414   3.678  1.00  0.00     0.190 HD
HETATM   20  O   UNL     1      41.479 -11.039   5.998  1.00  0.00    -0.266 OA
BRANCH  18  21
HETATM   21  N   UNL     1      42.017 -12.180   2.661  1.00  0.00    -0.274 N 
HETATM   22  H   UNL     1      43.000 -12.413   2.505  1.00  0.00     0.189 HD
BRANCH  21  23
HETATM   23  C   UNL     1      41.231 -12.131   1.535  1.00  0.00     0.186 C 
HETATM   24  S   UNL     1      40.931 -10.771   0.609  1.00  0.00    -0.040 SA
BRANCH  23  25
HETATM   25  N   UNL     1      40.602 -13.296   1.193  1.00  0.00    -0.364 N 
HETATM   26  H   UNL     1      40.191 -13.274   0.265  1.00  0.00     0.162 HD
BRANCH  25  27
HETATM   27  C   UNL     1      40.083 -14.291   2.126  1.00  0.00     0.154 C 
BRANCH  27  28
HETATM   28  C   UNL     1      41.030 -15.468   2.397  1.00  0.00     0.139 C 
HETATM   29  O   UNL     1      42.274 -15.282   1.690  1.00  0.00    -0.384 OA
HETATM   30  C   UNL     1      42.544 -16.476   0.942  1.00  0.00     0.168 C 
HETATM   31  C   UNL     1      41.207 -17.140   0.712  1.00  0.00     0.029 C 
HETATM   32  C   UNL     1      40.474 -16.827   1.991  1.00  0.00     0.035 C 
ENDBRANCH  27  28
ENDBRANCH  25  27
ENDBRANCH  23  25
ENDBRANCH  21  23
ENDBRANCH  18  21
ENDBRANCH  13  17
ENDBRANCH  10  11
ENDBRANCH   9  10
ENDBRANCH   1   9
TORSDOF 9
ENDMDL
MODEL 5
REMARK VINA RESULT:      -7.5      4.015      7.593
REMARK  9 active torsions:
REMARK  status: ('A' for Active; 'I' for Inactive)
REMARK    1  A    between atoms: C_3  and  C_4 
REMARK       I    between atoms: C_4  and  N_5 
REMARK    2  A    between atoms: N_5  and  N_6 
REMARK    3  A    between atoms: N_6  and  C_7 
REMARK    4  A    between atoms: C_7  and  N_8 
REMARK    5  A    between atoms: N_8  and  C_9 
REMARK    6  A    between atoms: C_9  and  C_10 
REMARK    7  A    between atoms: C_18  and  C_19 
REMARK    8  A    between atoms: C_19  and  O_20 
REMARK    9  A    between atoms: O_20  and  C_21 
ROOT
HETATM    1  C   UNL     1      43.844 -18.064   2.819  1.00  0.00     0.069 A 
HETATM    2  C   UNL     1      43.914 -19.252   2.088  1.00  0.00     0.038 A 
HETATM    3  C   UNL     1      44.280 -20.447   2.719  1.00  0.00     0.025 A 
HETATM    4  C   UNL     1      44.581 -20.461   4.084  1.00  0.00     0.044 A 
HETATM    5  C   UNL     1      44.953 -21.688   4.726  1.00  0.00     0.099 C 
HETATM    6  N   UNL     1      45.253 -22.686   5.238  1.00  0.00    -0.191 NA
HETATM    7  C   UNL     1      44.512 -19.275   4.816  1.00  0.00     0.025 A 
HETATM    8  C   UNL     1      44.144 -18.084   4.183  1.00  0.00     0.038 A 
ENDROOT
BRANCH   1   9
HETATM    9  O   UNL     1      43.497 -16.835   2.328  1.00  0.00    -0.347 OA
BRANCH   9  10
HETATM   10  C   UNL     1      42.586 -16.821   1.233  1.00  0.00     0.214 C 
BRANCH  10  11
HETATM   11  C   UNL     1      41.485 -15.825   1.504  1.00  0.00    -0.033 A 
HETATM   12  C   UNL     1      41.746 -14.446   1.437  1.00  0.00     0.026 A 
HETATM   13  C   UNL     1      40.766 -13.520   1.812  1.00  0.00     0.034 A 
HETATM   14  C   UNL     1      39.488 -13.980   2.160  1.00  0.00     0.017 A 
HETATM   15  C   UNL     1      39.204 -15.345   2.174  1.00  0.00     0.002 A 
HETATM   16  C   UNL     1      40.202 -16.264   1.860  1.00  0.00     0.009 A 
BRANCH  13  17
HETATM   17  C   UNL     1      40.986 -12.050   1.824  1.00  0.00     0.270 C 
HETATM   18  N   UNL     1      41.603 -11.405   2.874  1.00  0.00    -0.264 N 
HETATM   19  H   UNL     1      41.623 -10.388   2.805  1.00  0.00     0.190 HD
HETATM   20  O   UNL     1      40.578 -11.386   0.869  1.00  0.00    -0.266 OA
BRANCH  18  21
HETATM   21  N   UNL     1      41.917 -11.934   4.130  1.00  0.00    -0.274 N 
HETATM   22  H   UNL     1      42.567 -12.720   4.182  1.00  0.00     0.189 HD
BRANCH  21  23
HETATM   23  C   UNL     1      41.018 -11.834   5.165  1.00  0.00     0.186 C 
HETATM   24  S   UNL     1      40.019 -10.529   5.471  1.00  0.00    -0.040 SA
BRANCH  23  25
HETATM   25  N   UNL     1      40.997 -12.883   6.042  1.00  0.00    -0.364 N 
HETATM   26  H   UNL     1      41.847 -12.967   6.590  1.00  0.00     0.162 HD
BRANCH  25  27
HETATM   27  C   UNL     1      40.160 -14.073   5.930  1.00  0.00     0.154 C 
BRANCH  27  28
HETATM   28  C   UNL     1      40.902 -15.336   5.471  1.00  0.00     0.139 C 
HETATM   29  O   UNL     1      40.554 -16.454   6.315  1.00  0.00    -0.384 OA
HETATM   30  C   UNL     1      41.771 -17.061   6.775  1.00  0.00     0.168 C 
HETATM   31  C   UNL     1      42.828 -15.984   6.711  1.00  0.00     0.029 C 
HETATM   32  C   UNL     1      42.420 -15.211   5.483  1.00  0.00     0.035 C 
ENDBRANCH  27  28
ENDBRANCH  25  27
ENDBRANCH  23  25
ENDBRANCH  21  23
ENDBRANCH  18  21
ENDBRANCH  13  17
ENDBRANCH  10  11
ENDBRANCH   9  10
ENDBRANCH   1   9
TORSDOF 9
ENDMDL
MODEL 6
REMARK VINA RESULT:      -7.4      3.358      8.952
REMARK  9 active torsions:
REMARK  status: ('A' for Active; 'I' for Inactive)
REMARK    1  A    between atoms: C_3  and  C_4 
REMARK       I    between atoms: C_4  and  N_5 
REMARK    2  A    between atoms: N_5  and  N_6 
REMARK    3  A    between atoms: N_6  and  C_7 
REMARK    4  A    between atoms: C_7  and  N_8 
REMARK    5  A    between atoms: N_8  and  C_9 
REMARK    6  A    between atoms: C_9  and  C_10 
REMARK    7  A    between atoms: C_18  and  C_19 
REMARK    8  A    between atoms: C_19  and  O_20 
REMARK    9  A    between atoms: O_20  and  C_21 
ROOT
HETATM    1  C   UNL     1      43.647 -17.005   3.078  1.00  0.00     0.069 A 
HETATM    2  C   UNL     1      43.718 -17.405   1.742  1.00  0.00     0.038 A 
HETATM    3  C   UNL     1      43.866 -18.759   1.419  1.00  0.00     0.025 A 
HETATM    4  C   UNL     1      43.945 -19.721   2.431  1.00  0.00     0.044 A 
HETATM    5  C   UNL     1      44.094 -21.107   2.095  1.00  0.00     0.099 C 
HETATM    6  N   UNL     1      44.214 -22.228   1.815  1.00  0.00    -0.191 NA
HETATM    7  C   UNL     1      43.874 -19.323   3.767  1.00  0.00     0.025 A 
HETATM    8  C   UNL     1      43.725 -17.970   4.085  1.00  0.00     0.038 A 
ENDROOT
BRANCH   1   9
HETATM    9  O   UNL     1      43.500 -15.720   3.528  1.00  0.00    -0.347 OA
BRANCH   9  10
HETATM   10  C   UNL     1      43.300 -15.555   4.929  1.00  0.00     0.214 C 
BRANCH  10  11
HETATM   11  C   UNL     1      42.104 -14.668   5.167  1.00  0.00    -0.033 A 
HETATM   12  C   UNL     1      42.264 -13.274   5.261  1.00  0.00     0.026 A 
HETATM   13  C   UNL     1      41.182 -12.458   5.610  1.00  0.00     0.034 A 
HETATM   14  C   UNL     1      39.913 -13.034   5.765  1.00  0.00     0.017 A 
HETATM   15  C   UNL     1      39.734 -14.409   5.618  1.00  0.00     0.002 A 
HETATM   16  C   UNL     1      40.828 -15.224   5.333  1.00  0.00     0.009 A 
BRANCH  13  17
HETATM   17  C   UNL     1      41.286 -10.986   5.785  1.00  0.00     0.270 C 
HETATM   18  N   UNL     1      41.712 -10.412   6.964  1.00  0.00    -0.264 N 
HETATM   19  H   UNL     1      41.663  -9.394   6.992  1.00  0.00     0.190 HD
HETATM   20  O   UNL     1      40.957 -10.256   4.849  1.00  0.00    -0.266 OA
BRANCH  18  21
HETATM   21  N   UNL     1      41.900 -11.044   8.198  1.00  0.00    -0.274 N 
HETATM   22  H   UNL     1      41.974 -12.063   8.221  1.00  0.00     0.189 HD
BRANCH  21  23
HETATM   23  C   UNL     1      41.442 -10.454   9.351  1.00  0.00     0.186 C 
HETATM   24  S   UNL     1      39.853 -10.418   9.868  1.00  0.00    -0.040 SA
BRANCH  23  25
HETATM   25  N   UNL     1      42.378  -9.794  10.099  1.00  0.00    -0.364 N 
HETATM   26  H   UNL     1      42.876  -9.079   9.580  1.00  0.00     0.162 HD
BRANCH  25  27
HETATM   27  C   UNL     1      43.017 -10.302  11.309  1.00  0.00     0.154 C 
BRANCH  27  28
HETATM   28  C   UNL     1      44.440 -10.840  11.103  1.00  0.00     0.139 C 
HETATM   29  O   UNL     1      44.980 -10.360   9.854  1.00  0.00    -0.384 OA
HETATM   30  C   UNL     1      45.472 -11.488   9.117  1.00  0.00     0.168 C 
HETATM   31  C   UNL     1      44.708 -12.688   9.627  1.00  0.00     0.029 C 
HETATM   32  C   UNL     1      44.541 -12.360  11.088  1.00  0.00     0.035 C 
ENDBRANCH  27  28
ENDBRANCH  25  27
ENDBRANCH  23  25
ENDBRANCH  21  23
ENDBRANCH  18  21
ENDBRANCH  13  17
ENDBRANCH  10  11
ENDBRANCH   9  10
ENDBRANCH   1   9
TORSDOF 9
ENDMDL
MODEL 7
REMARK VINA RESULT:      -7.3      4.402      7.864
REMARK  9 active torsions:
REMARK  status: ('A' for Active; 'I' for Inactive)
REMARK    1  A    between atoms: C_3  and  C_4 
REMARK       I    between atoms: C_4  and  N_5 
REMARK    2  A    between atoms: N_5  and  N_6 
REMARK    3  A    between atoms: N_6  and  C_7 
REMARK    4  A    between atoms: C_7  and  N_8 
REMARK    5  A    between atoms: N_8  and  C_9 
REMARK    6  A    between atoms: C_9  and  C_10 
REMARK    7  A    between atoms: C_18  and  C_19 
REMARK    8  A    between atoms: C_19  and  O_20 
REMARK    9  A    between atoms: O_20  and  C_21 
ROOT
HETATM    1  C   UNL     1      43.583 -17.842   2.437  1.00  0.00     0.069 A 
HETATM    2  C   UNL     1      43.948 -19.022   1.786  1.00  0.00     0.038 A 
HETATM    3  C   UNL     1      44.361 -20.136   2.526  1.00  0.00     0.025 A 
HETATM    4  C   UNL     1      44.414 -20.077   3.922  1.00  0.00     0.044 A 
HETATM    5  C   UNL     1      44.836 -21.221   4.676  1.00  0.00     0.099 C 
HETATM    6  N   UNL     1      45.177 -22.153   5.279  1.00  0.00    -0.191 NA
HETATM    7  C   UNL     1      44.050 -18.897   4.575  1.00  0.00     0.025 A 
HETATM    8  C   UNL     1      43.636 -17.788   3.832  1.00  0.00     0.038 A 
ENDROOT
BRANCH   1   9
HETATM    9  O   UNL     1      43.159 -16.688   1.836  1.00  0.00    -0.347 OA
BRANCH   9  10
HETATM   10  C   UNL     1      42.363 -16.835   0.664  1.00  0.00     0.214 C 
BRANCH  10  11
HETATM   11  C   UNL     1      41.080 -16.058   0.824  1.00  0.00    -0.033 A 
HETATM   12  C   UNL     1      40.697 -15.116  -0.148  1.00  0.00     0.026 A 
HETATM   13  C   UNL     1      39.579 -14.301   0.056  1.00  0.00     0.034 A 
HETATM   14  C   UNL     1      38.783 -14.504   1.194  1.00  0.00     0.017 A 
HETATM   15  C   UNL     1      39.124 -15.475   2.134  1.00  0.00     0.002 A 
HETATM   16  C   UNL     1      40.274 -16.240   1.956  1.00  0.00     0.009 A 
BRANCH  13  17
HETATM   17  C   UNL     1      39.147 -13.245  -0.896  1.00  0.00     0.270 C 
HETATM   18  N   UNL     1      39.572 -11.938  -0.790  1.00  0.00    -0.264 N 
HETATM   19  H   UNL     1      39.144 -11.289  -1.449  1.00  0.00     0.190 HD
HETATM   20  O   UNL     1      38.361 -13.549  -1.795  1.00  0.00    -0.266 OA
BRANCH  18  21
HETATM   21  N   UNL     1      40.260 -11.352   0.278  1.00  0.00    -0.274 N 
HETATM   22  H   UNL     1      39.840 -10.548   0.749  1.00  0.00     0.189 HD
BRANCH  21  23
HETATM   23  C   UNL     1      41.630 -11.432   0.343  1.00  0.00     0.186 C 
HETATM   24  S   UNL     1      42.677 -11.378  -0.959  1.00  0.00    -0.040 SA
BRANCH  23  25
HETATM   25  N   UNL     1      42.159 -11.632   1.588  1.00  0.00    -0.364 N 
HETATM   26  H   UNL     1      42.791 -10.895   1.880  1.00  0.00     0.162 HD
BRANCH  25  27
HETATM   27  C   UNL     1      42.282 -12.919   2.267  1.00  0.00     0.154 C 
BRANCH  27  28
HETATM   28  C   UNL     1      42.326 -12.832   3.798  1.00  0.00     0.139 C 
HETATM   29  O   UNL     1      43.555 -13.401   4.296  1.00  0.00    -0.384 OA
HETATM   30  C   UNL     1      43.223 -14.359   5.312  1.00  0.00     0.168 C 
HETATM   31  C   UNL     1      41.810 -14.808   5.022  1.00  0.00     0.029 C 
HETATM   32  C   UNL     1      41.176 -13.543   4.501  1.00  0.00     0.035 C 
ENDBRANCH  27  28
ENDBRANCH  25  27
ENDBRANCH  23  25
ENDBRANCH  21  23
ENDBRANCH  18  21
ENDBRANCH  13  17
ENDBRANCH  10  11
ENDBRANCH   9  10
ENDBRANCH   1   9
TORSDOF 9
ENDMDL
MODEL 8
REMARK VINA RESULT:      -7.3      3.592      9.657
REMARK  9 active torsions:
REMARK  status: ('A' for Active; 'I' for Inactive)
REMARK    1  A    between atoms: C_3  and  C_4 
REMARK       I    between atoms: C_4  and  N_5 
REMARK    2  A    between atoms: N_5  and  N_6 
REMARK    3  A    between atoms: N_6  and  C_7 
REMARK    4  A    between atoms: C_7  and  N_8 
REMARK    5  A    between atoms: N_8  and  C_9 
REMARK    6  A    between atoms: C_9  and  C_10 
REMARK    7  A    between atoms: C_18  and  C_19 
REMARK    8  A    between atoms: C_19  and  O_20 
REMARK    9  A    between atoms: O_20  and  C_21 
ROOT
HETATM    1  C   UNL     1      43.645 -17.536   4.395  1.00  0.00     0.069 A 
HETATM    2  C   UNL     1      43.283 -17.691   3.056  1.00  0.00     0.038 A 
HETATM    3  C   UNL     1      43.515 -18.906   2.400  1.00  0.00     0.025 A 
HETATM    4  C   UNL     1      44.112 -19.972   3.079  1.00  0.00     0.044 A 
HETATM    5  C   UNL     1      44.346 -21.215   2.403  1.00  0.00     0.099 C 
HETATM    6  N   UNL     1      44.531 -22.219   1.849  1.00  0.00    -0.191 NA
HETATM    7  C   UNL     1      44.475 -19.818   4.418  1.00  0.00     0.025 A 
HETATM    8  C   UNL     1      44.240 -18.605   5.070  1.00  0.00     0.038 A 
ENDROOT
BRANCH   1   9
HETATM    9  O   UNL     1      43.471 -16.408   5.152  1.00  0.00    -0.347 OA
BRANCH   9  10
HETATM   10  C   UNL     1      43.327 -15.182   4.442  1.00  0.00     0.214 C 
BRANCH  10  11
HETATM   11  C   UNL     1      42.157 -14.410   5.000  1.00  0.00    -0.033 A 
HETATM   12  C   UNL     1      42.322 -13.077   5.418  1.00  0.00     0.026 A 
HETATM   13  C   UNL     1      41.277 -12.399   6.054  1.00  0.00     0.034 A 
HETATM   14  C   UNL     1      40.029 -13.027   6.178  1.00  0.00     0.017 A 
HETATM   15  C   UNL     1      39.840 -14.328   5.714  1.00  0.00     0.002 A 
HETATM   16  C   UNL     1      40.903 -15.021   5.139  1.00  0.00     0.009 A 
BRANCH  13  17
HETATM   17  C   UNL     1      41.395 -11.012   6.575  1.00  0.00     0.270 C 
HETATM   18  N   UNL     1      42.182 -10.698   7.662  1.00  0.00    -0.264 N 
HETATM   19  H   UNL     1      42.118  -9.730   7.977  1.00  0.00     0.190 HD
HETATM   20  O   UNL     1      40.744 -10.120   6.028  1.00  0.00    -0.266 OA
BRANCH  18  21
HETATM   21  N   UNL     1      42.798 -11.585   8.551  1.00  0.00    -0.274 N 
HETATM   22  H   UNL     1      42.700 -12.589   8.389  1.00  0.00     0.189 HD
BRANCH  21  23
HETATM   23  C   UNL     1      43.021 -11.211   9.854  1.00  0.00     0.186 C 
HETATM   24  S   UNL     1      44.464 -10.641  10.476  1.00  0.00    -0.040 SA
BRANCH  23  25
HETATM   25  N   UNL     1      41.972 -11.384  10.714  1.00  0.00    -0.364 N 
HETATM   26  H   UNL     1      41.764 -12.358  10.906  1.00  0.00     0.162 HD
BRANCH  25  27
HETATM   27  C   UNL     1      40.909 -10.417  10.969  1.00  0.00     0.154 C 
BRANCH  27  28
HETATM   28  C   UNL     1      40.962  -9.758  12.355  1.00  0.00     0.139 C 
HETATM   29  O   UNL     1      41.936  -8.693  12.364  1.00  0.00    -0.384 OA
HETATM   30  C   UNL     1      42.812  -8.900  13.482  1.00  0.00     0.168 C 
HETATM   31  C   UNL     1      42.755 -10.378  13.792  1.00  0.00     0.029 C 
HETATM   32  C   UNL     1      41.317 -10.710  13.489  1.00  0.00     0.035 C 
ENDBRANCH  27  28
ENDBRANCH  25  27
ENDBRANCH  23  25
ENDBRANCH  21  23
ENDBRANCH  18  21
ENDBRANCH  13  17
ENDBRANCH  10  11
ENDBRANCH   9  10
ENDBRANCH   1   9
TORSDOF 9
ENDMDL
MODEL 9
REMARK VINA RESULT:      -7.2      3.796      8.007
REMARK  9 active torsions:
REMARK  status: ('A' for Active; 'I' for Inactive)
REMARK    1  A    between atoms: C_3  and  C_4 
REMARK       I    between atoms: C_4  and  N_5 
REMARK    2  A    between atoms: N_5  and  N_6 
REMARK    3  A    between atoms: N_6  and  C_7 
REMARK    4  A    between atoms: C_7  and  N_8 
REMARK    5  A    between atoms: N_8  and  C_9 
REMARK    6  A    between atoms: C_9  and  C_10 
REMARK    7  A    between atoms: C_18  and  C_19 
REMARK    8  A    between atoms: C_19  and  O_20 
REMARK    9  A    between atoms: O_20  and  C_21 
ROOT
HETATM    1  C   UNL     1      40.945 -16.633   1.475  1.00  0.00     0.069 A 
HETATM    2  C   UNL     1      39.872 -15.898   1.983  1.00  0.00     0.038 A 
HETATM    3  C   UNL     1      39.423 -14.752   1.314  1.00  0.00     0.025 A 
HETATM    4  C   UNL     1      40.046 -14.335   0.133  1.00  0.00     0.044 A 
HETATM    5  C   UNL     1      39.582 -13.163  -0.550  1.00  0.00     0.099 C 
HETATM    6  N   UNL     1      39.198 -12.213  -1.097  1.00  0.00    -0.191 NA
HETATM    7  C   UNL     1      41.118 -15.070  -0.376  1.00  0.00     0.025 A 
HETATM    8  C   UNL     1      41.562 -16.213   0.294  1.00  0.00     0.038 A 
ENDROOT
BRANCH   1   9
HETATM    9  O   UNL     1      41.476 -17.768   2.025  1.00  0.00    -0.347 OA
BRANCH   9  10
HETATM   10  C   UNL     1      42.799 -18.112   1.622  1.00  0.00     0.214 C 
BRANCH  10  11
HETATM   11  C   UNL     1      43.485 -18.868   2.733  1.00  0.00    -0.033 A 
HETATM   12  C   UNL     1      43.776 -18.228   3.951  1.00  0.00     0.026 A 
HETATM   13  C   UNL     1      44.525 -18.882   4.935  1.00  0.00     0.034 A 
HETATM   14  C   UNL     1      44.895 -20.220   4.736  1.00  0.00     0.017 A 
HETATM   15  C   UNL     1      44.561 -20.881   3.555  1.00  0.00     0.002 A 
HETATM   16  C   UNL     1      43.870 -20.204   2.552  1.00  0.00     0.009 A 
BRANCH  13  17
HETATM   17  C   UNL     1      44.922 -18.251   6.221  1.00  0.00     0.270 C 
HETATM   18  N   UNL     1      43.997 -17.845   7.159  1.00  0.00    -0.264 N 
HETATM   19  H   UNL     1      44.384 -17.352   7.963  1.00  0.00     0.190 HD
HETATM   20  O   UNL     1      46.119 -18.064   6.440  1.00  0.00    -0.266 OA
BRANCH  18  21
HETATM   21  N   UNL     1      42.610 -17.752   7.001  1.00  0.00    -0.274 N 
HETATM   22  H   UNL     1      42.086 -18.597   6.768  1.00  0.00     0.189 HD
BRANCH  21  23
HETATM   23  C   UNL     1      42.039 -16.567   6.603  1.00  0.00     0.186 C 
HETATM   24  S   UNL     1      40.504 -16.385   5.968  1.00  0.00    -0.040 SA
BRANCH  23  25
HETATM   25  N   UNL     1      42.837 -15.460   6.689  1.00  0.00    -0.364 N 
HETATM   26  H   UNL     1      42.587 -14.842   7.454  1.00  0.00     0.162 HD
BRANCH  25  27
HETATM   27  C   UNL     1      43.620 -14.885   5.599  1.00  0.00     0.154 C 
BRANCH  27  28
HETATM   28  C   UNL     1      43.210 -13.460   5.201  1.00  0.00     0.139 C 
HETATM   29  O   UNL     1      42.326 -12.898   6.194  1.00  0.00    -0.384 OA
HETATM   30  C   UNL     1      41.161 -12.397   5.522  1.00  0.00     0.168 C 
HETATM   31  C   UNL     1      41.055 -13.173   4.230  1.00  0.00     0.029 C 
HETATM   32  C   UNL     1      42.502 -13.364   3.855  1.00  0.00     0.035 C 
ENDBRANCH  27  28
ENDBRANCH  25  27
ENDBRANCH  23  25
ENDBRANCH  21  23
ENDBRANCH  18  21
ENDBRANCH  13  17
ENDBRANCH  10  11
ENDBRANCH   9  10
ENDBRANCH   1   9
TORSDOF 9
ENDMDL
MODEL 10
REMARK VINA RESULT:      -7.2      2.384      8.001
REMARK  9 active torsions:
REMARK  status: ('A' for Active; 'I' for Inactive)
REMARK    1  A    between atoms: C_3  and  C_4 
REMARK       I    between atoms: C_4  and  N_5 
REMARK    2  A    between atoms: N_5  and  N_6 
REMARK    3  A    between atoms: N_6  and  C_7 
REMARK    4  A    between atoms: C_7  and  N_8 
REMARK    5  A    between atoms: N_8  and  C_9 
REMARK    6  A    between atoms: C_9  and  C_10 
REMARK    7  A    between atoms: C_18  and  C_19 
REMARK    8  A    between atoms: C_19  and  O_20 
REMARK    9  A    between atoms: O_20  and  C_21 
ROOT
HETATM    1  C   UNL     1      43.830 -18.614   2.078  1.00  0.00     0.069 A 
HETATM    2  C   UNL     1      44.281 -17.321   1.804  1.00  0.00     0.038 A 
HETATM    3  C   UNL     1      43.405 -16.368   1.268  1.00  0.00     0.025 A 
HETATM    4  C   UNL     1      42.074 -16.703   1.002  1.00  0.00     0.044 A 
HETATM    5  C   UNL     1      41.181 -15.724   0.455  1.00  0.00     0.099 C 
HETATM    6  N   UNL     1      40.465 -14.924   0.014  1.00  0.00    -0.191 NA
HETATM    7  C   UNL     1      41.622 -17.995   1.276  1.00  0.00     0.025 A 
HETATM    8  C   UNL     1      42.498 -18.943   1.812  1.00  0.00     0.038 A 
ENDROOT
BRANCH   1   9
HETATM    9  O   UNL     1      44.576 -19.633   2.604  1.00  0.00    -0.347 OA
BRANCH   9  10
HETATM   10  C   UNL     1      44.085 -20.232   3.799  1.00  0.00     0.214 C 
BRANCH  10  11
HETATM   11  C   UNL     1      44.024 -19.196   4.895  1.00  0.00    -0.033 A 
HETATM   12  C   UNL     1      42.817 -18.534   5.177  1.00  0.00     0.026 A 
HETATM   13  C   UNL     1      42.782 -17.483   6.100  1.00  0.00     0.034 A 
HETATM   14  C   UNL     1      43.945 -17.165   6.817  1.00  0.00     0.017 A 
HETATM   15  C   UNL     1      45.134 -17.855   6.585  1.00  0.00     0.002 A 
HETATM   16  C   UNL     1      45.177 -18.858   5.619  1.00  0.00     0.009 A 
BRANCH  13  17
HETATM   17  C   UNL     1      41.558 -16.699   6.408  1.00  0.00     0.270 C 
HETATM   18  N   UNL     1      41.373 -15.412   5.949  1.00  0.00    -0.264 N 
HETATM   19  H   UNL     1      40.533 -14.947   6.292  1.00  0.00     0.190 HD
HETATM   20  O   UNL     1      40.693 -17.212   7.118  1.00  0.00    -0.266 OA
BRANCH  18  21
HETATM   21  N   UNL     1      42.320 -14.582   5.341  1.00  0.00    -0.274 N 
HETATM   22  H   UNL     1      43.015 -15.002   4.722  1.00  0.00     0.189 HD
BRANCH  21  23
HETATM   23  C   UNL     1      42.693 -13.405   5.943  1.00  0.00     0.186 C 
HETATM   24  S   UNL     1      41.759 -12.023   6.056  1.00  0.00    -0.040 SA
BRANCH  23  25
HETATM   25  N   UNL     1      43.968 -13.363   6.437  1.00  0.00    -0.364 N 
HETATM   26  H   UNL     1      44.678 -13.521   5.731  1.00  0.00     0.162 HD
BRANCH  25  27
HETATM   27  C   UNL     1      44.352 -13.586   7.827  1.00  0.00     0.154 C 
BRANCH  27  28
HETATM   28  C   UNL     1      44.899 -12.345   8.547  1.00  0.00     0.139 C 
HETATM   29  O   UNL     1      45.741 -12.738   9.650  1.00  0.00    -0.384 OA
HETATM   30  C   UNL     1      45.292 -12.044  10.823  1.00  0.00     0.168 C 
HETATM   31  C   UNL     1      43.840 -11.705  10.580  1.00  0.00     0.029 C 
HETATM   32  C   UNL     1      43.825 -11.417   9.101  1.00  0.00     0.035 C 
ENDBRANCH  27  28
ENDBRANCH  25  27
ENDBRANCH  23  25
ENDBRANCH  21  23
ENDBRANCH  18  21
ENDBRANCH  13  17
ENDBRANCH  10  11
ENDBRANCH   9  10
ENDBRANCH   1   9
TORSDOF 9
ENDMDL
