MODEL 1
REMARK VINA RESULT:      -8.3      0.000      0.000
REMARK  6 active torsions:
REMARK  status: ('A' for Active; 'I' for Inactive)
REMARK    1  A    between atoms: C_2  and  N_3 
REMARK       I    between atoms: N_3  and  C_4 
REMARK       I    between atoms: C_4  and  N_5 
REMARK    2  A    between atoms: N_5  and  C_6 
REMARK    3  A    between atoms: C_8  and  O_9 
REMARK    4  A    between atoms: O_9  and  C_10 
REMARK    5  A    between atoms: C_10  and  C_11 
REMARK    6  A    between atoms: C_11  and  N_12 
ROOT
HETATM    1  N   UNL     1      43.790 -18.138   6.247  1.00  0.00    -0.333 N 
HETATM    2  C   UNL     1      43.958 -19.414   6.698  1.00  0.00     0.321 C 
HETATM    3  N   UNL     1      44.449 -20.309   5.791  1.00  0.00    -0.309 N 
HETATM    4  O   UNL     1      43.778 -19.764   7.859  1.00  0.00    -0.247 OA
HETATM    5  H   UNL     1      44.354 -17.914   5.439  1.00  0.00     0.165 HD
HETATM    6  H   UNL     1      44.850 -21.125   6.240  1.00  0.00     0.170 HD
ENDROOT
BRANCH   3   7
HETATM    7  C   UNL     1      44.311 -20.365   4.393  1.00  0.00     0.039 A 
HETATM    8  C   UNL     1      43.839 -19.295   3.628  1.00  0.00     0.066 A 
HETATM    9  C   UNL     1      43.647 -19.455   2.255  1.00  0.00     0.070 A 
HETATM   10  C   UNL     1      43.971 -20.651   1.623  1.00  0.00     0.037 A 
HETATM   11  C   UNL     1      44.434 -21.723   2.382  1.00  0.00     0.005 A 
HETATM   12  C   UNL     1      44.584 -21.586   3.765  1.00  0.00     0.030 A 
BRANCH   9  13
HETATM   13  O   UNL     1      43.199 -18.421   1.482  1.00  0.00    -0.349 OA
BRANCH  13  14
HETATM   14  C   UNL     1      42.610 -17.365   2.263  1.00  0.00     0.197 C 
BRANCH  14  15
HETATM   15  C   UNL     1      41.107 -17.373   2.029  1.00  0.00     0.177 C 
BRANCH  15  16
HETATM   16  N   UNL     1      40.625 -16.104   1.526  1.00  0.00    -0.279 N 
HETATM   17  N   UNL     1      39.391 -15.680   1.860  1.00  0.00    -0.185 NA
HETATM   18  C   UNL     1      39.264 -14.525   1.203  1.00  0.00     0.140 A 
HETATM   19  C   UNL     1      40.414 -14.203   0.460  1.00  0.00     0.040 A 
HETATM   20  C   UNL     1      41.283 -15.241   0.697  1.00  0.00     0.113 A 
ENDBRANCH  15  16
ENDBRANCH  14  15
ENDBRANCH  13  14
ENDBRANCH   9  13
ENDBRANCH   3   7
BRANCH   1  21
HETATM   21  C   UNL     1      43.348 -17.006   7.094  1.00  0.00     0.039 C 
HETATM   22  C   UNL     1      43.498 -17.346   8.586  1.00  0.00     0.039 C 
HETATM   23  C   UNL     1      41.882 -16.593   6.750  1.00  0.00     0.070 C 
HETATM   24  C   UNL     1      42.071 -15.481   5.759  1.00  0.00    -0.049 A 
HETATM   25  C   UNL     1      43.385 -15.010   5.768  1.00  0.00    -0.049 A 
HETATM   26  C   UNL     1      41.109 -14.886   4.961  1.00  0.00     0.007 A 
HETATM   27  C   UNL     1      44.215 -15.746   6.772  1.00  0.00     0.070 C 
HETATM   28  C   UNL     1      43.767 -13.936   4.982  1.00  0.00     0.007 A 
HETATM   29  C   UNL     1      42.807 -13.335   4.167  1.00  0.00     0.001 A 
HETATM   30  C   UNL     1      41.486 -13.807   4.156  1.00  0.00     0.001 A 
ENDBRANCH   1  21
TORSDOF 6
ENDMDL
MODEL 2
REMARK VINA RESULT:      -8.0      3.246      8.224
REMARK  6 active torsions:
REMARK  status: ('A' for Active; 'I' for Inactive)
REMARK    1  A    between atoms: C_2  and  N_3 
REMARK       I    between atoms: N_3  and  C_4 
REMARK       I    between atoms: C_4  and  N_5 
REMARK    2  A    between atoms: N_5  and  C_6 
REMARK    3  A    between atoms: C_8  and  O_9 
REMARK    4  A    between atoms: O_9  and  C_10 
REMARK    5  A    between atoms: C_10  and  C_11 
REMARK    6  A    between atoms: C_11  and  N_12 
ROOT
HETATM    1  N   UNL     1      41.811 -13.620  -0.867  1.00  0.00    -0.333 N 
HETATM    2  C   UNL     1      41.725 -12.731   0.165  1.00  0.00     0.321 C 
HETATM    3  N   UNL     1      41.982 -13.232   1.409  1.00  0.00    -0.309 N 
HETATM    4  O   UNL     1      41.519 -11.531   0.024  1.00  0.00    -0.247 OA
HETATM    5  H   UNL     1      42.379 -14.430  -0.659  1.00  0.00     0.165 HD
HETATM    6  H   UNL     1      42.219 -12.501   2.071  1.00  0.00     0.170 HD
ENDROOT
BRANCH   3   7
HETATM    7  C   UNL     1      41.782 -14.519   1.937  1.00  0.00     0.039 A 
HETATM    8  C   UNL     1      42.593 -15.072   2.931  1.00  0.00     0.066 A 
HETATM    9  C   UNL     1      42.386 -16.389   3.343  1.00  0.00     0.070 A 
HETATM   10  C   UNL     1      41.344 -17.146   2.817  1.00  0.00     0.037 A 
HETATM   11  C   UNL     1      40.537 -16.603   1.820  1.00  0.00     0.005 A 
HETATM   12  C   UNL     1      40.769 -15.301   1.368  1.00  0.00     0.030 A 
BRANCH   9  13
HETATM   13  O   UNL     1      43.157 -16.950   4.322  1.00  0.00    -0.349 OA
BRANCH  13  14
HETATM   14  C   UNL     1      42.958 -18.370   4.434  1.00  0.00     0.197 C 
BRANCH  14  15
HETATM   15  C   UNL     1      44.295 -19.063   4.220  1.00  0.00     0.177 C 
BRANCH  15  16
HETATM   16  N   UNL     1      44.182 -20.217   3.354  1.00  0.00    -0.279 N 
HETATM   17  N   UNL     1      44.682 -21.402   3.753  1.00  0.00    -0.185 NA
HETATM   18  C   UNL     1      44.446 -22.211   2.718  1.00  0.00     0.140 A 
HETATM   19  C   UNL     1      43.789 -21.552   1.663  1.00  0.00     0.040 A 
HETATM   20  C   UNL     1      43.623 -20.263   2.109  1.00  0.00     0.113 A 
ENDBRANCH  15  16
ENDBRANCH  14  15
ENDBRANCH  13  14
ENDBRANCH   9  13
ENDBRANCH   3   7
BRANCH   1  21
HETATM   21  C   UNL     1      41.649 -13.259  -2.294  1.00  0.00     0.039 C 
HETATM   22  C   UNL     1      42.807 -12.368  -2.770  1.00  0.00     0.039 C 
HETATM   23  C   UNL     1      40.267 -12.575  -2.541  1.00  0.00     0.070 C 
HETATM   24  C   UNL     1      39.397 -13.723  -2.966  1.00  0.00    -0.049 A 
HETATM   25  C   UNL     1      40.160 -14.840  -3.308  1.00  0.00    -0.049 A 
HETATM   26  C   UNL     1      38.020 -13.733  -3.108  1.00  0.00     0.007 A 
HETATM   27  C   UNL     1      41.622 -14.561  -3.159  1.00  0.00     0.070 C 
HETATM   28  C   UNL     1      39.566 -15.991  -3.799  1.00  0.00     0.007 A 
HETATM   29  C   UNL     1      38.178 -16.015  -3.936  1.00  0.00     0.001 A 
HETATM   30  C   UNL     1      37.409 -14.893  -3.593  1.00  0.00     0.001 A 
ENDBRANCH   1  21
TORSDOF 6
ENDMDL
MODEL 3
REMARK VINA RESULT:      -8.0      2.550      7.289
REMARK  6 active torsions:
REMARK  status: ('A' for Active; 'I' for Inactive)
REMARK    1  A    between atoms: C_2  and  N_3 
REMARK       I    between atoms: N_3  and  C_4 
REMARK       I    between atoms: C_4  and  N_5 
REMARK    2  A    between atoms: N_5  and  C_6 
REMARK    3  A    between atoms: C_8  and  O_9 
REMARK    4  A    between atoms: O_9  and  C_10 
REMARK    5  A    between atoms: C_10  and  C_11 
REMARK    6  A    between atoms: C_11  and  N_12 
ROOT
HETATM    1  N   UNL     1      40.016 -13.886   1.450  1.00  0.00    -0.333 N 
HETATM    2  C   UNL     1      38.981 -14.773   1.496  1.00  0.00     0.321 C 
HETATM    3  N   UNL     1      39.244 -15.968   2.102  1.00  0.00    -0.309 N 
HETATM    4  O   UNL     1      37.845 -14.526   1.109  1.00  0.00    -0.247 OA
HETATM    5  H   UNL     1      40.726 -14.052   2.151  1.00  0.00     0.165 HD
HETATM    6  H   UNL     1      38.396 -16.442   2.392  1.00  0.00     0.170 HD
ENDROOT
BRANCH   3   7
HETATM    7  C   UNL     1      40.439 -16.701   2.201  1.00  0.00     0.039 A 
HETATM    8  C   UNL     1      40.992 -17.102   3.420  1.00  0.00     0.066 A 
HETATM    9  C   UNL     1      42.227 -17.752   3.442  1.00  0.00     0.070 A 
HETATM   10  C   UNL     1      42.893 -18.058   2.260  1.00  0.00     0.037 A 
HETATM   11  C   UNL     1      42.351 -17.654   1.043  1.00  0.00     0.005 A 
HETATM   12  C   UNL     1      41.138 -16.961   1.015  1.00  0.00     0.030 A 
BRANCH   9  13
HETATM   13  O   UNL     1      42.783 -18.165   4.620  1.00  0.00    -0.349 OA
BRANCH  13  14
HETATM   14  C   UNL     1      44.219 -18.228   4.558  1.00  0.00     0.197 C 
BRANCH  14  15
HETATM   15  C   UNL     1      44.691 -19.369   5.446  1.00  0.00     0.177 C 
BRANCH  15  16
HETATM   16  N   UNL     1      44.657 -20.645   4.763  1.00  0.00    -0.279 N 
HETATM   17  N   UNL     1      44.646 -21.785   5.480  1.00  0.00    -0.185 NA
HETATM   18  C   UNL     1      44.656 -22.744   4.551  1.00  0.00     0.140 A 
HETATM   19  C   UNL     1      44.665 -22.223   3.245  1.00  0.00     0.040 A 
HETATM   20  C   UNL     1      44.655 -20.859   3.414  1.00  0.00     0.113 A 
ENDBRANCH  15  16
ENDBRANCH  14  15
ENDBRANCH  13  14
ENDBRANCH   9  13
ENDBRANCH   3   7
BRANCH   1  21
HETATM   21  C   UNL     1      39.912 -12.511   0.910  1.00  0.00     0.039 C 
HETATM   22  C   UNL     1      39.216 -11.578   1.914  1.00  0.00     0.039 C 
HETATM   23  C   UNL     1      39.181 -12.509  -0.469  1.00  0.00     0.070 C 
HETATM   24  C   UNL     1      40.316 -12.565  -1.450  1.00  0.00    -0.049 A 
HETATM   25  C   UNL     1      41.533 -12.262  -0.838  1.00  0.00    -0.049 A 
HETATM   26  C   UNL     1      40.246 -12.799  -2.813  1.00  0.00     0.007 A 
HETATM   27  C   UNL     1      41.345 -11.959   0.615  1.00  0.00     0.070 C 
HETATM   28  C   UNL     1      42.705 -12.184  -1.571  1.00  0.00     0.007 A 
HETATM   29  C   UNL     1      42.647 -12.427  -2.944  1.00  0.00     0.001 A 
HETATM   30  C   UNL     1      41.425 -12.733  -3.562  1.00  0.00     0.001 A 
ENDBRANCH   1  21
TORSDOF 6
ENDMDL
MODEL 4
REMARK VINA RESULT:      -7.9      5.026      7.841
REMARK  6 active torsions:
REMARK  status: ('A' for Active; 'I' for Inactive)
REMARK    1  A    between atoms: C_2  and  N_3 
REMARK       I    between atoms: N_3  and  C_4 
REMARK       I    between atoms: C_4  and  N_5 
REMARK    2  A    between atoms: N_5  and  C_6 
REMARK    3  A    between atoms: C_8  and  O_9 
REMARK    4  A    between atoms: O_9  and  C_10 
REMARK    5  A    between atoms: C_10  and  C_11 
REMARK    6  A    between atoms: C_11  and  N_12 
ROOT
HETATM    1  N   UNL     1      44.038 -14.254   7.537  1.00  0.00    -0.333 N 
HETATM    2  C   UNL     1      45.120 -13.422   7.523  1.00  0.00     0.321 C 
HETATM    3  N   UNL     1      45.277 -12.626   8.620  1.00  0.00    -0.309 N 
HETATM    4  O   UNL     1      45.974 -13.419   6.643  1.00  0.00    -0.247 OA
HETATM    5  H   UNL     1      43.685 -14.446   8.464  1.00  0.00     0.165 HD
HETATM    6  H   UNL     1      46.227 -12.283   8.709  1.00  0.00     0.170 HD
ENDROOT
BRANCH   3   7
HETATM    7  C   UNL     1      44.324 -12.071   9.493  1.00  0.00     0.039 A 
HETATM    8  C   UNL     1      43.329 -11.184   9.074  1.00  0.00     0.066 A 
HETATM    9  C   UNL     1      42.473 -10.608  10.013  1.00  0.00     0.070 A 
HETATM   10  C   UNL     1      42.560 -10.946  11.360  1.00  0.00     0.037 A 
HETATM   11  C   UNL     1      43.555 -11.823  11.784  1.00  0.00     0.005 A 
HETATM   12  C   UNL     1      44.446 -12.368  10.856  1.00  0.00     0.030 A 
BRANCH   9  13
HETATM   13  O   UNL     1      41.484  -9.747   9.629  1.00  0.00    -0.349 OA
BRANCH  13  14
HETATM   14  C   UNL     1      40.190 -10.143  10.117  1.00  0.00     0.197 C 
BRANCH  14  15
HETATM   15  C   UNL     1      39.550 -11.067   9.092  1.00  0.00     0.177 C 
BRANCH  15  16
HETATM   16  N   UNL     1      39.593 -10.516   7.755  1.00  0.00    -0.279 N 
HETATM   17  N   UNL     1      38.829  -9.450   7.448  1.00  0.00    -0.185 NA
HETATM   18  C   UNL     1      39.081  -9.240   6.154  1.00  0.00     0.140 A 
HETATM   19  C   UNL     1      40.009 -10.160   5.634  1.00  0.00     0.040 A 
HETATM   20  C   UNL     1      40.331 -10.968   6.699  1.00  0.00     0.113 A 
ENDBRANCH  15  16
ENDBRANCH  14  15
ENDBRANCH  13  14
ENDBRANCH   9  13
ENDBRANCH   3   7
BRANCH   1  21
HETATM   21  C   UNL     1      43.739 -15.249   6.483  1.00  0.00     0.039 C 
HETATM   22  C   UNL     1      44.652 -16.478   6.612  1.00  0.00     0.039 C 
HETATM   23  C   UNL     1      43.847 -14.607   5.064  1.00  0.00     0.070 C 
HETATM   24  C   UNL     1      42.431 -14.204   4.769  1.00  0.00    -0.049 A 
HETATM   25  C   UNL     1      41.535 -14.820   5.644  1.00  0.00    -0.049 A 
HETATM   26  C   UNL     1      41.976 -13.399   3.738  1.00  0.00     0.007 A 
HETATM   27  C   UNL     1      42.250 -15.709   6.611  1.00  0.00     0.070 C 
HETATM   28  C   UNL     1      40.167 -14.647   5.509  1.00  0.00     0.007 A 
HETATM   29  C   UNL     1      39.700 -13.830   4.478  1.00  0.00     0.001 A 
HETATM   30  C   UNL     1      40.599 -13.210   3.598  1.00  0.00     0.001 A 
ENDBRANCH   1  21
TORSDOF 6
ENDMDL
MODEL 5
REMARK VINA RESULT:      -7.9      4.475      6.867
REMARK  6 active torsions:
REMARK  status: ('A' for Active; 'I' for Inactive)
REMARK    1  A    between atoms: C_2  and  N_3 
REMARK       I    between atoms: N_3  and  C_4 
REMARK       I    between atoms: C_4  and  N_5 
REMARK    2  A    between atoms: N_5  and  C_6 
REMARK    3  A    between atoms: C_8  and  O_9 
REMARK    4  A    between atoms: O_9  and  C_10 
REMARK    5  A    between atoms: C_10  and  C_11 
REMARK    6  A    between atoms: C_11  and  N_12 
ROOT
HETATM    1  N   UNL     1      40.955 -12.149   7.026  1.00  0.00    -0.333 N 
HETATM    2  C   UNL     1      39.817 -12.825   6.693  1.00  0.00     0.321 C 
HETATM    3  N   UNL     1      39.987 -14.115   6.280  1.00  0.00    -0.309 N 
HETATM    4  O   UNL     1      38.685 -12.373   6.823  1.00  0.00    -0.247 OA
HETATM    5  H   UNL     1      41.730 -12.752   7.267  1.00  0.00     0.165 HD
HETATM    6  H   UNL     1      39.131 -14.655   6.357  1.00  0.00     0.170 HD
ENDROOT
BRANCH   3   7
HETATM    7  C   UNL     1      41.059 -14.728   5.609  1.00  0.00     0.039 A 
HETATM    8  C   UNL     1      41.921 -15.644   6.219  1.00  0.00     0.066 A 
HETATM    9  C   UNL     1      43.015 -16.144   5.513  1.00  0.00     0.070 A 
HETATM   10  C   UNL     1      43.232 -15.786   4.186  1.00  0.00     0.037 A 
HETATM   11  C   UNL     1      42.381 -14.868   3.575  1.00  0.00     0.005 A 
HETATM   12  C   UNL     1      41.311 -14.326   4.291  1.00  0.00     0.030 A 
BRANCH   9  13
HETATM   13  O   UNL     1      43.865 -17.049   6.082  1.00  0.00    -0.349 OA
BRANCH  13  14
HETATM   14  C   UNL     1      43.487 -18.410   5.805  1.00  0.00     0.197 C 
BRANCH  14  15
HETATM   15  C   UNL     1      44.673 -19.120   5.171  1.00  0.00     0.177 C 
BRANCH  15  16
HETATM   16  N   UNL     1      44.318 -19.775   3.929  1.00  0.00    -0.279 N 
HETATM   17  N   UNL     1      44.820 -20.994   3.652  1.00  0.00    -0.185 NA
HETATM   18  C   UNL     1      44.331 -21.269   2.440  1.00  0.00     0.140 A 
HETATM   19  C   UNL     1      43.513 -20.237   1.946  1.00  0.00     0.040 A 
HETATM   20  C   UNL     1      43.516 -19.286   2.938  1.00  0.00     0.113 A 
ENDBRANCH  15  16
ENDBRANCH  14  15
ENDBRANCH  13  14
ENDBRANCH   9  13
ENDBRANCH   3   7
BRANCH   1  21
HETATM   21  C   UNL     1      40.977 -10.773   7.572  1.00  0.00     0.039 C 
HETATM   22  C   UNL     1      40.589  -9.749   6.494  1.00  0.00     0.039 C 
HETATM   23  C   UNL     1      42.371 -10.443   8.194  1.00  0.00     0.070 C 
HETATM   24  C   UNL     1      42.176 -10.773   9.645  1.00  0.00    -0.049 A 
HETATM   25  C   UNL     1      40.823 -10.905   9.960  1.00  0.00    -0.049 A 
HETATM   26  C   UNL     1      43.146 -10.871  10.629  1.00  0.00     0.007 A 
HETATM   27  C   UNL     1      39.964 -10.668   8.759  1.00  0.00     0.070 C 
HETATM   28  C   UNL     1      40.408 -11.138  11.261  1.00  0.00     0.007 A 
HETATM   29  C   UNL     1      41.379 -11.248  12.257  1.00  0.00     0.001 A 
HETATM   30  C   UNL     1      42.740 -11.116  11.944  1.00  0.00     0.001 A 
ENDBRANCH   1  21
TORSDOF 6
ENDMDL
MODEL 6
REMARK VINA RESULT:      -7.9      2.843      5.447
REMARK  6 active torsions:
REMARK  status: ('A' for Active; 'I' for Inactive)
REMARK    1  A    between atoms: C_2  and  N_3 
REMARK       I    between atoms: N_3  and  C_4 
REMARK       I    between atoms: C_4  and  N_5 
REMARK    2  A    between atoms: N_5  and  C_6 
REMARK    3  A    between atoms: C_8  and  O_9 
REMARK    4  A    between atoms: O_9  and  C_10 
REMARK    5  A    between atoms: C_10  and  C_11 
REMARK    6  A    between atoms: C_11  and  N_12 
ROOT
HETATM    1  N   UNL     1      42.683 -17.236   4.988  1.00  0.00    -0.333 N 
HETATM    2  C   UNL     1      41.449 -16.771   5.339  1.00  0.00     0.321 C 
HETATM    3  N   UNL     1      40.548 -16.638   4.322  1.00  0.00    -0.309 N 
HETATM    4  O   UNL     1      41.098 -16.557   6.494  1.00  0.00    -0.247 OA
HETATM    5  H   UNL     1      42.692 -17.749   4.117  1.00  0.00     0.165 HD
HETATM    6  H   UNL     1      39.593 -16.607   4.662  1.00  0.00     0.170 HD
ENDROOT
BRANCH   3   7
HETATM    7  C   UNL     1      40.741 -16.348   2.960  1.00  0.00     0.039 A 
HETATM    8  C   UNL     1      40.271 -15.181   2.352  1.00  0.00     0.066 A 
HETATM    9  C   UNL     1      40.426 -15.004   0.977  1.00  0.00     0.070 A 
HETATM   10  C   UNL     1      41.092 -15.952   0.206  1.00  0.00     0.037 A 
HETATM   11  C   UNL     1      41.556 -17.120   0.805  1.00  0.00     0.005 A 
HETATM   12  C   UNL     1      41.363 -17.326   2.173  1.00  0.00     0.030 A 
BRANCH   9  13
HETATM   13  O   UNL     1      39.986 -13.867   0.360  1.00  0.00    -0.349 OA
BRANCH  13  14
HETATM   14  C   UNL     1      40.664 -13.619  -0.884  1.00  0.00     0.197 C 
BRANCH  14  15
HETATM   15  C   UNL     1      39.637 -13.162  -1.910  1.00  0.00     0.177 C 
BRANCH  15  16
HETATM   16  N   UNL     1      39.215 -14.240  -2.779  1.00  0.00    -0.279 N 
HETATM   17  N   UNL     1      37.919 -14.342  -3.133  1.00  0.00    -0.185 NA
HETATM   18  C   UNL     1      37.882 -15.445  -3.884  1.00  0.00     0.140 A 
HETATM   19  C   UNL     1      39.148 -16.043  -4.020  1.00  0.00     0.040 A 
HETATM   20  C   UNL     1      39.994 -15.233  -3.300  1.00  0.00     0.113 A 
ENDBRANCH  15  16
ENDBRANCH  14  15
ENDBRANCH  13  14
ENDBRANCH   9  13
ENDBRANCH   3   7
BRANCH   1  21
HETATM   21  C   UNL     1      43.770 -17.526   5.951  1.00  0.00     0.039 C 
HETATM   22  C   UNL     1      44.156 -16.265   6.739  1.00  0.00     0.039 C 
HETATM   23  C   UNL     1      45.007 -18.144   5.225  1.00  0.00     0.070 C 
HETATM   24  C   UNL     1      44.783 -19.620   5.380  1.00  0.00    -0.049 A 
HETATM   25  C   UNL     1      43.816 -19.889   6.348  1.00  0.00    -0.049 A 
HETATM   26  C   UNL     1      45.459 -20.650   4.746  1.00  0.00     0.007 A 
HETATM   27  C   UNL     1      43.294 -18.625   6.956  1.00  0.00     0.070 C 
HETATM   28  C   UNL     1      43.502 -21.190   6.707  1.00  0.00     0.007 A 
HETATM   29  C   UNL     1      44.170 -22.234   6.068  1.00  0.00     0.001 A 
HETATM   30  C   UNL     1      45.143 -21.966   5.093  1.00  0.00     0.001 A 
ENDBRANCH   1  21
TORSDOF 6
ENDMDL
MODEL 7
REMARK VINA RESULT:      -7.8      2.322      6.040
REMARK  6 active torsions:
REMARK  status: ('A' for Active; 'I' for Inactive)
REMARK    1  A    between atoms: C_2  and  N_3 
REMARK       I    between atoms: N_3  and  C_4 
REMARK       I    between atoms: C_4  and  N_5 
REMARK    2  A    between atoms: N_5  and  C_6 
REMARK    3  A    between atoms: C_8  and  O_9 
REMARK    4  A    between atoms: O_9  and  C_10 
REMARK    5  A    between atoms: C_10  and  C_11 
REMARK    6  A    between atoms: C_11  and  N_12 
ROOT
HETATM    1  N   UNL     1      41.460 -14.471   0.778  1.00  0.00    -0.333 N 
HETATM    2  C   UNL     1      41.130 -15.425  -0.141  1.00  0.00     0.321 C 
HETATM    3  N   UNL     1      41.181 -16.718   0.294  1.00  0.00    -0.309 N 
HETATM    4  O   UNL     1      40.722 -15.180  -1.271  1.00  0.00    -0.247 OA
HETATM    5  H   UNL     1      41.363 -14.779   1.736  1.00  0.00     0.165 HD
HETATM    6  H   UNL     1      40.636 -17.339  -0.294  1.00  0.00     0.170 HD
ENDROOT
BRANCH   3   7
HETATM    7  C   UNL     1      41.995 -17.325   1.266  1.00  0.00     0.039 A 
HETATM    8  C   UNL     1      41.571 -17.569   2.575  1.00  0.00     0.066 A 
HETATM    9  C   UNL     1      42.466 -18.097   3.507  1.00  0.00     0.070 A 
HETATM   10  C   UNL     1      43.763 -18.437   3.138  1.00  0.00     0.037 A 
HETATM   11  C   UNL     1      44.193 -18.189   1.836  1.00  0.00     0.005 A 
HETATM   12  C   UNL     1      43.318 -17.617   0.910  1.00  0.00     0.030 A 
BRANCH   9  13
HETATM   13  O   UNL     1      42.074 -18.356   4.790  1.00  0.00    -0.349 OA
BRANCH  13  14
HETATM   14  C   UNL     1      41.147 -17.376   5.290  1.00  0.00     0.197 C 
BRANCH  14  15
HETATM   15  C   UNL     1      41.778 -16.682   6.488  1.00  0.00     0.177 C 
BRANCH  15  16
HETATM   16  N   UNL     1      42.625 -15.576   6.095  1.00  0.00    -0.279 N 
HETATM   17  N   UNL     1      43.729 -15.294   6.813  1.00  0.00    -0.185 NA
HETATM   18  C   UNL     1      44.234 -14.216   6.208  1.00  0.00     0.140 A 
HETATM   19  C   UNL     1      43.463 -13.813   5.103  1.00  0.00     0.040 A 
HETATM   20  C   UNL     1      42.432 -14.720   5.049  1.00  0.00     0.113 A 
ENDBRANCH  15  16
ENDBRANCH  14  15
ENDBRANCH  13  14
ENDBRANCH   9  13
ENDBRANCH   3   7
BRANCH   1  21
HETATM   21  C   UNL     1      41.389 -13.014   0.528  1.00  0.00     0.039 C 
HETATM   22  C   UNL     1      42.029 -12.656  -0.823  1.00  0.00     0.039 C 
HETATM   23  C   UNL     1      42.048 -12.216   1.698  1.00  0.00     0.070 C 
HETATM   24  C   UNL     1      40.879 -11.892   2.582  1.00  0.00    -0.049 A 
HETATM   25  C   UNL     1      39.668 -12.092   1.919  1.00  0.00    -0.049 A 
HETATM   26  C   UNL     1      40.907 -11.380   3.869  1.00  0.00     0.007 A 
HETATM   27  C   UNL     1      39.893 -12.561   0.515  1.00  0.00     0.070 C 
HETATM   28  C   UNL     1      38.460 -11.786   2.522  1.00  0.00     0.007 A 
HETATM   29  C   UNL     1      38.477 -11.279   3.822  1.00  0.00     0.001 A 
HETATM   30  C   UNL     1      39.693 -11.077   4.492  1.00  0.00     0.001 A 
ENDBRANCH   1  21
TORSDOF 6
ENDMDL
MODEL 8
REMARK VINA RESULT:      -7.7      4.431      7.903
REMARK  6 active torsions:
REMARK  status: ('A' for Active; 'I' for Inactive)
REMARK    1  A    between atoms: C_2  and  N_3 
REMARK       I    between atoms: N_3  and  C_4 
REMARK       I    between atoms: C_4  and  N_5 
REMARK    2  A    between atoms: N_5  and  C_6 
REMARK    3  A    between atoms: C_8  and  O_9 
REMARK    4  A    between atoms: O_9  and  C_10 
REMARK    5  A    between atoms: C_10  and  C_11 
REMARK    6  A    between atoms: C_11  and  N_12 
ROOT
HETATM    1  N   UNL     1      41.814 -15.223   5.399  1.00  0.00    -0.333 N 
HETATM    2  C   UNL     1      40.618 -15.613   5.926  1.00  0.00     0.321 C 
HETATM    3  N   UNL     1      39.568 -14.765   5.719  1.00  0.00    -0.309 N 
HETATM    4  O   UNL     1      40.428 -16.690   6.481  1.00  0.00    -0.247 OA
HETATM    5  H   UNL     1      41.728 -14.560   4.641  1.00  0.00     0.165 HD
HETATM    6  H   UNL     1      38.675 -15.230   5.836  1.00  0.00     0.170 HD
ENDROOT
BRANCH   3   7
HETATM    7  C   UNL     1      39.535 -13.367   5.575  1.00  0.00     0.039 A 
HETATM    8  C   UNL     1      39.689 -12.484   6.648  1.00  0.00     0.066 A 
HETATM    9  C   UNL     1      39.557 -11.110   6.439  1.00  0.00     0.070 A 
HETATM   10  C   UNL     1      39.330 -10.600   5.165  1.00  0.00     0.037 A 
HETATM   11  C   UNL     1      39.169 -11.476   4.095  1.00  0.00     0.005 A 
HETATM   12  C   UNL     1      39.251 -12.855   4.303  1.00  0.00     0.030 A 
BRANCH   9  13
HETATM   13  O   UNL     1      39.715 -10.225   7.468  1.00  0.00    -0.349 OA
BRANCH  13  14
HETATM   14  C   UNL     1      39.913 -10.881   8.733  1.00  0.00     0.197 C 
BRANCH  14  15
HETATM   15  C   UNL     1      40.856 -10.034   9.574  1.00  0.00     0.177 C 
BRANCH  15  16
HETATM   16  N   UNL     1      42.148 -10.662   9.747  1.00  0.00    -0.279 N 
HETATM   17  N   UNL     1      42.980 -10.779   8.695  1.00  0.00    -0.185 NA
HETATM   18  C   UNL     1      44.035 -11.428   9.194  1.00  0.00     0.140 A 
HETATM   19  C   UNL     1      43.885 -11.719  10.562  1.00  0.00     0.040 A 
HETATM   20  C   UNL     1      42.656 -11.201  10.895  1.00  0.00     0.113 A 
ENDBRANCH  15  16
ENDBRANCH  14  15
ENDBRANCH  13  14
ENDBRANCH   9  13
ENDBRANCH   3   7
BRANCH   1  21
HETATM   21  C   UNL     1      43.050 -16.038   5.444  1.00  0.00     0.039 C 
HETATM   22  C   UNL     1      43.756 -15.891   6.800  1.00  0.00     0.039 C 
HETATM   23  C   UNL     1      44.003 -15.668   4.263  1.00  0.00     0.070 C 
HETATM   24  C   UNL     1      43.644 -16.680   3.214  1.00  0.00    -0.049 A 
HETATM   25  C   UNL     1      42.899 -17.730   3.752  1.00  0.00    -0.049 A 
HETATM   26  C   UNL     1      44.027 -16.691   1.883  1.00  0.00     0.007 A 
HETATM   27  C   UNL     1      42.688 -17.543   5.221  1.00  0.00     0.070 C 
HETATM   28  C   UNL     1      42.521 -18.813   2.976  1.00  0.00     0.007 A 
HETATM   29  C   UNL     1      42.894 -18.829   1.631  1.00  0.00     0.001 A 
HETATM   30  C   UNL     1      43.642 -17.774   1.088  1.00  0.00     0.001 A 
ENDBRANCH   1  21
TORSDOF 6
ENDMDL
MODEL 9
REMARK VINA RESULT:      -7.7      3.076      8.039
REMARK  6 active torsions:
REMARK  status: ('A' for Active; 'I' for Inactive)
REMARK    1  A    between atoms: C_2  and  N_3 
REMARK       I    between atoms: N_3  and  C_4 
REMARK       I    between atoms: C_4  and  N_5 
REMARK    2  A    between atoms: N_5  and  C_6 
REMARK    3  A    between atoms: C_8  and  O_9 
REMARK    4  A    between atoms: O_9  and  C_10 
REMARK    5  A    between atoms: C_10  and  C_11 
REMARK    6  A    between atoms: C_11  and  N_12 
ROOT
HETATM    1  N   UNL     1      41.859 -13.595  -0.756  1.00  0.00    -0.333 N 
HETATM    2  C   UNL     1      41.823 -12.830   0.373  1.00  0.00     0.321 C 
HETATM    3  N   UNL     1      42.164 -13.461   1.534  1.00  0.00    -0.309 N 
HETATM    4  O   UNL     1      41.592 -11.626   0.381  1.00  0.00    -0.247 OA
HETATM    5  H   UNL     1      42.450 -14.411  -0.676  1.00  0.00     0.165 HD
HETATM    6  H   UNL     1      42.431 -12.805   2.260  1.00  0.00     0.170 HD
ENDROOT
BRANCH   3   7
HETATM    7  C   UNL     1      42.016 -14.804   1.924  1.00  0.00     0.039 A 
HETATM    8  C   UNL     1      43.089 -15.611   2.311  1.00  0.00     0.066 A 
HETATM    9  C   UNL     1      42.874 -16.959   2.600  1.00  0.00     0.070 A 
HETATM   10  C   UNL     1      41.594 -17.502   2.564  1.00  0.00     0.037 A 
HETATM   11  C   UNL     1      40.522 -16.704   2.172  1.00  0.00     0.005 A 
HETATM   12  C   UNL     1      40.736 -15.365   1.834  1.00  0.00     0.030 A 
BRANCH   9  13
HETATM   13  O   UNL     1      43.904 -17.767   2.992  1.00  0.00    -0.349 OA
BRANCH  13  14
HETATM   14  C   UNL     1      43.451 -18.922   3.720  1.00  0.00     0.197 C 
BRANCH  14  15
HETATM   15  C   UNL     1      44.332 -19.094   4.949  1.00  0.00     0.177 C 
BRANCH  15  16
HETATM   16  N   UNL     1      43.795 -18.411   6.106  1.00  0.00    -0.279 N 
HETATM   17  N   UNL     1      42.555 -17.888   6.056  1.00  0.00    -0.185 NA
HETATM   18  C   UNL     1      42.405 -17.311   7.251  1.00  0.00     0.140 A 
HETATM   19  C   UNL     1      43.539 -17.470   8.067  1.00  0.00     0.040 A 
HETATM   20  C   UNL     1      44.420 -18.196   7.301  1.00  0.00     0.113 A 
ENDBRANCH  15  16
ENDBRANCH  14  15
ENDBRANCH  13  14
ENDBRANCH   9  13
ENDBRANCH   3   7
BRANCH   1  21
HETATM   21  C   UNL     1      41.603 -13.079  -2.121  1.00  0.00     0.039 C 
HETATM   22  C   UNL     1      42.661 -12.039  -2.521  1.00  0.00     0.039 C 
HETATM   23  C   UNL     1      40.159 -12.495  -2.234  1.00  0.00     0.070 C 
HETATM   24  C   UNL     1      39.370 -13.655  -2.769  1.00  0.00    -0.049 A 
HETATM   25  C   UNL     1      40.207 -14.651  -3.273  1.00  0.00    -0.049 A 
HETATM   26  C   UNL     1      37.993 -13.770  -2.865  1.00  0.00     0.007 A 
HETATM   27  C   UNL     1      41.647 -14.264  -3.140  1.00  0.00     0.070 C 
HETATM   28  C   UNL     1      39.691 -15.782  -3.883  1.00  0.00     0.007 A 
HETATM   29  C   UNL     1      38.304 -15.912  -3.975  1.00  0.00     0.001 A 
HETATM   30  C   UNL     1      37.461 -14.912  -3.469  1.00  0.00     0.001 A 
ENDBRANCH   1  21
TORSDOF 6
ENDMDL
MODEL 10
REMARK VINA RESULT:      -7.5      3.045      6.586
REMARK  6 active torsions:
REMARK  status: ('A' for Active; 'I' for Inactive)
REMARK    1  A    between atoms: C_2  and  N_3 
REMARK       I    between atoms: N_3  and  C_4 
REMARK       I    between atoms: C_4  and  N_5 
REMARK    2  A    between atoms: N_5  and  C_6 
REMARK    3  A    between atoms: C_8  and  O_9 
REMARK    4  A    between atoms: O_9  and  C_10 
REMARK    5  A    between atoms: C_10  and  C_11 
REMARK    6  A    between atoms: C_11  and  N_12 
ROOT
HETATM    1  N   UNL     1      41.593 -14.760   3.307  1.00  0.00    -0.333 N 
HETATM    2  C   UNL     1      40.549 -14.750   4.185  1.00  0.00     0.321 C 
HETATM    3  N   UNL     1      39.314 -14.537   3.643  1.00  0.00    -0.309 N 
HETATM    4  O   UNL     1      40.653 -14.999   5.381  1.00  0.00    -0.247 OA
HETATM    5  H   UNL     1      41.322 -14.958   2.354  1.00  0.00     0.165 HD
HETATM    6  H   UNL     1      38.570 -14.852   4.256  1.00  0.00     0.170 HD
ENDROOT
BRANCH   3   7
HETATM    7  C   UNL     1      38.926 -13.801   2.510  1.00  0.00     0.039 A 
HETATM    8  C   UNL     1      38.530 -14.396   1.310  1.00  0.00     0.066 A 
HETATM    9  C   UNL     1      38.242 -13.599   0.201  1.00  0.00     0.070 A 
HETATM   10  C   UNL     1      38.290 -12.211   0.289  1.00  0.00     0.037 A 
HETATM   11  C   UNL     1      38.691 -11.612   1.481  1.00  0.00     0.005 A 
HETATM   12  C   UNL     1      39.027 -12.405   2.581  1.00  0.00     0.030 A 
BRANCH   9  13
HETATM   13  O   UNL     1      37.842 -14.155  -0.980  1.00  0.00    -0.349 OA
BRANCH  13  14
HETATM   14  C   UNL     1      38.513 -13.580  -2.115  1.00  0.00     0.197 C 
BRANCH  14  15
HETATM   15  C   UNL     1      39.769 -14.392  -2.396  1.00  0.00     0.177 C 
BRANCH  15  16
HETATM   16  N   UNL     1      40.950 -13.560  -2.486  1.00  0.00    -0.279 N 
HETATM   17  N   UNL     1      41.671 -13.304  -1.377  1.00  0.00    -0.185 NA
HETATM   18  C   UNL     1      42.639 -12.493  -1.809  1.00  0.00     0.140 A 
HETATM   19  C   UNL     1      42.546 -12.235  -3.188  1.00  0.00     0.040 A 
HETATM   20  C   UNL     1      41.446 -12.949  -3.602  1.00  0.00     0.113 A 
ENDBRANCH  15  16
ENDBRANCH  14  15
ENDBRANCH  13  14
ENDBRANCH   9  13
ENDBRANCH   3   7
BRANCH   1  21
HETATM   21  C   UNL     1      42.995 -15.053   3.683  1.00  0.00     0.039 C 
HETATM   22  C   UNL     1      43.631 -13.858   4.411  1.00  0.00     0.039 C 
HETATM   23  C   UNL     1      43.832 -15.467   2.431  1.00  0.00     0.070 C 
HETATM   24  C   UNL     1      43.750 -16.966   2.454  1.00  0.00    -0.049 A 
HETATM   25  C   UNL     1      43.293 -17.432   3.687  1.00  0.00    -0.049 A 
HETATM   26  C   UNL     1      44.133 -17.850   1.459  1.00  0.00     0.007 A 
HETATM   27  C   UNL     1      43.030 -16.299   4.628  1.00  0.00     0.070 C 
HETATM   28  C   UNL     1      43.209 -18.788   3.955  1.00  0.00     0.007 A 
HETATM   29  C   UNL     1      43.583 -19.687   2.956  1.00  0.00     0.001 A 
HETATM   30  C   UNL     1      44.043 -19.221   1.715  1.00  0.00     0.001 A 
ENDBRANCH   1  21
TORSDOF 6
ENDMDL
