MODEL 1
REMARK VINA RESULT:      -8.5      0.000      0.000
REMARK  5 active torsions:
REMARK  status: ('A' for Active; 'I' for Inactive)
REMARK    1  A    between atoms: C_5  and  C_6 
REMARK    2  A    between atoms: C_10  and  C_11 
REMARK       I    between atoms: C_11  and  N_12 
REMARK    3  A    between atoms: N_12  and  C_13 
REMARK    4  A    between atoms: C_13  and  C_14 
REMARK    5  A    between atoms: C_14  and  O_15 
ROOT
HETATM    1  C   UNL     1      42.317 -17.455   2.877  1.00  0.00     0.068 A 
HETATM    2  N   UNL     1      41.780 -17.027   4.047  1.00  0.00    -0.248 NA
HETATM    3  C   UNL     1      41.155 -15.839   4.112  1.00  0.00     0.068 A 
HETATM    4  C   UNL     1      40.995 -14.995   2.999  1.00  0.00     0.008 A 
HETATM    5  C   UNL     1      41.512 -15.484   1.781  1.00  0.00     0.046 A 
HETATM    6  C   UNL     1      42.188 -16.705   1.721  1.00  0.00     0.050 A 
HETATM    7  C   UNL     1      40.658 -15.428   5.341  1.00  0.00     0.032 A 
HETATM    8  C   UNL     1      40.020 -14.197   5.510  1.00  0.00     0.002 A 
HETATM    9  C   UNL     1      39.879 -13.344   4.425  1.00  0.00     0.001 A 
HETATM   10  C   UNL     1      40.366 -13.735   3.179  1.00  0.00     0.015 A 
ENDROOT
BRANCH   5  11
HETATM   11  C   UNL     1      41.404 -14.749   0.501  1.00  0.00     0.252 C 
HETATM   12  N   UNL     1      40.617 -15.334  -0.460  1.00  0.00    -0.354 N 
HETATM   13  H   UNL     1      40.128 -16.204  -0.274  1.00  0.00     0.162 HD
HETATM   14  O   UNL     1      42.045 -13.719   0.337  1.00  0.00    -0.268 OA
BRANCH  12  15
HETATM   15  C   UNL     1      40.375 -14.721  -1.754  1.00  0.00     0.154 C 
BRANCH  15  16
HETATM   16  C   UNL     1      40.739 -15.663  -2.910  1.00  0.00     0.132 C 
HETATM   17  C   UNL     1      39.605 -15.815  -3.917  1.00  0.00     0.041 C 
BRANCH  16  18
HETATM   18  O   UNL     1      41.897 -15.154  -3.581  1.00  0.00    -0.394 OA
HETATM   19  H   UNL     1      42.595 -15.053  -2.911  1.00  0.00     0.210 HD
ENDBRANCH  16  18
ENDBRANCH  15  16
ENDBRANCH  12  15
ENDBRANCH   5  11
BRANCH   1  20
HETATM   20  C   UNL     1      43.028 -18.753   2.931  1.00  0.00    -0.007 A 
HETATM   21  C   UNL     1      42.918 -19.679   1.877  1.00  0.00     0.014 A 
HETATM   22  C   UNL     1      43.574 -20.916   1.908  1.00  0.00     0.007 A 
HETATM   23  C   UNL     1      44.358 -21.272   3.008  1.00  0.00    -0.062 A 
HETATM   24  C   UNL     1      45.079 -22.585   3.050  1.00  0.00     0.048 C 
HETATM   25  C   UNL     1      44.485 -20.366   4.064  1.00  0.00     0.007 A 
HETATM   26  C   UNL     1      43.825 -19.131   4.027  1.00  0.00     0.014 A 
ENDBRANCH   1  20
TORSDOF 5
ENDMDL
MODEL 2
REMARK VINA RESULT:      -8.5      1.302      1.314
REMARK  5 active torsions:
REMARK  status: ('A' for Active; 'I' for Inactive)
REMARK    1  A    between atoms: C_5  and  C_6 
REMARK    2  A    between atoms: C_10  and  C_11 
REMARK       I    between atoms: C_11  and  N_12 
REMARK    3  A    between atoms: N_12  and  C_13 
REMARK    4  A    between atoms: C_13  and  C_14 
REMARK    5  A    between atoms: C_14  and  O_15 
ROOT
HETATM    1  C   UNL     1      42.921 -17.336   2.884  1.00  0.00     0.068 A 
HETATM    2  N   UNL     1      43.200 -16.556   3.958  1.00  0.00    -0.248 NA
HETATM    3  C   UNL     1      42.812 -15.269   3.979  1.00  0.00     0.068 A 
HETATM    4  C   UNL     1      42.088 -14.669   2.935  1.00  0.00     0.008 A 
HETATM    5  C   UNL     1      41.761 -15.513   1.853  1.00  0.00     0.046 A 
HETATM    6  C   UNL     1      42.191 -16.841   1.818  1.00  0.00     0.050 A 
HETATM    7  C   UNL     1      43.157 -14.501   5.083  1.00  0.00     0.032 A 
HETATM    8  C   UNL     1      42.822 -13.148   5.180  1.00  0.00     0.002 A 
HETATM    9  C   UNL     1      42.129 -12.538   4.144  1.00  0.00     0.001 A 
HETATM   10  C   UNL     1      41.768 -13.289   3.027  1.00  0.00     0.015 A 
ENDROOT
BRANCH   5  11
HETATM   11  C   UNL     1      40.973 -15.065   0.683  1.00  0.00     0.252 C 
HETATM   12  N   UNL     1      41.689 -14.825  -0.464  1.00  0.00    -0.354 N 
HETATM   13  H   UNL     1      42.692 -14.977  -0.492  1.00  0.00     0.162 HD
HETATM   14  O   UNL     1      39.769 -14.877   0.800  1.00  0.00    -0.268 OA
BRANCH  12  15
HETATM   15  C   UNL     1      41.061 -14.419  -1.708  1.00  0.00     0.154 C 
BRANCH  15  16
HETATM   16  C   UNL     1      41.149 -15.515  -2.778  1.00  0.00     0.132 C 
HETATM   17  C   UNL     1      39.844 -15.686  -3.547  1.00  0.00     0.041 C 
BRANCH  16  18
HETATM   18  O   UNL     1      42.196 -15.187  -3.698  1.00  0.00    -0.394 OA
HETATM   19  H   UNL     1      41.896 -15.459  -4.583  1.00  0.00     0.210 HD
ENDBRANCH  16  18
ENDBRANCH  15  16
ENDBRANCH  12  15
ENDBRANCH   5  11
BRANCH   1  20
HETATM   20  C   UNL     1      43.442 -18.722   2.942  1.00  0.00    -0.007 A 
HETATM   21  C   UNL     1      43.193 -19.630   1.897  1.00  0.00     0.014 A 
HETATM   22  C   UNL     1      43.667 -20.946   1.932  1.00  0.00     0.007 A 
HETATM   23  C   UNL     1      44.402 -21.403   3.028  1.00  0.00    -0.062 A 
HETATM   24  C   UNL     1      44.930 -22.806   3.074  1.00  0.00     0.048 C 
HETATM   25  C   UNL     1      44.666 -20.518   4.076  1.00  0.00     0.007 A 
HETATM   26  C   UNL     1      44.186 -19.202   4.035  1.00  0.00     0.014 A 
ENDBRANCH   1  20
TORSDOF 5
ENDMDL
MODEL 3
REMARK VINA RESULT:      -8.4      1.481      2.233
REMARK  5 active torsions:
REMARK  status: ('A' for Active; 'I' for Inactive)
REMARK    1  A    between atoms: C_5  and  C_6 
REMARK    2  A    between atoms: C_10  and  C_11 
REMARK       I    between atoms: C_11  and  N_12 
REMARK    3  A    between atoms: N_12  and  C_13 
REMARK    4  A    between atoms: C_13  and  C_14 
REMARK    5  A    between atoms: C_14  and  O_15 
ROOT
HETATM    1  C   UNL     1      41.924 -16.600   1.978  1.00  0.00     0.068 A 
HETATM    2  N   UNL     1      41.241 -15.847   2.876  1.00  0.00    -0.248 NA
HETATM    3  C   UNL     1      40.543 -14.774   2.468  1.00  0.00     0.068 A 
HETATM    4  C   UNL     1      40.451 -14.385   1.120  1.00  0.00     0.008 A 
HETATM    5  C   UNL     1      41.123 -15.215   0.197  1.00  0.00     0.046 A 
HETATM    6  C   UNL     1      41.873 -16.312   0.625  1.00  0.00     0.050 A 
HETATM    7  C   UNL     1      39.894 -14.011   3.430  1.00  0.00     0.032 A 
HETATM    8  C   UNL     1      39.169 -12.864   3.103  1.00  0.00     0.002 A 
HETATM    9  C   UNL     1      39.092 -12.456   1.780  1.00  0.00     0.001 A 
HETATM   10  C   UNL     1      39.731 -13.206   0.794  1.00  0.00     0.015 A 
ENDROOT
BRANCH   5  11
HETATM   11  C   UNL     1      41.106 -14.982  -1.264  1.00  0.00     0.252 C 
HETATM   12  N   UNL     1      40.389 -15.888  -2.006  1.00  0.00    -0.354 N 
HETATM   13  H   UNL     1      39.888 -16.647  -1.558  1.00  0.00     0.162 HD
HETATM   14  O   UNL     1      41.757 -14.060  -1.738  1.00  0.00    -0.268 OA
BRANCH  12  15
HETATM   15  C   UNL     1      40.241 -15.777  -3.446  1.00  0.00     0.154 C 
BRANCH  15  16
HETATM   16  C   UNL     1      38.850 -16.224  -3.915  1.00  0.00     0.132 C 
HETATM   17  C   UNL     1      37.806 -15.122  -3.780  1.00  0.00     0.041 C 
BRANCH  16  18
HETATM   18  O   UNL     1      38.927 -16.633  -5.285  1.00  0.00    -0.394 OA
HETATM   19  H   UNL     1      38.069 -17.029  -5.515  1.00  0.00     0.210 HD
ENDBRANCH  16  18
ENDBRANCH  15  16
ENDBRANCH  12  15
ENDBRANCH   5  11
BRANCH   1  20
HETATM   20  C   UNL     1      42.703 -17.727   2.543  1.00  0.00    -0.007 A 
HETATM   21  C   UNL     1      43.023 -17.766   3.913  1.00  0.00     0.014 A 
HETATM   22  C   UNL     1      43.763 -18.816   4.469  1.00  0.00     0.007 A 
HETATM   23  C   UNL     1      44.221 -19.862   3.665  1.00  0.00    -0.062 A 
HETATM   24  C   UNL     1      45.003 -21.000   4.247  1.00  0.00     0.048 C 
HETATM   25  C   UNL     1      43.912 -19.846   2.302  1.00  0.00     0.007 A 
HETATM   26  C   UNL     1      43.172 -18.791   1.751  1.00  0.00     0.014 A 
ENDBRANCH   1  20
TORSDOF 5
ENDMDL
MODEL 4
REMARK VINA RESULT:      -8.4      4.066      6.237
REMARK  5 active torsions:
REMARK  status: ('A' for Active; 'I' for Inactive)
REMARK    1  A    between atoms: C_5  and  C_6 
REMARK    2  A    between atoms: C_10  and  C_11 
REMARK       I    between atoms: C_11  and  N_12 
REMARK    3  A    between atoms: N_12  and  C_13 
REMARK    4  A    between atoms: C_13  and  C_14 
REMARK    5  A    between atoms: C_14  and  O_15 
ROOT
HETATM    1  C   UNL     1      43.037 -17.208   4.278  1.00  0.00     0.068 A 
HETATM    2  N   UNL     1      41.981 -16.566   3.719  1.00  0.00    -0.248 NA
HETATM    3  C   UNL     1      41.521 -15.423   4.255  1.00  0.00     0.068 A 
HETATM    4  C   UNL     1      42.103 -14.815   5.381  1.00  0.00     0.008 A 
HETATM    5  C   UNL     1      43.234 -15.469   5.913  1.00  0.00     0.046 A 
HETATM    6  C   UNL     1      43.692 -16.673   5.374  1.00  0.00     0.050 A 
HETATM    7  C   UNL     1      40.412 -14.826   3.670  1.00  0.00     0.032 A 
HETATM    8  C   UNL     1      39.848 -13.653   4.176  1.00  0.00     0.002 A 
HETATM    9  C   UNL     1      40.397 -13.058   5.301  1.00  0.00     0.001 A 
HETATM   10  C   UNL     1      41.514 -13.635   5.905  1.00  0.00     0.015 A 
ENDROOT
BRANCH   5  11
HETATM   11  C   UNL     1      43.997 -14.957   7.073  1.00  0.00     0.252 C 
HETATM   12  N   UNL     1      44.653 -13.766   6.879  1.00  0.00    -0.354 N 
HETATM   13  H   UNL     1      44.585 -13.273   5.995  1.00  0.00     0.162 HD
HETATM   14  O   UNL     1      44.056 -15.620   8.100  1.00  0.00    -0.268 OA
BRANCH  12  15
HETATM   15  C   UNL     1      45.411 -13.110   7.930  1.00  0.00     0.154 C 
BRANCH  15  16
HETATM   16  C   UNL     1      44.496 -12.387   8.928  1.00  0.00     0.132 C 
HETATM   17  C   UNL     1      45.217 -11.270   9.675  1.00  0.00     0.041 C 
BRANCH  16  18
HETATM   18  O   UNL     1      43.379 -11.835   8.223  1.00  0.00    -0.394 OA
HETATM   19  H   UNL     1      43.082 -11.054   8.722  1.00  0.00     0.210 HD
ENDBRANCH  16  18
ENDBRANCH  15  16
ENDBRANCH  12  15
ENDBRANCH   5  11
BRANCH   1  20
HETATM   20  C   UNL     1      43.427 -18.486   3.639  1.00  0.00    -0.007 A 
HETATM   21  C   UNL     1      42.868 -18.875   2.407  1.00  0.00     0.014 A 
HETATM   22  C   UNL     1      43.214 -20.081   1.787  1.00  0.00     0.007 A 
HETATM   23  C   UNL     1      44.128 -20.948   2.388  1.00  0.00    -0.062 A 
HETATM   24  C   UNL     1      44.520 -22.236   1.729  1.00  0.00     0.048 C 
HETATM   25  C   UNL     1      44.699 -20.581   3.609  1.00  0.00     0.007 A 
HETATM   26  C   UNL     1      44.347 -19.373   4.226  1.00  0.00     0.014 A 
ENDBRANCH   1  20
TORSDOF 5
ENDMDL
MODEL 5
REMARK VINA RESULT:      -8.3      3.338      7.603
REMARK  5 active torsions:
REMARK  status: ('A' for Active; 'I' for Inactive)
REMARK    1  A    between atoms: C_5  and  C_6 
REMARK    2  A    between atoms: C_10  and  C_11 
REMARK       I    between atoms: C_11  and  N_12 
REMARK    3  A    between atoms: N_12  and  C_13 
REMARK    4  A    between atoms: C_13  and  C_14 
REMARK    5  A    between atoms: C_14  and  O_15 
ROOT
HETATM    1  C   UNL     1      41.688 -16.959   2.408  1.00  0.00     0.068 A 
HETATM    2  N   UNL     1      42.113 -18.088   1.785  1.00  0.00    -0.248 NA
HETATM    3  C   UNL     1      42.916 -18.954   2.426  1.00  0.00     0.068 A 
HETATM    4  C   UNL     1      43.335 -18.771   3.756  1.00  0.00     0.008 A 
HETATM    5  C   UNL     1      42.837 -17.620   4.402  1.00  0.00     0.046 A 
HETATM    6  C   UNL     1      42.028 -16.705   3.725  1.00  0.00     0.050 A 
HETATM    7  C   UNL     1      43.356 -20.073   1.733  1.00  0.00     0.032 A 
HETATM    8  C   UNL     1      44.215 -21.012   2.308  1.00  0.00     0.002 A 
HETATM    9  C   UNL     1      44.657 -20.829   3.610  1.00  0.00     0.001 A 
HETATM   10  C   UNL     1      44.226 -19.716   4.330  1.00  0.00     0.015 A 
ENDROOT
BRANCH   5  11
HETATM   11  C   UNL     1      43.143 -17.284   5.810  1.00  0.00     0.252 C 
HETATM   12  N   UNL     1      43.935 -16.179   6.003  1.00  0.00    -0.354 N 
HETATM   13  H   UNL     1      44.258 -15.627   5.215  1.00  0.00     0.162 HD
HETATM   14  O   UNL     1      42.741 -18.012   6.708  1.00  0.00    -0.268 OA
BRANCH  12  15
HETATM   15  C   UNL     1      44.292 -15.693   7.324  1.00  0.00     0.154 C 
BRANCH  15  16
HETATM   16  C   UNL     1      44.524 -14.176   7.332  1.00  0.00     0.132 C 
HETATM   17  C   UNL     1      43.581 -13.437   6.391  1.00  0.00     0.041 C 
BRANCH  16  18
HETATM   18  O   UNL     1      44.340 -13.683   8.664  1.00  0.00    -0.394 OA
HETATM   19  H   UNL     1      43.619 -14.199   9.064  1.00  0.00     0.210 HD
ENDBRANCH  16  18
ENDBRANCH  15  16
ENDBRANCH  12  15
ENDBRANCH   5  11
BRANCH   1  20
HETATM   20  C   UNL     1      40.851 -16.049   1.591  1.00  0.00    -0.007 A 
HETATM   21  C   UNL     1      41.276 -15.631   0.316  1.00  0.00     0.014 A 
HETATM   22  C   UNL     1      40.507 -14.766  -0.472  1.00  0.00     0.007 A 
HETATM   23  C   UNL     1      39.286 -14.280  -0.002  1.00  0.00    -0.062 A 
HETATM   24  C   UNL     1      38.444 -13.365  -0.839  1.00  0.00     0.048 C 
HETATM   25  C   UNL     1      38.842 -14.685   1.260  1.00  0.00     0.007 A 
HETATM   26  C   UNL     1      39.617 -15.550   2.044  1.00  0.00     0.014 A 
ENDBRANCH   1  20
TORSDOF 5
ENDMDL
MODEL 6
REMARK VINA RESULT:      -8.2      2.630      5.329
REMARK  5 active torsions:
REMARK  status: ('A' for Active; 'I' for Inactive)
REMARK    1  A    between atoms: C_5  and  C_6 
REMARK    2  A    between atoms: C_10  and  C_11 
REMARK       I    between atoms: C_11  and  N_12 
REMARK    3  A    between atoms: N_12  and  C_13 
REMARK    4  A    between atoms: C_13  and  C_14 
REMARK    5  A    between atoms: C_14  and  O_15 
ROOT
HETATM    1  C   UNL     1      43.246 -17.746   2.411  1.00  0.00     0.068 A 
HETATM    2  N   UNL     1      42.593 -17.575   1.233  1.00  0.00    -0.248 NA
HETATM    3  C   UNL     1      42.136 -16.361   0.883  1.00  0.00     0.068 A 
HETATM    4  C   UNL     1      42.321 -15.214   1.674  1.00  0.00     0.008 A 
HETATM    5  C   UNL     1      43.050 -15.404   2.866  1.00  0.00     0.046 A 
HETATM    6  C   UNL     1      43.498 -16.671   3.245  1.00  0.00     0.050 A 
HETATM    7  C   UNL     1      41.439 -16.245  -0.313  1.00  0.00     0.032 A 
HETATM    8  C   UNL     1      40.902 -15.031  -0.744  1.00  0.00     0.002 A 
HETATM    9  C   UNL     1      41.056 -13.897   0.040  1.00  0.00     0.001 A 
HETATM   10  C   UNL     1      41.755 -13.985   1.242  1.00  0.00     0.015 A 
ENDROOT
BRANCH   5  11
HETATM   11  C   UNL     1      43.372 -14.305   3.804  1.00  0.00     0.252 C 
HETATM   12  N   UNL     1      42.924 -14.467   5.092  1.00  0.00    -0.354 N 
HETATM   13  H   UNL     1      42.426 -15.307   5.368  1.00  0.00     0.162 HD
HETATM   14  O   UNL     1      43.952 -13.309   3.393  1.00  0.00    -0.268 OA
BRANCH  12  15
HETATM   15  C   UNL     1      43.192 -13.500   6.141  1.00  0.00     0.154 C 
BRANCH  15  16
HETATM   16  C   UNL     1      44.207 -14.031   7.163  1.00  0.00     0.132 C 
HETATM   17  C   UNL     1      44.159 -15.548   7.298  1.00  0.00     0.041 C 
BRANCH  16  18
HETATM   18  O   UNL     1      45.523 -13.637   6.761  1.00  0.00    -0.394 OA
HETATM   19  H   UNL     1      45.517 -12.669   6.668  1.00  0.00     0.210 HD
ENDBRANCH  16  18
ENDBRANCH  15  16
ENDBRANCH  12  15
ENDBRANCH   5  11
BRANCH   1  20
HETATM   20  C   UNL     1      43.660 -19.135   2.722  1.00  0.00    -0.007 A 
HETATM   21  C   UNL     1      44.290 -19.442   3.941  1.00  0.00     0.014 A 
HETATM   22  C   UNL     1      44.697 -20.744   4.255  1.00  0.00     0.007 A 
HETATM   23  C   UNL     1      44.494 -21.786   3.348  1.00  0.00    -0.062 A 
HETATM   24  C   UNL     1      44.910 -23.188   3.675  1.00  0.00     0.048 C 
HETATM   25  C   UNL     1      43.866 -21.505   2.132  1.00  0.00     0.007 A 
HETATM   26  C   UNL     1      43.463 -20.199   1.823  1.00  0.00     0.014 A 
ENDBRANCH   1  20
TORSDOF 5
ENDMDL
MODEL 7
REMARK VINA RESULT:      -8.2      2.422      4.921
REMARK  5 active torsions:
REMARK  status: ('A' for Active; 'I' for Inactive)
REMARK    1  A    between atoms: C_5  and  C_6 
REMARK    2  A    between atoms: C_10  and  C_11 
REMARK       I    between atoms: C_11  and  N_12 
REMARK    3  A    between atoms: N_12  and  C_13 
REMARK    4  A    between atoms: C_13  and  C_14 
REMARK    5  A    between atoms: C_14  and  O_15 
ROOT
HETATM    1  C   UNL     1      43.048 -17.485   2.269  1.00  0.00     0.068 A 
HETATM    2  N   UNL     1      42.499 -17.320   1.039  1.00  0.00    -0.248 NA
HETATM    3  C   UNL     1      42.008 -16.124   0.671  1.00  0.00     0.068 A 
HETATM    4  C   UNL     1      42.052 -14.989   1.500  1.00  0.00     0.008 A 
HETATM    5  C   UNL     1      42.677 -15.169   2.751  1.00  0.00     0.046 A 
HETATM    6  C   UNL     1      43.160 -16.419   3.145  1.00  0.00     0.050 A 
HETATM    7  C   UNL     1      41.419 -16.016  -0.582  1.00  0.00     0.032 A 
HETATM    8  C   UNL     1      40.857 -14.822  -1.037  1.00  0.00     0.002 A 
HETATM    9  C   UNL     1      40.872 -13.702  -0.219  1.00  0.00     0.001 A 
HETATM   10  C   UNL     1      41.460 -13.783   1.042  1.00  0.00     0.015 A 
ENDROOT
BRANCH   5  11
HETATM   11  C   UNL     1      42.847 -14.079   3.738  1.00  0.00     0.252 C 
HETATM   12  N   UNL     1      41.830 -13.931   4.648  1.00  0.00    -0.354 N 
HETATM   13  H   UNL     1      41.032 -14.559   4.643  1.00  0.00     0.162 HD
HETATM   14  O   UNL     1      43.823 -13.344   3.666  1.00  0.00    -0.268 OA
BRANCH  12  15
HETATM   15  C   UNL     1      41.863 -12.937   5.705  1.00  0.00     0.154 C 
BRANCH  15  16
HETATM   16  C   UNL     1      40.458 -12.435   6.064  1.00  0.00     0.132 C 
HETATM   17  C   UNL     1      39.580 -12.231   4.835  1.00  0.00     0.041 C 
BRANCH  16  18
HETATM   18  O   UNL     1      39.832 -13.383   6.935  1.00  0.00    -0.394 OA
HETATM   19  H   UNL     1      38.897 -13.125   7.015  1.00  0.00     0.210 HD
ENDBRANCH  16  18
ENDBRANCH  15  16
ENDBRANCH  12  15
ENDBRANCH   5  11
BRANCH   1  20
HETATM   20  C   UNL     1      43.509 -18.856   2.589  1.00  0.00    -0.007 A 
HETATM   21  C   UNL     1      44.169 -19.128   3.802  1.00  0.00     0.014 A 
HETATM   22  C   UNL     1      44.621 -20.413   4.124  1.00  0.00     0.007 A 
HETATM   23  C   UNL     1      44.436 -21.472   3.233  1.00  0.00    -0.062 A 
HETATM   24  C   UNL     1      44.901 -22.857   3.570  1.00  0.00     0.048 C 
HETATM   25  C   UNL     1      43.780 -21.225   2.024  1.00  0.00     0.007 A 
HETATM   26  C   UNL     1      43.331 -19.936   1.707  1.00  0.00     0.014 A 
ENDBRANCH   1  20
TORSDOF 5
ENDMDL
MODEL 8
REMARK VINA RESULT:      -8.0      2.288      3.723
REMARK  5 active torsions:
REMARK  status: ('A' for Active; 'I' for Inactive)
REMARK    1  A    between atoms: C_5  and  C_6 
REMARK    2  A    between atoms: C_10  and  C_11 
REMARK       I    between atoms: C_11  and  N_12 
REMARK    3  A    between atoms: N_12  and  C_13 
REMARK    4  A    between atoms: C_13  and  C_14 
REMARK    5  A    between atoms: C_14  and  O_15 
ROOT
HETATM    1  C   UNL     1      42.088 -15.749   0.780  1.00  0.00     0.068 A 
HETATM    2  N   UNL     1      42.090 -14.509   1.329  1.00  0.00    -0.248 NA
HETATM    3  C   UNL     1      41.644 -13.455   0.624  1.00  0.00     0.068 A 
HETATM    4  C   UNL     1      41.134 -13.565  -0.681  1.00  0.00     0.008 A 
HETATM    5  C   UNL     1      41.089 -14.872  -1.211  1.00  0.00     0.046 A 
HETATM    6  C   UNL     1      41.581 -15.962  -0.490  1.00  0.00     0.050 A 
HETATM    7  C   UNL     1      41.705 -12.200   1.216  1.00  0.00     0.032 A 
HETATM    8  C   UNL     1      41.292 -11.045   0.549  1.00  0.00     0.002 A 
HETATM    9  C   UNL     1      40.810 -11.137  -0.748  1.00  0.00     0.001 A 
HETATM   10  C   UNL     1      40.735 -12.386  -1.363  1.00  0.00     0.015 A 
ENDROOT
BRANCH   5  11
HETATM   11  C   UNL     1      40.552 -15.184  -2.555  1.00  0.00     0.252 C 
HETATM   12  N   UNL     1      39.198 -15.405  -2.621  1.00  0.00    -0.354 N 
HETATM   13  H   UNL     1      38.617 -15.329  -1.792  1.00  0.00     0.162 HD
HETATM   14  O   UNL     1      41.317 -15.286  -3.504  1.00  0.00    -0.268 OA
BRANCH  12  15
HETATM   15  C   UNL     1      38.511 -15.682  -3.869  1.00  0.00     0.154 C 
BRANCH  15  16
HETATM   16  C   UNL     1      37.237 -14.839  -4.020  1.00  0.00     0.132 C 
HETATM   17  C   UNL     1      37.425 -13.406  -3.537  1.00  0.00     0.041 C 
BRANCH  16  18
HETATM   18  O   UNL     1      36.848 -14.822  -5.398  1.00  0.00    -0.394 OA
HETATM   19  H   UNL     1      37.006 -15.715  -5.751  1.00  0.00     0.210 HD
ENDBRANCH  16  18
ENDBRANCH  15  16
ENDBRANCH  12  15
ENDBRANCH   5  11
BRANCH   1  20
HETATM   20  C   UNL     1      42.650 -16.829   1.625  1.00  0.00    -0.007 A 
HETATM   21  C   UNL     1      43.556 -17.764   1.091  1.00  0.00     0.014 A 
HETATM   22  C   UNL     1      44.095 -18.796   1.867  1.00  0.00     0.007 A 
HETATM   23  C   UNL     1      43.735 -18.935   3.208  1.00  0.00    -0.062 A 
HETATM   24  C   UNL     1      44.314 -20.026   4.056  1.00  0.00     0.048 C 
HETATM   25  C   UNL     1      42.840 -18.015   3.762  1.00  0.00     0.007 A 
HETATM   26  C   UNL     1      42.302 -16.984   2.979  1.00  0.00     0.014 A 
ENDBRANCH   1  20
TORSDOF 5
ENDMDL
MODEL 9
REMARK VINA RESULT:      -7.8      4.057      8.221
REMARK  5 active torsions:
REMARK  status: ('A' for Active; 'I' for Inactive)
REMARK    1  A    between atoms: C_5  and  C_6 
REMARK    2  A    between atoms: C_10  and  C_11 
REMARK       I    between atoms: C_11  and  N_12 
REMARK    3  A    between atoms: N_12  and  C_13 
REMARK    4  A    between atoms: C_13  and  C_14 
REMARK    5  A    between atoms: C_14  and  O_15 
ROOT
HETATM    1  C   UNL     1      41.733 -15.099   4.445  1.00  0.00     0.068 A 
HETATM    2  N   UNL     1      41.770 -16.450   4.570  1.00  0.00    -0.248 NA
HETATM    3  C   UNL     1      42.721 -17.036   5.317  1.00  0.00     0.068 A 
HETATM    4  C   UNL     1      43.698 -16.311   6.022  1.00  0.00     0.008 A 
HETATM    5  C   UNL     1      43.607 -14.906   5.923  1.00  0.00     0.046 A 
HETATM    6  C   UNL     1      42.638 -14.299   5.122  1.00  0.00     0.050 A 
HETATM    7  C   UNL     1      42.741 -18.422   5.381  1.00  0.00     0.032 A 
HETATM    8  C   UNL     1      43.709 -19.118   6.108  1.00  0.00     0.002 A 
HETATM    9  C   UNL     1      44.693 -18.415   6.787  1.00  0.00     0.001 A 
HETATM   10  C   UNL     1      44.693 -17.022   6.743  1.00  0.00     0.015 A 
ENDROOT
BRANCH   5  11
HETATM   11  C   UNL     1      44.527 -13.983   6.625  1.00  0.00     0.252 C 
HETATM   12  N   UNL     1      44.135 -13.587   7.880  1.00  0.00    -0.354 N 
HETATM   13  H   UNL     1      43.277 -13.939   8.292  1.00  0.00     0.162 HD
HETATM   14  O   UNL     1      45.531 -13.579   6.054  1.00  0.00    -0.268 OA
BRANCH  12  15
HETATM   15  C   UNL     1      44.944 -12.717   8.715  1.00  0.00     0.154 C 
BRANCH  15  16
HETATM   16  C   UNL     1      44.089 -11.682   9.459  1.00  0.00     0.132 C 
HETATM   17  C   UNL     1      44.931 -10.716  10.284  1.00  0.00     0.041 C 
BRANCH  16  18
HETATM   18  O   UNL     1      43.320 -10.939   8.508  1.00  0.00    -0.394 OA
HETATM   19  H   UNL     1      43.063 -10.104   8.935  1.00  0.00     0.210 HD
ENDBRANCH  16  18
ENDBRANCH  15  16
ENDBRANCH  12  15
ENDBRANCH   5  11
BRANCH   1  20
HETATM   20  C   UNL     1      40.676 -14.563   3.556  1.00  0.00    -0.007 A 
HETATM   21  C   UNL     1      40.053 -15.387   2.601  1.00  0.00     0.014 A 
HETATM   22  C   UNL     1      39.057 -14.903   1.745  1.00  0.00     0.007 A 
HETATM   23  C   UNL     1      38.659 -13.566   1.809  1.00  0.00    -0.062 A 
HETATM   24  C   UNL     1      37.584 -13.035   0.909  1.00  0.00     0.048 C 
HETATM   25  C   UNL     1      39.262 -12.730   2.753  1.00  0.00     0.007 A 
HETATM   26  C   UNL     1      40.259 -13.221   3.606  1.00  0.00     0.014 A 
ENDBRANCH   1  20
TORSDOF 5
ENDMDL
MODEL 10
REMARK VINA RESULT:      -7.7      1.602      2.090
REMARK  5 active torsions:
REMARK  status: ('A' for Active; 'I' for Inactive)
REMARK    1  A    between atoms: C_5  and  C_6 
REMARK    2  A    between atoms: C_10  and  C_11 
REMARK       I    between atoms: C_11  and  N_12 
REMARK    3  A    between atoms: N_12  and  C_13 
REMARK    4  A    between atoms: C_13  and  C_14 
REMARK    5  A    between atoms: C_14  and  O_15 
ROOT
HETATM    1  C   UNL     1      41.344 -16.426   3.010  1.00  0.00     0.068 A 
HETATM    2  N   UNL     1      41.358 -15.699   4.155  1.00  0.00    -0.248 NA
HETATM    3  C   UNL     1      40.641 -14.565   4.247  1.00  0.00     0.068 A 
HETATM    4  C   UNL     1      39.829 -14.085   3.205  1.00  0.00     0.008 A 
HETATM    5  C   UNL     1      39.785 -14.886   2.045  1.00  0.00     0.046 A 
HETATM    6  C   UNL     1      40.554 -16.047   1.939  1.00  0.00     0.050 A 
HETATM    7  C   UNL     1      40.721 -13.835   5.425  1.00  0.00     0.032 A 
HETATM    8  C   UNL     1      40.035 -12.631   5.600  1.00  0.00     0.002 A 
HETATM    9  C   UNL     1      39.251 -12.134   4.570  1.00  0.00     0.001 A 
HETATM   10  C   UNL     1      39.150 -12.850   3.378  1.00  0.00     0.015 A 
ENDROOT
BRANCH   5  11
HETATM   11  C   UNL     1      38.958 -14.556   0.862  1.00  0.00     0.252 C 
HETATM   12  N   UNL     1      39.644 -14.345  -0.308  1.00  0.00    -0.354 N 
HETATM   13  H   UNL     1      40.654 -14.440  -0.344  1.00  0.00     0.162 HD
HETATM   14  O   UNL     1      37.747 -14.432   0.986  1.00  0.00    -0.268 OA
BRANCH  12  15
HETATM   15  C   UNL     1      38.978 -14.054  -1.564  1.00  0.00     0.154 C 
BRANCH  15  16
HETATM   16  C   UNL     1      39.883 -14.337  -2.772  1.00  0.00     0.132 C 
HETATM   17  C   UNL     1      40.733 -15.587  -2.583  1.00  0.00     0.041 C 
BRANCH  16  18
HETATM   18  O   UNL     1      39.069 -14.494  -3.939  1.00  0.00    -0.394 OA
HETATM   19  H   UNL     1      39.662 -14.463  -4.709  1.00  0.00     0.210 HD
ENDBRANCH  16  18
ENDBRANCH  15  16
ENDBRANCH  12  15
ENDBRANCH   5  11
BRANCH   1  20
HETATM   20  C   UNL     1      42.211 -17.627   2.999  1.00  0.00    -0.007 A 
HETATM   21  C   UNL     1      42.903 -18.026   4.158  1.00  0.00     0.014 A 
HETATM   22  C   UNL     1      43.734 -19.152   4.171  1.00  0.00     0.007 A 
HETATM   23  C   UNL     1      43.909 -19.915   3.015  1.00  0.00    -0.062 A 
HETATM   24  C   UNL     1      44.784 -21.132   3.017  1.00  0.00     0.048 C 
HETATM   25  C   UNL     1      43.228 -19.541   1.854  1.00  0.00     0.007 A 
HETATM   26  C   UNL     1      42.399 -18.411   1.847  1.00  0.00     0.014 A 
ENDBRANCH   1  20
TORSDOF 5
ENDMDL
