MODEL 1
REMARK VINA RESULT:      -8.3      0.000      0.000
REMARK  4 active torsions:
REMARK  status: ('A' for Active; 'I' for Inactive)
REMARK    1  A    between atoms: C_4  and  C_5 
REMARK    2  A    between atoms: C_8  and  C_9 
REMARK       I    between atoms: C_9  and  N_10 
REMARK    3  A    between atoms: N_10  and  C_11 
REMARK    4  A    between atoms: C_14  and  N_15 
ROOT
HETATM    1  C   UNL     1      42.004 -15.363   0.611  1.00  0.00     0.252 C 
HETATM    2  N   UNL     1      41.505 -15.304  -0.678  1.00  0.00    -0.352 N 
HETATM    3  O   UNL     1      42.114 -14.382   1.338  1.00  0.00    -0.268 OA
HETATM    4  H   UNL     1      41.684 -16.131  -1.234  1.00  0.00     0.163 HD
ENDROOT
BRANCH   1   5
HETATM    5  C   UNL     1      42.438 -16.701   1.121  1.00  0.00     0.032 A 
HETATM    6  C   UNL     1      41.551 -17.747   1.400  1.00  0.00     0.018 A 
HETATM    7  C   UNL     1      42.040 -18.985   1.842  1.00  0.00     0.015 A 
HETATM    8  C   UNL     1      43.413 -19.201   2.032  1.00  0.00    -0.002 A 
HETATM    9  C   UNL     1      44.289 -18.138   1.780  1.00  0.00     0.015 A 
HETATM   10  C   UNL     1      43.808 -16.904   1.330  1.00  0.00     0.018 A 
BRANCH   8  11
HETATM   11  C   UNL     1      43.927 -20.495   2.476  1.00  0.00     0.086 A 
HETATM   12  O   UNL     1      44.273 -20.590   3.796  1.00  0.00    -0.315 OA
HETATM   13  C   UNL     1      44.699 -21.865   4.018  1.00  0.00     0.050 A 
HETATM   14  C   UNL     1      45.114 -22.198   5.395  1.00  0.00     0.076 C 
HETATM   15  C   UNL     1      44.641 -22.593   2.851  1.00  0.00     0.035 A 
HETATM   16  C   UNL     1      44.142 -21.713   1.859  1.00  0.00     0.040 A 
ENDBRANCH   8  11
ENDBRANCH   1   5
BRANCH   2  17
HETATM   17  C   UNL     1      41.350 -14.083  -1.476  1.00  0.00     0.084 C 
HETATM   18  C   UNL     1      41.358 -14.463  -2.968  1.00  0.00     0.027 C 
HETATM   19  C   UNL     1      40.062 -15.168  -3.390  1.00  0.00     0.035 C 
HETATM   20  C   UNL     1      38.794 -14.397  -3.019  1.00  0.00     0.183 C 
HETATM   21  C   UNL     1      38.804 -13.891  -1.579  1.00  0.00     0.035 C 
HETATM   22  C   UNL     1      40.118 -13.204  -1.203  1.00  0.00     0.027 C 
BRANCH  20  23
HETATM   23  N   UNL     1      38.640 -13.230  -3.939  1.00  0.00    -0.075 N 
HETATM   24  H   UNL     1      37.676 -12.881  -3.991  1.00  0.00     0.274 HD
HETATM   25  H   UNL     1      39.241 -12.446  -3.652  1.00  0.00     0.274 HD
HETATM   26  H   UNL     1      38.922 -13.484  -4.896  1.00  0.00     0.274 HD
ENDBRANCH  20  23
ENDBRANCH   2  17
TORSDOF 4
ENDMDL
MODEL 2
REMARK VINA RESULT:      -7.9      1.812      2.150
REMARK  4 active torsions:
REMARK  status: ('A' for Active; 'I' for Inactive)
REMARK    1  A    between atoms: C_4  and  C_5 
REMARK    2  A    between atoms: C_8  and  C_9 
REMARK       I    between atoms: C_9  and  N_10 
REMARK    3  A    between atoms: N_10  and  C_11 
REMARK    4  A    between atoms: C_14  and  N_15 
ROOT
HETATM    1  C   UNL     1      42.369 -14.507   2.347  1.00  0.00     0.252 C 
HETATM    2  N   UNL     1      41.041 -14.287   2.024  1.00  0.00    -0.352 N 
HETATM    3  O   UNL     1      43.191 -13.606   2.475  1.00  0.00    -0.268 OA
HETATM    4  H   UNL     1      40.540 -15.116   1.729  1.00  0.00     0.163 HD
ENDROOT
BRANCH   1   5
HETATM    5  C   UNL     1      42.807 -15.925   2.533  1.00  0.00     0.032 A 
HETATM    6  C   UNL     1      42.943 -16.535   3.786  1.00  0.00     0.018 A 
HETATM    7  C   UNL     1      43.325 -17.881   3.875  1.00  0.00     0.015 A 
HETATM    8  C   UNL     1      43.596 -18.641   2.726  1.00  0.00    -0.002 A 
HETATM    9  C   UNL     1      43.487 -18.012   1.480  1.00  0.00     0.015 A 
HETATM   10  C   UNL     1      43.098 -16.672   1.384  1.00  0.00     0.018 A 
BRANCH   8  11
HETATM   11  C   UNL     1      43.977 -20.048   2.816  1.00  0.00     0.086 A 
HETATM   12  O   UNL     1      44.443 -20.475   4.029  1.00  0.00    -0.315 OA
HETATM   13  C   UNL     1      44.718 -21.805   3.918  1.00  0.00     0.050 A 
HETATM   14  C   UNL     1      45.227 -22.482   5.128  1.00  0.00     0.076 C 
HETATM   15  C   UNL     1      44.443 -22.240   2.642  1.00  0.00     0.035 A 
HETATM   16  C   UNL     1      43.964 -21.112   1.933  1.00  0.00     0.040 A 
ENDBRANCH   8  11
ENDBRANCH   1   5
BRANCH   2  17
HETATM   17  C   UNL     1      40.493 -13.043   1.475  1.00  0.00     0.084 C 
HETATM   18  C   UNL     1      40.714 -13.035  -0.048  1.00  0.00     0.027 C 
HETATM   19  C   UNL     1      39.787 -14.022  -0.770  1.00  0.00     0.035 C 
HETATM   20  C   UNL     1      38.307 -13.843  -0.421  1.00  0.00     0.183 C 
HETATM   21  C   UNL     1      38.060 -13.718   1.079  1.00  0.00     0.035 C 
HETATM   22  C   UNL     1      39.013 -12.730   1.756  1.00  0.00     0.027 C 
BRANCH  20  23
HETATM   23  N   UNL     1      37.786 -12.619  -1.100  1.00  0.00    -0.075 N 
HETATM   24  H   UNL     1      38.448 -11.834  -1.082  1.00  0.00     0.274 HD
HETATM   25  H   UNL     1      37.554 -12.808  -2.084  1.00  0.00     0.274 HD
HETATM   26  H   UNL     1      36.920 -12.295  -0.649  1.00  0.00     0.274 HD
ENDBRANCH  20  23
ENDBRANCH   2  17
TORSDOF 4
ENDMDL
MODEL 3
REMARK VINA RESULT:      -7.9      1.662      2.438
REMARK  4 active torsions:
REMARK  status: ('A' for Active; 'I' for Inactive)
REMARK    1  A    between atoms: C_4  and  C_5 
REMARK    2  A    between atoms: C_8  and  C_9 
REMARK       I    between atoms: C_9  and  N_10 
REMARK    3  A    between atoms: N_10  and  C_11 
REMARK    4  A    between atoms: C_14  and  N_15 
ROOT
HETATM    1  C   UNL     1      39.609 -14.820   1.312  1.00  0.00     0.252 C 
HETATM    2  N   UNL     1      39.394 -14.750  -0.053  1.00  0.00    -0.352 N 
HETATM    3  O   UNL     1      39.067 -14.076   2.121  1.00  0.00    -0.268 OA
HETATM    4  H   UNL     1      40.069 -15.260  -0.610  1.00  0.00     0.163 HD
ENDROOT
BRANCH   1   5
HETATM    5  C   UNL     1      40.567 -15.858   1.806  1.00  0.00     0.032 A 
HETATM    6  C   UNL     1      40.809 -16.104   3.162  1.00  0.00     0.018 A 
HETATM    7  C   UNL     1      41.697 -17.121   3.545  1.00  0.00     0.015 A 
HETATM    8  C   UNL     1      42.372 -17.898   2.591  1.00  0.00    -0.002 A 
HETATM    9  C   UNL     1      42.145 -17.623   1.237  1.00  0.00     0.015 A 
HETATM   10  C   UNL     1      41.254 -16.616   0.849  1.00  0.00     0.018 A 
BRANCH   8  11
HETATM   11  C   UNL     1      43.283 -18.968   2.987  1.00  0.00     0.086 A 
HETATM   12  O   UNL     1      43.383 -20.030   2.130  1.00  0.00    -0.315 OA
HETATM   13  C   UNL     1      44.290 -20.900   2.656  1.00  0.00     0.050 A 
HETATM   14  C   UNL     1      44.565 -22.125   1.880  1.00  0.00     0.076 C 
HETATM   15  C   UNL     1      44.772 -20.415   3.850  1.00  0.00     0.035 A 
HETATM   16  C   UNL     1      44.127 -19.172   4.063  1.00  0.00     0.040 A 
ENDBRANCH   8  11
ENDBRANCH   1   5
BRANCH   2  17
HETATM   17  C   UNL     1      38.783 -13.621  -0.762  1.00  0.00     0.084 C 
HETATM   18  C   UNL     1      39.870 -12.568  -1.045  1.00  0.00     0.027 C 
HETATM   19  C   UNL     1      40.837 -13.022  -2.146  1.00  0.00     0.035 C 
HETATM   20  C   UNL     1      40.139 -13.463  -3.435  1.00  0.00     0.183 C 
HETATM   21  C   UNL     1      38.970 -14.410  -3.185  1.00  0.00     0.035 C 
HETATM   22  C   UNL     1      38.038 -13.921  -2.075  1.00  0.00     0.027 C 
BRANCH  20  23
HETATM   23  N   UNL     1      39.636 -12.257  -4.160  1.00  0.00    -0.075 N 
HETATM   24  H   UNL     1      38.619 -12.136  -4.087  1.00  0.00     0.274 HD
HETATM   25  H   UNL     1      40.078 -11.397  -3.806  1.00  0.00     0.274 HD
HETATM   26  H   UNL     1      39.863 -12.315  -5.162  1.00  0.00     0.274 HD
ENDBRANCH  20  23
ENDBRANCH   2  17
TORSDOF 4
ENDMDL
MODEL 4
REMARK VINA RESULT:      -7.7      7.836      9.468
REMARK  4 active torsions:
REMARK  status: ('A' for Active; 'I' for Inactive)
REMARK    1  A    between atoms: C_4  and  C_5 
REMARK    2  A    between atoms: C_8  and  C_9 
REMARK       I    between atoms: C_9  and  N_10 
REMARK    3  A    between atoms: N_10  and  C_11 
REMARK    4  A    between atoms: C_14  and  N_15 
ROOT
HETATM    1  C   UNL     1      44.671 -13.065   8.099  1.00  0.00     0.252 C 
HETATM    2  N   UNL     1      43.697 -12.255   8.656  1.00  0.00    -0.352 N 
HETATM    3  O   UNL     1      45.853 -13.019   8.421  1.00  0.00    -0.268 OA
HETATM    4  H   UNL     1      42.824 -12.237   8.143  1.00  0.00     0.163 HD
ENDROOT
BRANCH   1   5
HETATM    5  C   UNL     1      44.241 -14.032   7.041  1.00  0.00     0.032 A 
HETATM    6  C   UNL     1      43.704 -13.642   5.809  1.00  0.00     0.018 A 
HETATM    7  C   UNL     1      43.356 -14.610   4.855  1.00  0.00     0.015 A 
HETATM    8  C   UNL     1      43.519 -15.980   5.113  1.00  0.00    -0.002 A 
HETATM    9  C   UNL     1      44.028 -16.360   6.362  1.00  0.00     0.015 A 
HETATM   10  C   UNL     1      44.384 -15.399   7.313  1.00  0.00     0.018 A 
BRANCH   8  11
HETATM   11  C   UNL     1      43.174 -16.990   4.115  1.00  0.00     0.086 A 
HETATM   12  O   UNL     1      44.061 -18.021   3.962  1.00  0.00    -0.315 OA
HETATM   13  C   UNL     1      43.554 -18.860   3.016  1.00  0.00     0.050 A 
HETATM   14  C   UNL     1      44.352 -20.062   2.698  1.00  0.00     0.076 C 
HETATM   15  C   UNL     1      42.354 -18.377   2.549  1.00  0.00     0.035 A 
HETATM   16  C   UNL     1      42.107 -17.176   3.256  1.00  0.00     0.040 A 
ENDBRANCH   8  11
ENDBRANCH   1   5
BRANCH   2  17
HETATM   17  C   UNL     1      43.945 -11.037   9.434  1.00  0.00     0.084 C 
HETATM   18  C   UNL     1      42.631 -10.242   9.539  1.00  0.00     0.027 C 
HETATM   19  C   UNL     1      41.629 -10.910  10.490  1.00  0.00     0.035 C 
HETATM   20  C   UNL     1      42.205 -11.220  11.873  1.00  0.00     0.183 C 
HETATM   21  C   UNL     1      43.572 -11.895  11.812  1.00  0.00     0.035 C 
HETATM   22  C   UNL     1      44.533 -11.200  10.846  1.00  0.00     0.027 C 
BRANCH  20  23
HETATM   23  N   UNL     1      42.330  -9.949  12.650  1.00  0.00    -0.075 N 
HETATM   24  H   UNL     1      42.657  -9.159  12.082  1.00  0.00     0.274 HD
HETATM   25  H   UNL     1      41.430  -9.679  13.071  1.00  0.00     0.274 HD
HETATM   26  H   UNL     1      42.997 -10.062  13.426  1.00  0.00     0.274 HD
ENDBRANCH  20  23
ENDBRANCH   2  17
TORSDOF 4
ENDMDL
MODEL 5
REMARK VINA RESULT:      -7.5      3.878      4.633
REMARK  4 active torsions:
REMARK  status: ('A' for Active; 'I' for Inactive)
REMARK    1  A    between atoms: C_4  and  C_5 
REMARK    2  A    between atoms: C_8  and  C_9 
REMARK       I    between atoms: C_9  and  N_10 
REMARK    3  A    between atoms: N_10  and  C_11 
REMARK    4  A    between atoms: C_14  and  N_15 
ROOT
HETATM    1  C   UNL     1      43.173 -14.162   4.175  1.00  0.00     0.252 C 
HETATM    2  N   UNL     1      41.959 -13.557   3.899  1.00  0.00    -0.352 N 
HETATM    3  O   UNL     1      44.110 -13.582   4.712  1.00  0.00    -0.268 OA
HETATM    4  H   UNL     1      41.370 -14.075   3.258  1.00  0.00     0.163 HD
ENDROOT
BRANCH   1   5
HETATM    5  C   UNL     1      43.334 -15.596   3.779  1.00  0.00     0.032 A 
HETATM    6  C   UNL     1      43.490 -16.019   2.454  1.00  0.00     0.018 A 
HETATM    7  C   UNL     1      43.671 -17.380   2.167  1.00  0.00     0.015 A 
HETATM    8  C   UNL     1      43.684 -18.346   3.186  1.00  0.00    -0.002 A 
HETATM    9  C   UNL     1      43.496 -17.914   4.505  1.00  0.00     0.015 A 
HETATM   10  C   UNL     1      43.324 -16.557   4.798  1.00  0.00     0.018 A 
BRANCH   8  11
HETATM   11  C   UNL     1      43.889 -19.761   2.892  1.00  0.00     0.086 A 
HETATM   12  O   UNL     1      44.328 -20.540   3.928  1.00  0.00    -0.315 OA
HETATM   13  C   UNL     1      44.432 -21.817   3.466  1.00  0.00     0.050 A 
HETATM   14  C   UNL     1      44.882 -22.839   4.432  1.00  0.00     0.076 C 
HETATM   15  C   UNL     1      44.074 -21.871   2.138  1.00  0.00     0.035 A 
HETATM   16  C   UNL     1      43.722 -20.550   1.768  1.00  0.00     0.040 A 
ENDBRANCH   8  11
ENDBRANCH   1   5
BRANCH   2  17
HETATM   17  C   UNL     1      41.711 -12.112   3.887  1.00  0.00     0.084 C 
HETATM   18  C   UNL     1      40.707 -11.792   2.764  1.00  0.00     0.027 C 
HETATM   19  C   UNL     1      39.287 -12.257   3.112  1.00  0.00     0.035 C 
HETATM   20  C   UNL     1      38.788 -11.749   4.466  1.00  0.00     0.183 C 
HETATM   21  C   UNL     1      39.809 -11.933   5.585  1.00  0.00     0.035 C 
HETATM   22  C   UNL     1      41.210 -11.463   5.190  1.00  0.00     0.027 C 
BRANCH  20  23
HETATM   23  N   UNL     1      38.451 -10.298   4.354  1.00  0.00    -0.075 N 
HETATM   24  H   UNL     1      39.246  -9.681   4.558  1.00  0.00     0.274 HD
HETATM   25  H   UNL     1      38.111 -10.066   3.411  1.00  0.00     0.274 HD
HETATM   26  H   UNL     1      37.698 -10.048   5.010  1.00  0.00     0.274 HD
ENDBRANCH  20  23
ENDBRANCH   2  17
TORSDOF 4
ENDMDL
MODEL 6
REMARK VINA RESULT:      -7.4      1.895      2.533
REMARK  4 active torsions:
REMARK  status: ('A' for Active; 'I' for Inactive)
REMARK    1  A    between atoms: C_4  and  C_5 
REMARK    2  A    between atoms: C_8  and  C_9 
REMARK       I    between atoms: C_9  and  N_10 
REMARK    3  A    between atoms: N_10  and  C_11 
REMARK    4  A    between atoms: C_14  and  N_15 
ROOT
HETATM    1  C   UNL     1      40.183 -15.254   1.231  1.00  0.00     0.252 C 
HETATM    2  N   UNL     1      40.266 -15.190  -0.149  1.00  0.00    -0.352 N 
HETATM    3  O   UNL     1      39.466 -14.517   1.899  1.00  0.00    -0.268 OA
HETATM    4  H   UNL     1      41.054 -15.690  -0.544  1.00  0.00     0.163 HD
ENDROOT
BRANCH   1   5
HETATM    5  C   UNL     1      41.029 -16.273   1.926  1.00  0.00     0.032 A 
HETATM    6  C   UNL     1      41.926 -17.117   1.260  1.00  0.00     0.018 A 
HETATM    7  C   UNL     1      42.711 -18.024   1.988  1.00  0.00     0.015 A 
HETATM    8  C   UNL     1      42.606 -18.122   3.385  1.00  0.00    -0.002 A 
HETATM    9  C   UNL     1      41.683 -17.295   4.037  1.00  0.00     0.015 A 
HETATM   10  C   UNL     1      40.904 -16.383   3.317  1.00  0.00     0.018 A 
BRANCH   8  11
HETATM   11  C   UNL     1      43.434 -19.054   4.147  1.00  0.00     0.086 A 
HETATM   12  O   UNL     1      43.126 -19.197   5.472  1.00  0.00    -0.315 OA
HETATM   13  C   UNL     1      43.983 -20.116   5.996  1.00  0.00     0.050 A 
HETATM   14  C   UNL     1      43.819 -20.438   7.428  1.00  0.00     0.076 C 
HETATM   15  C   UNL     1      44.850 -20.563   5.025  1.00  0.00     0.035 A 
HETATM   16  C   UNL     1      44.496 -19.882   3.834  1.00  0.00     0.040 A 
ENDBRANCH   8  11
ENDBRANCH   1   5
BRANCH   2  17
HETATM   17  C   UNL     1      39.803 -14.074  -0.979  1.00  0.00     0.084 C 
HETATM   18  C   UNL     1      40.820 -12.923  -0.872  1.00  0.00     0.027 C 
HETATM   19  C   UNL     1      42.121 -13.232  -1.625  1.00  0.00     0.035 C 
HETATM   20  C   UNL     1      41.905 -13.651  -3.081  1.00  0.00     0.183 C 
HETATM   21  C   UNL     1      40.811 -14.702  -3.243  1.00  0.00     0.035 C 
HETATM   22  C   UNL     1      39.537 -14.355  -2.469  1.00  0.00     0.027 C 
BRANCH  20  23
HETATM   23  N   UNL     1      41.542 -12.448  -3.890  1.00  0.00    -0.075 N 
HETATM   24  H   UNL     1      40.546 -12.206  -3.830  1.00  0.00     0.274 HD
HETATM   25  H   UNL     1      42.081 -11.623  -3.595  1.00  0.00     0.274 HD
HETATM   26  H   UNL     1      41.756 -12.602  -4.885  1.00  0.00     0.274 HD
ENDBRANCH  20  23
ENDBRANCH   2  17
TORSDOF 4
ENDMDL
MODEL 7
REMARK VINA RESULT:      -7.2      2.299      2.862
REMARK  4 active torsions:
REMARK  status: ('A' for Active; 'I' for Inactive)
REMARK    1  A    between atoms: C_4  and  C_5 
REMARK    2  A    between atoms: C_8  and  C_9 
REMARK       I    between atoms: C_9  and  N_10 
REMARK    3  A    between atoms: N_10  and  C_11 
REMARK    4  A    between atoms: C_14  and  N_15 
ROOT
HETATM    1  C   UNL     1      41.287 -15.608   0.002  1.00  0.00     0.252 C 
HETATM    2  N   UNL     1      40.890 -14.339   0.385  1.00  0.00    -0.352 N 
HETATM    3  O   UNL     1      41.174 -16.035  -1.141  1.00  0.00    -0.268 OA
HETATM    4  H   UNL     1      40.829 -14.205   1.387  1.00  0.00     0.163 HD
ENDROOT
BRANCH   1   5
HETATM    5  C   UNL     1      41.872 -16.495   1.056  1.00  0.00     0.032 A 
HETATM    6  C   UNL     1      41.238 -16.770   2.274  1.00  0.00     0.018 A 
HETATM    7  C   UNL     1      41.836 -17.640   3.197  1.00  0.00     0.015 A 
HETATM    8  C   UNL     1      43.079 -18.238   2.937  1.00  0.00    -0.002 A 
HETATM    9  C   UNL     1      43.719 -17.931   1.729  1.00  0.00     0.015 A 
HETATM   10  C   UNL     1      43.123 -17.071   0.801  1.00  0.00     0.018 A 
BRANCH   8  11
HETATM   11  C   UNL     1      43.696 -19.158   3.888  1.00  0.00     0.086 A 
HETATM   12  O   UNL     1      43.370 -18.980   5.205  1.00  0.00    -0.315 OA
HETATM   13  C   UNL     1      44.018 -19.940   5.923  1.00  0.00     0.050 A 
HETATM   14  C   UNL     1      43.796 -19.942   7.382  1.00  0.00     0.076 C 
HETATM   15  C   UNL     1      44.768 -20.732   5.084  1.00  0.00     0.035 A 
HETATM   16  C   UNL     1      44.560 -20.232   3.775  1.00  0.00     0.040 A 
ENDBRANCH   8  11
ENDBRANCH   1   5
BRANCH   2  17
HETATM   17  C   UNL     1      40.004 -13.457  -0.380  1.00  0.00     0.084 C 
HETATM   18  C   UNL     1      38.569 -14.011  -0.305  1.00  0.00     0.027 C 
HETATM   19  C   UNL     1      37.944 -13.802   1.081  1.00  0.00     0.035 C 
HETATM   20  C   UNL     1      38.009 -12.355   1.574  1.00  0.00     0.183 C 
HETATM   21  C   UNL     1      39.387 -11.727   1.397  1.00  0.00     0.035 C 
HETATM   22  C   UNL     1      39.973 -11.967   0.004  1.00  0.00     0.027 C 
BRANCH  20  23
HETATM   23  N   UNL     1      37.006 -11.536   0.828  1.00  0.00    -0.075 N 
HETATM   24  H   UNL     1      36.040 -11.860   0.961  1.00  0.00     0.274 HD
HETATM   25  H   UNL     1      37.045 -10.548   1.113  1.00  0.00     0.274 HD
HETATM   26  H   UNL     1      37.197 -11.561  -0.183  1.00  0.00     0.274 HD
ENDBRANCH  20  23
ENDBRANCH   2  17
TORSDOF 4
ENDMDL
MODEL 8
REMARK VINA RESULT:      -7.1      2.193      2.972
REMARK  4 active torsions:
REMARK  status: ('A' for Active; 'I' for Inactive)
REMARK    1  A    between atoms: C_4  and  C_5 
REMARK    2  A    between atoms: C_8  and  C_9 
REMARK       I    between atoms: C_9  and  N_10 
REMARK    3  A    between atoms: N_10  and  C_11 
REMARK    4  A    between atoms: C_14  and  N_15 
ROOT
HETATM    1  C   UNL     1      41.579 -15.752  -0.139  1.00  0.00     0.252 C 
HETATM    2  N   UNL     1      41.691 -14.373  -0.094  1.00  0.00    -0.352 N 
HETATM    3  O   UNL     1      41.102 -16.360  -1.091  1.00  0.00    -0.268 OA
HETATM    4  H   UNL     1      41.885 -13.999   0.827  1.00  0.00     0.163 HD
ENDROOT
BRANCH   1   5
HETATM    5  C   UNL     1      42.060 -16.521   1.050  1.00  0.00     0.032 A 
HETATM    6  C   UNL     1      41.344 -16.618   2.250  1.00  0.00     0.018 A 
HETATM    7  C   UNL     1      41.847 -17.388   3.309  1.00  0.00     0.015 A 
HETATM    8  C   UNL     1      43.075 -18.061   3.203  1.00  0.00    -0.002 A 
HETATM    9  C   UNL     1      43.797 -17.932   2.010  1.00  0.00     0.015 A 
HETATM   10  C   UNL     1      43.296 -17.172   0.947  1.00  0.00     0.018 A 
BRANCH   8  11
HETATM   11  C   UNL     1      43.592 -18.878   4.298  1.00  0.00     0.086 A 
HETATM   12  O   UNL     1      44.072 -20.114   3.960  1.00  0.00    -0.315 OA
HETATM   13  C   UNL     1      44.527 -20.703   5.100  1.00  0.00     0.050 A 
HETATM   14  C   UNL     1      45.107 -22.055   4.965  1.00  0.00     0.076 C 
HETATM   15  C   UNL     1      44.338 -19.865   6.174  1.00  0.00     0.035 A 
HETATM   16  C   UNL     1      43.739 -18.689   5.660  1.00  0.00     0.040 A 
ENDBRANCH   8  11
ENDBRANCH   1   5
BRANCH   2  17
HETATM   17  C   UNL     1      40.990 -13.433  -0.974  1.00  0.00     0.084 C 
HETATM   18  C   UNL     1      40.939 -12.056  -0.286  1.00  0.00     0.027 C 
HETATM   19  C   UNL     1      42.310 -11.367  -0.275  1.00  0.00     0.035 C 
HETATM   20  C   UNL     1      42.963 -11.275  -1.655  1.00  0.00     0.183 C 
HETATM   21  C   UNL     1      42.919 -12.593  -2.424  1.00  0.00     0.035 C 
HETATM   22  C   UNL     1      41.536 -13.246  -2.400  1.00  0.00     0.027 C 
BRANCH  20  23
HETATM   23  N   UNL     1      42.269 -10.224  -2.460  1.00  0.00    -0.075 N 
HETATM   24  H   UNL     1      41.905 -10.574  -3.354  1.00  0.00     0.274 HD
HETATM   25  H   UNL     1      41.480  -9.817  -1.940  1.00  0.00     0.274 HD
HETATM   26  H   UNL     1      42.912  -9.450  -2.676  1.00  0.00     0.274 HD
ENDBRANCH  20  23
ENDBRANCH   2  17
TORSDOF 4
ENDMDL
MODEL 9
REMARK VINA RESULT:      -6.9      4.077      5.201
REMARK  4 active torsions:
REMARK  status: ('A' for Active; 'I' for Inactive)
REMARK    1  A    between atoms: C_4  and  C_5 
REMARK    2  A    between atoms: C_8  and  C_9 
REMARK       I    between atoms: C_9  and  N_10 
REMARK    3  A    between atoms: N_10  and  C_11 
REMARK    4  A    between atoms: C_14  and  N_15 
ROOT
HETATM    1  C   UNL     1      40.105 -14.806   2.750  1.00  0.00     0.252 C 
HETATM    2  N   UNL     1      40.551 -13.662   3.388  1.00  0.00    -0.352 N 
HETATM    3  O   UNL     1      39.036 -14.875   2.155  1.00  0.00    -0.268 OA
HETATM    4  H   UNL     1      41.326 -13.812   4.022  1.00  0.00     0.163 HD
ENDROOT
BRANCH   1   5
HETATM    5  C   UNL     1      40.984 -16.016   2.811  1.00  0.00     0.032 A 
HETATM    6  C   UNL     1      41.601 -16.464   3.985  1.00  0.00     0.018 A 
HETATM    7  C   UNL     1      42.383 -17.629   3.967  1.00  0.00     0.015 A 
HETATM    8  C   UNL     1      42.580 -18.358   2.784  1.00  0.00    -0.002 A 
HETATM    9  C   UNL     1      41.983 -17.883   1.610  1.00  0.00     0.015 A 
HETATM   10  C   UNL     1      41.195 -16.727   1.623  1.00  0.00     0.018 A 
BRANCH   8  11
HETATM   11  C   UNL     1      43.380 -19.580   2.767  1.00  0.00     0.086 A 
HETATM   12  O   UNL     1      43.901 -19.983   3.966  1.00  0.00    -0.315 OA
HETATM   13  C   UNL     1      44.584 -21.141   3.749  1.00  0.00     0.050 A 
HETATM   14  C   UNL     1      45.224 -21.766   4.923  1.00  0.00     0.076 C 
HETATM   15  C   UNL     1      44.518 -21.487   2.418  1.00  0.00     0.035 A 
HETATM   16  C   UNL     1      43.742 -20.485   1.786  1.00  0.00     0.040 A 
ENDBRANCH   8  11
ENDBRANCH   1   5
BRANCH   2  17
HETATM   17  C   UNL     1      39.722 -12.504   3.737  1.00  0.00     0.084 C 
HETATM   18  C   UNL     1      39.064 -12.763   5.105  1.00  0.00     0.027 C 
HETATM   19  C   UNL     1      40.073 -12.667   6.257  1.00  0.00     0.035 C 
HETATM   20  C   UNL     1      40.878 -11.365   6.263  1.00  0.00     0.183 C 
HETATM   21  C   UNL     1      41.441 -11.006   4.891  1.00  0.00     0.035 C 
HETATM   22  C   UNL     1      40.402 -11.125   3.775  1.00  0.00     0.027 C 
BRANCH  20  23
HETATM   23  N   UNL     1      40.003 -10.248   6.732  1.00  0.00    -0.075 N 
HETATM   24  H   UNL     1      40.441  -9.324   6.637  1.00  0.00     0.274 HD
HETATM   25  H   UNL     1      39.115 -10.226   6.213  1.00  0.00     0.274 HD
HETATM   26  H   UNL     1      39.763 -10.368   7.726  1.00  0.00     0.274 HD
ENDBRANCH  20  23
ENDBRANCH   2  17
TORSDOF 4
ENDMDL
MODEL 10
REMARK VINA RESULT:      -6.9      5.172      6.322
REMARK  4 active torsions:
REMARK  status: ('A' for Active; 'I' for Inactive)
REMARK    1  A    between atoms: C_4  and  C_5 
REMARK    2  A    between atoms: C_8  and  C_9 
REMARK       I    between atoms: C_9  and  N_10 
REMARK    3  A    between atoms: N_10  and  C_11 
REMARK    4  A    between atoms: C_14  and  N_15 
ROOT
HETATM    1  C   UNL     1      42.361 -13.170   3.916  1.00  0.00     0.252 C 
HETATM    2  N   UNL     1      41.910 -12.555   5.071  1.00  0.00    -0.352 N 
HETATM    3  O   UNL     1      42.384 -12.617   2.822  1.00  0.00    -0.268 OA
HETATM    4  H   UNL     1      41.732 -13.190   5.840  1.00  0.00     0.163 HD
ENDROOT
BRANCH   1   5
HETATM    5  C   UNL     1      42.829 -14.586   4.027  1.00  0.00     0.032 A 
HETATM    6  C   UNL     1      42.969 -15.261   5.246  1.00  0.00     0.018 A 
HETATM    7  C   UNL     1      43.381 -16.602   5.264  1.00  0.00     0.015 A 
HETATM    8  C   UNL     1      43.677 -17.291   4.077  1.00  0.00    -0.002 A 
HETATM    9  C   UNL     1      43.563 -16.596   2.866  1.00  0.00     0.015 A 
HETATM   10  C   UNL     1      43.145 -15.261   2.841  1.00  0.00     0.018 A 
BRANCH   8  11
HETATM   11  C   UNL     1      44.089 -18.692   4.092  1.00  0.00     0.086 A 
HETATM   12  O   UNL     1      43.935 -19.383   2.922  1.00  0.00    -0.315 OA
HETATM   13  C   UNL     1      44.394 -20.649   3.129  1.00  0.00     0.050 A 
HETATM   14  C   UNL     1      44.334 -21.575   1.980  1.00  0.00     0.076 C 
HETATM   15  C   UNL     1      44.836 -20.786   4.425  1.00  0.00     0.035 A 
HETATM   16  C   UNL     1      44.643 -19.527   5.045  1.00  0.00     0.040 A 
ENDBRANCH   8  11
ENDBRANCH   1   5
BRANCH   2  17
HETATM   17  C   UNL     1      41.109 -11.328   5.126  1.00  0.00     0.084 C 
HETATM   18  C   UNL     1      39.654 -11.703   5.463  1.00  0.00     0.027 C 
HETATM   19  C   UNL     1      39.495 -12.134   6.927  1.00  0.00     0.035 C 
HETATM   20  C   UNL     1      40.058 -11.126   7.931  1.00  0.00     0.183 C 
HETATM   21  C   UNL     1      41.453 -10.632   7.561  1.00  0.00     0.035 C 
HETATM   22  C   UNL     1      41.565 -10.220   6.091  1.00  0.00     0.027 C 
BRANCH  20  23
HETATM   23  N   UNL     1      39.137  -9.952   8.017  1.00  0.00    -0.075 N 
HETATM   24  H   UNL     1      38.710  -9.840   8.944  1.00  0.00     0.274 HD
HETATM   25  H   UNL     1      39.628  -9.076   7.792  1.00  0.00     0.274 HD
HETATM   26  H   UNL     1      38.368 -10.043   7.338  1.00  0.00     0.274 HD
ENDBRANCH  20  23
ENDBRANCH   2  17
TORSDOF 4
ENDMDL
