MODEL 1
REMARK VINA RESULT:      -9.0      0.000      0.000
REMARK  8 active torsions:
REMARK  status: ('A' for Active; 'I' for Inactive)
REMARK    1  A    between atoms: C_4  and  O_5 
REMARK    2  A    between atoms: O_5  and  C_6 
REMARK    3  A    between atoms: C_6  and  C_7 
REMARK    4  A    between atoms: C_7  and  N_8 
REMARK       I    between atoms: N_8  and  C_9 
REMARK    5  A    between atoms: C_9  and  C_10 
REMARK    6  A    between atoms: C_10  and  S_11 
REMARK    7  A    between atoms: S_11  and  C_12 
REMARK    8  A    between atoms: C_15  and  C_16 
ROOT
HETATM    1  C   UNL     1      42.883 -15.010   6.389  1.00  0.00     0.185 C 
ENDROOT
BRANCH   1   2
HETATM    2  C   UNL     1      44.094 -14.082   6.407  1.00  0.00     0.227 C 
HETATM    3  N   UNL     1      44.498 -13.759   7.694  1.00  0.00    -0.358 N 
HETATM    4  H   UNL     1      44.175 -14.350   8.450  1.00  0.00     0.162 HD
HETATM    5  O   UNL     1      44.637 -13.621   5.407  1.00  0.00    -0.273 OA
BRANCH   3   6
HETATM    6  C   UNL     1      45.677 -12.944   7.939  1.00  0.00     0.149 C 
BRANCH   6   7
HETATM    7  C   UNL     1      45.517 -12.036   9.160  1.00  0.00     0.195 C 
BRANCH   7   8
HETATM    8  O   UNL     1      44.264 -12.329   9.775  1.00  0.00    -0.350 OA
BRANCH   8   9
HETATM    9  C   UNL     1      43.630 -11.309  10.432  1.00  0.00     0.069 A 
HETATM   10  C   UNL     1      43.864 -10.903  11.747  1.00  0.00     0.043 A 
HETATM   11  C   UNL     1      43.134  -9.840  12.306  1.00  0.00    -0.059 A 
HETATM   12  C   UNL     1      43.387  -9.386  13.713  1.00  0.00     0.048 C 
HETATM   13  C   UNL     1      42.178  -9.179  11.525  1.00  0.00     0.007 A 
HETATM   14  C   UNL     1      41.944  -9.580  10.212  1.00  0.00     0.003 A 
HETATM   15  C   UNL     1      42.667 -10.642   9.671  1.00  0.00     0.037 A 
ENDBRANCH   8   9
ENDBRANCH   7   8
ENDBRANCH   6   7
ENDBRANCH   3   6
ENDBRANCH   1   2
BRANCH   1  16
HETATM   16  S   UNL     1      41.901 -14.838   4.875  1.00  0.00    -0.081 SA
BRANCH  16  17
HETATM   17  C   UNL     1      42.692 -15.996   3.868  1.00  0.00     0.191 A 
HETATM   18  N   UNL     1      42.582 -17.348   4.027  1.00  0.00    -0.312 N 
HETATM   19  C   UNL     1      41.675 -18.050   4.899  1.00  0.00     0.160 C 
HETATM   20  C   UNL     1      43.481 -17.904   3.139  1.00  0.00     0.164 A 
HETATM   21  N   UNL     1      44.009 -16.925   2.424  1.00  0.00    -0.128 NA
HETATM   22  N   UNL     1      43.520 -15.728   2.888  1.00  0.00    -0.122 NA
BRANCH  20  23
HETATM   23  C   UNL     1      43.794 -19.329   3.012  1.00  0.00     0.018 A 
HETATM   24  C   UNL     1      44.531 -20.018   3.999  1.00  0.00    -0.048 A 
HETATM   25  C   UNL     1      45.024 -19.332   5.245  1.00  0.00     0.049 C 
HETATM   26  C   UNL     1      44.785 -21.391   3.832  1.00  0.00     0.007 A 
HETATM   27  C   UNL     1      44.326 -22.074   2.707  1.00  0.00     0.001 A 
HETATM   28  C   UNL     1      43.593 -21.400   1.737  1.00  0.00     0.001 A 
HETATM   29  C   UNL     1      43.324 -20.039   1.892  1.00  0.00     0.016 A 
ENDBRANCH  20  23
ENDBRANCH  16  17
ENDBRANCH   1  16
TORSDOF 8
ENDMDL
MODEL 2
REMARK VINA RESULT:      -8.6      1.945      2.554
REMARK  8 active torsions:
REMARK  status: ('A' for Active; 'I' for Inactive)
REMARK    1  A    between atoms: C_4  and  O_5 
REMARK    2  A    between atoms: O_5  and  C_6 
REMARK    3  A    between atoms: C_6  and  C_7 
REMARK    4  A    between atoms: C_7  and  N_8 
REMARK       I    between atoms: N_8  and  C_9 
REMARK    5  A    between atoms: C_9  and  C_10 
REMARK    6  A    between atoms: C_10  and  S_11 
REMARK    7  A    between atoms: S_11  and  C_12 
REMARK    8  A    between atoms: C_15  and  C_16 
ROOT
HETATM    1  C   UNL     1      42.100 -13.075   5.735  1.00  0.00     0.185 C 
ENDROOT
BRANCH   1   2
HETATM    2  C   UNL     1      41.321 -11.870   6.252  1.00  0.00     0.227 C 
HETATM    3  N   UNL     1      40.306 -12.227   7.128  1.00  0.00    -0.358 N 
HETATM    4  H   UNL     1      40.351 -13.146   7.550  1.00  0.00     0.162 HD
HETATM    5  O   UNL     1      41.522 -10.708   5.909  1.00  0.00    -0.273 OA
BRANCH   3   6
HETATM    6  C   UNL     1      39.488 -11.225   7.794  1.00  0.00     0.149 C 
BRANCH   6   7
HETATM    7  C   UNL     1      39.929 -10.976   9.237  1.00  0.00     0.195 C 
BRANCH   7   8
HETATM    8  O   UNL     1      40.903  -9.934   9.234  1.00  0.00    -0.350 OA
BRANCH   8   9
HETATM    9  C   UNL     1      41.999 -10.092  10.040  1.00  0.00     0.069 A 
HETATM   10  C   UNL     1      42.115  -9.671  11.366  1.00  0.00     0.043 A 
HETATM   11  C   UNL     1      43.304  -9.890  12.082  1.00  0.00    -0.059 A 
HETATM   12  C   UNL     1      43.436  -9.455  13.511  1.00  0.00     0.048 C 
HETATM   13  C   UNL     1      44.370 -10.550  11.457  1.00  0.00     0.007 A 
HETATM   14  C   UNL     1      44.256 -10.973  10.135  1.00  0.00     0.003 A 
HETATM   15  C   UNL     1      43.074 -10.743   9.431  1.00  0.00     0.037 A 
ENDBRANCH   8   9
ENDBRANCH   7   8
ENDBRANCH   6   7
ENDBRANCH   3   6
ENDBRANCH   1   2
BRANCH   1  16
HETATM   16  S   UNL     1      41.052 -14.541   5.533  1.00  0.00    -0.081 SA
BRANCH  16  17
HETATM   17  C   UNL     1      42.043 -15.477   4.472  1.00  0.00     0.191 A 
HETATM   18  N   UNL     1      42.066 -16.842   4.455  1.00  0.00    -0.312 N 
HETATM   19  C   UNL     1      41.171 -17.735   5.144  1.00  0.00     0.160 C 
HETATM   20  C   UNL     1      43.089 -17.188   3.596  1.00  0.00     0.164 A 
HETATM   21  N   UNL     1      43.567 -16.078   3.059  1.00  0.00    -0.128 NA
HETATM   22  N   UNL     1      42.916 -15.004   3.617  1.00  0.00    -0.122 NA
BRANCH  20  23
HETATM   23  C   UNL     1      43.563 -18.548   3.326  1.00  0.00     0.018 A 
HETATM   24  C   UNL     1      44.407 -19.231   4.227  1.00  0.00    -0.048 A 
HETATM   25  C   UNL     1      44.858 -18.609   5.522  1.00  0.00     0.049 C 
HETATM   26  C   UNL     1      44.815 -20.543   3.925  1.00  0.00     0.007 A 
HETATM   27  C   UNL     1      44.402 -21.170   2.750  1.00  0.00     0.001 A 
HETATM   28  C   UNL     1      43.564 -20.501   1.865  1.00  0.00     0.001 A 
HETATM   29  C   UNL     1      43.142 -19.202   2.154  1.00  0.00     0.016 A 
ENDBRANCH  20  23
ENDBRANCH  16  17
ENDBRANCH   1  16
TORSDOF 8
ENDMDL
MODEL 3
REMARK VINA RESULT:      -8.5      4.313      8.676
REMARK  8 active torsions:
REMARK  status: ('A' for Active; 'I' for Inactive)
REMARK    1  A    between atoms: C_4  and  O_5 
REMARK    2  A    between atoms: O_5  and  C_6 
REMARK    3  A    between atoms: C_6  and  C_7 
REMARK    4  A    between atoms: C_7  and  N_8 
REMARK       I    between atoms: N_8  and  C_9 
REMARK    5  A    between atoms: C_9  and  C_10 
REMARK    6  A    between atoms: C_10  and  S_11 
REMARK    7  A    between atoms: S_11  and  C_12 
REMARK    8  A    between atoms: C_15  and  C_16 
ROOT
HETATM    1  C   UNL     1      40.462 -12.929   1.136  1.00  0.00     0.185 C 
ENDROOT
BRANCH   1   2
HETATM    2  C   UNL     1      41.101 -14.068   0.348  1.00  0.00     0.227 C 
HETATM    3  N   UNL     1      40.842 -15.312   0.904  1.00  0.00    -0.358 N 
HETATM    4  H   UNL     1      40.070 -15.383   1.556  1.00  0.00     0.162 HD
HETATM    5  O   UNL     1      41.810 -13.920  -0.644  1.00  0.00    -0.273 OA
BRANCH   3   6
HETATM    6  C   UNL     1      41.297 -16.539   0.270  1.00  0.00     0.149 C 
BRANCH   6   7
HETATM    7  C   UNL     1      41.289 -17.730   1.230  1.00  0.00     0.195 C 
BRANCH   7   8
HETATM    8  O   UNL     1      42.225 -17.471   2.275  1.00  0.00    -0.350 OA
BRANCH   8   9
HETATM    9  C   UNL     1      43.019 -18.508   2.683  1.00  0.00     0.069 A 
HETATM   10  C   UNL     1      43.248 -19.696   1.985  1.00  0.00     0.043 A 
HETATM   11  C   UNL     1      44.085 -20.689   2.523  1.00  0.00    -0.059 A 
HETATM   12  C   UNL     1      44.349 -21.963   1.777  1.00  0.00     0.048 C 
HETATM   13  C   UNL     1      44.702 -20.470   3.761  1.00  0.00     0.007 A 
HETATM   14  C   UNL     1      44.477 -19.285   4.458  1.00  0.00     0.003 A 
HETATM   15  C   UNL     1      43.638 -18.311   3.919  1.00  0.00     0.037 A 
ENDBRANCH   8   9
ENDBRANCH   7   8
ENDBRANCH   6   7
ENDBRANCH   3   6
ENDBRANCH   1   2
BRANCH   1  16
HETATM   16  S   UNL     1      41.692 -11.858   1.927  1.00  0.00    -0.081 SA
BRANCH  16  17
HETATM   17  C   UNL     1      41.683 -12.516   3.524  1.00  0.00     0.191 A 
HETATM   18  N   UNL     1      42.388 -13.625   3.897  1.00  0.00    -0.312 N 
HETATM   19  C   UNL     1      43.386 -14.321   3.126  1.00  0.00     0.160 C 
HETATM   20  C   UNL     1      41.987 -13.907   5.187  1.00  0.00     0.164 A 
HETATM   21  N   UNL     1      41.168 -12.946   5.581  1.00  0.00    -0.128 NA
HETATM   22  N   UNL     1      40.971 -12.079   4.533  1.00  0.00    -0.122 NA
BRANCH  20  23
HETATM   23  C   UNL     1      42.397 -15.068   5.981  1.00  0.00     0.018 A 
HETATM   24  C   UNL     1      43.646 -15.116   6.635  1.00  0.00    -0.048 A 
HETATM   25  C   UNL     1      44.623 -13.973   6.566  1.00  0.00     0.049 C 
HETATM   26  C   UNL     1      43.977 -16.249   7.399  1.00  0.00     0.007 A 
HETATM   27  C   UNL     1      43.093 -17.321   7.513  1.00  0.00     0.001 A 
HETATM   28  C   UNL     1      41.859 -17.273   6.876  1.00  0.00     0.001 A 
HETATM   29  C   UNL     1      41.510 -16.151   6.121  1.00  0.00     0.016 A 
ENDBRANCH  20  23
ENDBRANCH  16  17
ENDBRANCH   1  16
TORSDOF 8
ENDMDL
MODEL 4
REMARK VINA RESULT:      -8.4      4.527      8.574
REMARK  8 active torsions:
REMARK  status: ('A' for Active; 'I' for Inactive)
REMARK    1  A    between atoms: C_4  and  O_5 
REMARK    2  A    between atoms: O_5  and  C_6 
REMARK    3  A    between atoms: C_6  and  C_7 
REMARK    4  A    between atoms: C_7  and  N_8 
REMARK       I    between atoms: N_8  and  C_9 
REMARK    5  A    between atoms: C_9  and  C_10 
REMARK    6  A    between atoms: C_10  and  S_11 
REMARK    7  A    between atoms: S_11  and  C_12 
REMARK    8  A    between atoms: C_15  and  C_16 
ROOT
HETATM    1  C   UNL     1      42.205 -13.109   4.658  1.00  0.00     0.185 C 
ENDROOT
BRANCH   1   2
HETATM    2  C   UNL     1      41.582 -12.327   3.506  1.00  0.00     0.227 C 
HETATM    3  N   UNL     1      42.230 -12.547   2.299  1.00  0.00    -0.358 N 
HETATM    4  H   UNL     1      42.822 -13.366   2.227  1.00  0.00     0.162 HD
HETATM    5  O   UNL     1      40.640 -11.547   3.620  1.00  0.00    -0.273 OA
BRANCH   3   6
HETATM    6  C   UNL     1      41.752 -11.955   1.061  1.00  0.00     0.149 C 
BRANCH   6   7
HETATM    7  C   UNL     1      41.688 -12.967  -0.085  1.00  0.00     0.195 C 
BRANCH   7   8
HETATM    8  O   UNL     1      40.345 -13.433  -0.197  1.00  0.00    -0.350 OA
BRANCH   8   9
HETATM    9  C   UNL     1      40.007 -14.119  -1.332  1.00  0.00     0.069 A 
HETATM   10  C   UNL     1      38.793 -14.037  -2.014  1.00  0.00     0.043 A 
HETATM   11  C   UNL     1      38.571 -14.805  -3.170  1.00  0.00    -0.059 A 
HETATM   12  C   UNL     1      37.274 -14.715  -3.920  1.00  0.00     0.048 C 
HETATM   13  C   UNL     1      39.588 -15.644  -3.642  1.00  0.00     0.007 A 
HETATM   14  C   UNL     1      40.802 -15.726  -2.965  1.00  0.00     0.003 A 
HETATM   15  C   UNL     1      41.008 -14.966  -1.814  1.00  0.00     0.037 A 
ENDBRANCH   8   9
ENDBRANCH   7   8
ENDBRANCH   6   7
ENDBRANCH   3   6
ENDBRANCH   1   2
BRANCH   1  16
HETATM   16  S   UNL     1      41.347 -14.673   4.978  1.00  0.00    -0.081 SA
BRANCH  16  17
HETATM   17  C   UNL     1      42.295 -15.743   4.010  1.00  0.00     0.191 A 
HETATM   18  N   UNL     1      42.259 -17.105   4.117  1.00  0.00    -0.312 N 
HETATM   19  C   UNL     1      41.326 -17.892   4.881  1.00  0.00     0.160 C 
HETATM   20  C   UNL     1      43.265 -17.571   3.296  1.00  0.00     0.164 A 
HETATM   21  N   UNL     1      43.791 -16.536   2.662  1.00  0.00    -0.128 NA
HETATM   22  N   UNL     1      43.187 -15.389   3.118  1.00  0.00    -0.122 NA
BRANCH  20  23
HETATM   23  C   UNL     1      43.680 -18.969   3.152  1.00  0.00     0.018 A 
HETATM   24  C   UNL     1      44.475 -19.610   4.125  1.00  0.00    -0.048 A 
HETATM   25  C   UNL     1      44.932 -18.901   5.372  1.00  0.00     0.049 C 
HETATM   26  C   UNL     1      44.826 -20.960   3.944  1.00  0.00     0.007 A 
HETATM   27  C   UNL     1      44.405 -21.666   2.817  1.00  0.00     0.001 A 
HETATM   28  C   UNL     1      43.614 -21.038   1.861  1.00  0.00     0.001 A 
HETATM   29  C   UNL     1      43.249 -19.701   2.031  1.00  0.00     0.016 A 
ENDBRANCH  20  23
ENDBRANCH  16  17
ENDBRANCH   1  16
TORSDOF 8
ENDMDL
MODEL 5
REMARK VINA RESULT:      -8.4      3.929      6.808
REMARK  8 active torsions:
REMARK  status: ('A' for Active; 'I' for Inactive)
REMARK    1  A    between atoms: C_4  and  O_5 
REMARK    2  A    between atoms: O_5  and  C_6 
REMARK    3  A    between atoms: C_6  and  C_7 
REMARK    4  A    between atoms: C_7  and  N_8 
REMARK       I    between atoms: N_8  and  C_9 
REMARK    5  A    between atoms: C_9  and  C_10 
REMARK    6  A    between atoms: C_10  and  S_11 
REMARK    7  A    between atoms: S_11  and  C_12 
REMARK    8  A    between atoms: C_15  and  C_16 
ROOT
HETATM    1  C   UNL     1      43.916 -15.121   7.346  1.00  0.00     0.185 C 
ENDROOT
BRANCH   1   2
HETATM    2  C   UNL     1      43.337 -14.602   6.034  1.00  0.00     0.227 C 
HETATM    3  N   UNL     1      41.999 -14.250   6.144  1.00  0.00    -0.358 N 
HETATM    4  H   UNL     1      41.629 -14.096   7.074  1.00  0.00     0.162 HD
HETATM    5  O   UNL     1      43.953 -14.539   4.974  1.00  0.00    -0.273 OA
BRANCH   3   6
HETATM    6  C   UNL     1      41.272 -13.665   5.029  1.00  0.00     0.149 C 
BRANCH   6   7
HETATM    7  C   UNL     1      40.095 -14.533   4.580  1.00  0.00     0.195 C 
BRANCH   7   8
HETATM    8  O   UNL     1      40.614 -15.687   3.923  1.00  0.00    -0.350 OA
BRANCH   8   9
HETATM    9  C   UNL     1      40.771 -15.623   2.565  1.00  0.00     0.069 A 
HETATM   10  C   UNL     1      40.086 -14.776   1.694  1.00  0.00     0.043 A 
HETATM   11  C   UNL     1      40.339 -14.816   0.312  1.00  0.00    -0.059 A 
HETATM   12  C   UNL     1      39.618 -13.901  -0.633  1.00  0.00     0.048 C 
HETATM   13  C   UNL     1      41.300 -15.706  -0.184  1.00  0.00     0.007 A 
HETATM   14  C   UNL     1      41.988 -16.552   0.683  1.00  0.00     0.003 A 
HETATM   15  C   UNL     1      41.722 -16.509   2.052  1.00  0.00     0.037 A 
ENDBRANCH   8   9
ENDBRANCH   7   8
ENDBRANCH   6   7
ENDBRANCH   3   6
ENDBRANCH   1   2
BRANCH   1  16
HETATM   16  S   UNL     1      43.322 -16.783   7.757  1.00  0.00    -0.081 SA
BRANCH  16  17
HETATM   17  C   UNL     1      44.176 -17.710   6.578  1.00  0.00     0.191 A 
HETATM   18  N   UNL     1      43.574 -18.388   5.556  1.00  0.00    -0.312 N 
HETATM   19  C   UNL     1      42.192 -18.309   5.156  1.00  0.00     0.160 C 
HETATM   20  C   UNL     1      44.575 -19.119   4.950  1.00  0.00     0.164 A 
HETATM   21  N   UNL     1      45.723 -18.799   5.526  1.00  0.00    -0.128 NA
HETATM   22  N   UNL     1      45.469 -17.923   6.554  1.00  0.00    -0.122 NA
BRANCH  20  23
HETATM   23  C   UNL     1      44.399 -20.081   3.859  1.00  0.00     0.018 A 
HETATM   24  C   UNL     1      44.580 -21.466   4.056  1.00  0.00    -0.048 A 
HETATM   25  C   UNL     1      44.951 -22.037   5.399  1.00  0.00     0.049 C 
HETATM   26  C   UNL     1      44.377 -22.345   2.977  1.00  0.00     0.007 A 
HETATM   27  C   UNL     1      44.008 -21.865   1.721  1.00  0.00     0.001 A 
HETATM   28  C   UNL     1      43.821 -20.501   1.527  1.00  0.00     0.001 A 
HETATM   29  C   UNL     1      44.009 -19.617   2.590  1.00  0.00     0.016 A 
ENDBRANCH  20  23
ENDBRANCH  16  17
ENDBRANCH   1  16
TORSDOF 8
ENDMDL
MODEL 6
REMARK VINA RESULT:      -8.3      5.622      8.320
REMARK  8 active torsions:
REMARK  status: ('A' for Active; 'I' for Inactive)
REMARK    1  A    between atoms: C_4  and  O_5 
REMARK    2  A    between atoms: O_5  and  C_6 
REMARK    3  A    between atoms: C_6  and  C_7 
REMARK    4  A    between atoms: C_7  and  N_8 
REMARK       I    between atoms: N_8  and  C_9 
REMARK    5  A    between atoms: C_9  and  C_10 
REMARK    6  A    between atoms: C_10  and  S_11 
REMARK    7  A    between atoms: S_11  and  C_12 
REMARK    8  A    between atoms: C_15  and  C_16 
ROOT
HETATM    1  C   UNL     1      41.265 -13.727   3.094  1.00  0.00     0.185 C 
ENDROOT
BRANCH   1   2
HETATM    2  C   UNL     1      40.643 -14.515   1.946  1.00  0.00     0.227 C 
HETATM    3  N   UNL     1      41.365 -14.400   0.767  1.00  0.00    -0.358 N 
HETATM    4  H   UNL     1      42.322 -14.077   0.832  1.00  0.00     0.162 HD
HETATM    5  O   UNL     1      39.595 -15.150   2.022  1.00  0.00    -0.273 OA
BRANCH   3   6
HETATM    6  C   UNL     1      40.985 -15.130  -0.432  1.00  0.00     0.149 C 
BRANCH   6   7
HETATM    7  C   UNL     1      40.659 -14.201  -1.603  1.00  0.00     0.195 C 
BRANCH   7   8
HETATM    8  O   UNL     1      41.864 -13.945  -2.321  1.00  0.00    -0.350 OA
BRANCH   8   9
HETATM    9  C   UNL     1      42.190 -12.638  -2.561  1.00  0.00     0.069 A 
HETATM   10  C   UNL     1      42.834 -11.773  -1.676  1.00  0.00     0.043 A 
HETATM   11  C   UNL     1      43.106 -10.444  -2.047  1.00  0.00    -0.059 A 
HETATM   12  C   UNL     1      43.809  -9.509  -1.108  1.00  0.00     0.048 C 
HETATM   13  C   UNL     1      42.737  -9.999  -3.322  1.00  0.00     0.007 A 
HETATM   14  C   UNL     1      42.097 -10.861  -4.209  1.00  0.00     0.003 A 
HETATM   15  C   UNL     1      41.825 -12.174  -3.827  1.00  0.00     0.037 A 
ENDBRANCH   8   9
ENDBRANCH   7   8
ENDBRANCH   6   7
ENDBRANCH   3   6
ENDBRANCH   1   2
BRANCH   1  16
HETATM   16  S   UNL     1      41.799 -14.794   4.458  1.00  0.00    -0.081 SA
BRANCH  16  17
HETATM   17  C   UNL     1      42.669 -15.998   3.579  1.00  0.00     0.191 A 
HETATM   18  N   UNL     1      42.548 -17.341   3.797  1.00  0.00    -0.312 N 
HETATM   19  C   UNL     1      41.574 -18.002   4.628  1.00  0.00     0.160 C 
HETATM   20  C   UNL     1      43.516 -17.937   3.014  1.00  0.00     0.164 A 
HETATM   21  N   UNL     1      44.100 -16.992   2.295  1.00  0.00    -0.128 NA
HETATM   22  N   UNL     1      43.574 -15.776   2.657  1.00  0.00    -0.122 NA
BRANCH  20  23
HETATM   23  C   UNL     1      43.840 -19.365   2.985  1.00  0.00     0.018 A 
HETATM   24  C   UNL     1      44.531 -19.990   4.044  1.00  0.00    -0.048 A 
HETATM   25  C   UNL     1      44.963 -19.230   5.270  1.00  0.00     0.049 C 
HETATM   26  C   UNL     1      44.798 -21.369   3.971  1.00  0.00     0.007 A 
HETATM   27  C   UNL     1      44.394 -22.120   2.867  1.00  0.00     0.001 A 
HETATM   28  C   UNL     1      43.706 -21.507   1.826  1.00  0.00     0.001 A 
HETATM   29  C   UNL     1      43.425 -20.141   1.888  1.00  0.00     0.016 A 
ENDBRANCH  20  23
ENDBRANCH  16  17
ENDBRANCH   1  16
TORSDOF 8
ENDMDL
MODEL 7
REMARK VINA RESULT:      -8.3      2.494      3.701
REMARK  8 active torsions:
REMARK  status: ('A' for Active; 'I' for Inactive)
REMARK    1  A    between atoms: C_4  and  O_5 
REMARK    2  A    between atoms: O_5  and  C_6 
REMARK    3  A    between atoms: C_6  and  C_7 
REMARK    4  A    between atoms: C_7  and  N_8 
REMARK       I    between atoms: N_8  and  C_9 
REMARK    5  A    between atoms: C_9  and  C_10 
REMARK    6  A    between atoms: C_10  and  S_11 
REMARK    7  A    between atoms: S_11  and  C_12 
REMARK    8  A    between atoms: C_15  and  C_16 
ROOT
HETATM    1  C   UNL     1      41.314 -12.383   5.993  1.00  0.00     0.185 C 
ENDROOT
BRANCH   1   2
HETATM    2  C   UNL     1      40.008 -12.106   6.730  1.00  0.00     0.227 C 
HETATM    3  N   UNL     1      40.207 -11.470   7.947  1.00  0.00    -0.358 N 
HETATM    4  H   UNL     1      41.098 -11.013   8.097  1.00  0.00     0.162 HD
HETATM    5  O   UNL     1      38.895 -12.441   6.332  1.00  0.00    -0.273 OA
BRANCH   3   6
HETATM    6  C   UNL     1      39.090 -11.050   8.778  1.00  0.00     0.149 C 
BRANCH   6   7
HETATM    7  C   UNL     1      39.546 -10.378  10.074  1.00  0.00     0.195 C 
BRANCH   7   8
HETATM    8  O   UNL     1      40.283 -11.331  10.838  1.00  0.00    -0.350 OA
BRANCH   8   9
HETATM    9  C   UNL     1      41.532 -10.968  11.263  1.00  0.00     0.069 A 
HETATM   10  C   UNL     1      42.715 -11.065  10.528  1.00  0.00     0.043 A 
HETATM   11  C   UNL     1      43.939 -10.662  11.089  1.00  0.00    -0.059 A 
HETATM   12  C   UNL     1      45.214 -10.748  10.304  1.00  0.00     0.048 C 
HETATM   13  C   UNL     1      43.960 -10.146  12.391  1.00  0.00     0.007 A 
HETATM   14  C   UNL     1      42.782 -10.046  13.126  1.00  0.00     0.003 A 
HETATM   15  C   UNL     1      41.574 -10.457  12.563  1.00  0.00     0.037 A 
ENDBRANCH   8   9
ENDBRANCH   7   8
ENDBRANCH   6   7
ENDBRANCH   3   6
ENDBRANCH   1   2
BRANCH   1  16
HETATM   16  S   UNL     1      41.042 -12.977   4.302  1.00  0.00    -0.081 SA
BRANCH  16  17
HETATM   17  C   UNL     1      41.300 -14.669   4.529  1.00  0.00     0.191 A 
HETATM   18  N   UNL     1      42.280 -15.383   3.901  1.00  0.00    -0.312 N 
HETATM   19  C   UNL     1      43.367 -14.861   3.114  1.00  0.00     0.160 C 
HETATM   20  C   UNL     1      42.046 -16.705   4.224  1.00  0.00     0.164 A 
HETATM   21  N   UNL     1      41.042 -16.744   5.085  1.00  0.00    -0.128 NA
HETATM   22  N   UNL     1      40.569 -15.467   5.268  1.00  0.00    -0.122 NA
BRANCH  20  23
HETATM   23  C   UNL     1      42.781 -17.860   3.705  1.00  0.00     0.018 A 
HETATM   24  C   UNL     1      42.565 -18.351   2.400  1.00  0.00    -0.048 A 
HETATM   25  C   UNL     1      41.578 -17.708   1.462  1.00  0.00     0.049 C 
HETATM   26  C   UNL     1      43.314 -19.452   1.948  1.00  0.00     0.007 A 
HETATM   27  C   UNL     1      44.258 -20.065   2.772  1.00  0.00     0.001 A 
HETATM   28  C   UNL     1      44.478 -19.578   4.056  1.00  0.00     0.001 A 
HETATM   29  C   UNL     1      43.750 -18.479   4.516  1.00  0.00     0.016 A 
ENDBRANCH  20  23
ENDBRANCH  16  17
ENDBRANCH   1  16
TORSDOF 8
ENDMDL
MODEL 8
REMARK VINA RESULT:      -8.0      4.028      8.231
REMARK  8 active torsions:
REMARK  status: ('A' for Active; 'I' for Inactive)
REMARK    1  A    between atoms: C_4  and  O_5 
REMARK    2  A    between atoms: O_5  and  C_6 
REMARK    3  A    between atoms: C_6  and  C_7 
REMARK    4  A    between atoms: C_7  and  N_8 
REMARK       I    between atoms: N_8  and  C_9 
REMARK    5  A    between atoms: C_9  and  C_10 
REMARK    6  A    between atoms: C_10  and  S_11 
REMARK    7  A    between atoms: S_11  and  C_12 
REMARK    8  A    between atoms: C_15  and  C_16 
ROOT
HETATM    1  C   UNL     1      42.205 -13.545   5.196  1.00  0.00     0.185 C 
ENDROOT
BRANCH   1   2
HETATM    2  C   UNL     1      43.255 -14.279   6.024  1.00  0.00     0.227 C 
HETATM    3  N   UNL     1      42.763 -15.442   6.599  1.00  0.00    -0.358 N 
HETATM    4  H   UNL     1      41.912 -15.833   6.214  1.00  0.00     0.162 HD
HETATM    5  O   UNL     1      44.401 -13.880   6.213  1.00  0.00    -0.273 OA
BRANCH   3   6
HETATM    6  C   UNL     1      43.618 -16.330   7.370  1.00  0.00     0.149 C 
BRANCH   6   7
HETATM    7  C   UNL     1      44.381 -17.319   6.486  1.00  0.00     0.195 C 
BRANCH   7   8
HETATM    8  O   UNL     1      43.473 -18.331   6.058  1.00  0.00    -0.350 OA
BRANCH   8   9
HETATM    9  C   UNL     1      43.449 -18.635   4.724  1.00  0.00     0.069 A 
HETATM   10  C   UNL     1      42.633 -18.044   3.758  1.00  0.00     0.043 A 
HETATM   11  C   UNL     1      42.703 -18.456   2.416  1.00  0.00    -0.059 A 
HETATM   12  C   UNL     1      41.841 -17.819   1.366  1.00  0.00     0.048 C 
HETATM   13  C   UNL     1      43.613 -19.456   2.052  1.00  0.00     0.007 A 
HETATM   14  C   UNL     1      44.430 -20.046   3.013  1.00  0.00     0.003 A 
HETATM   15  C   UNL     1      44.345 -19.636   4.343  1.00  0.00     0.037 A 
ENDBRANCH   8   9
ENDBRANCH   7   8
ENDBRANCH   6   7
ENDBRANCH   3   6
ENDBRANCH   1   2
BRANCH   1  16
HETATM   16  S   UNL     1      41.033 -14.678   4.403  1.00  0.00    -0.081 SA
BRANCH  16  17
HETATM   17  C   UNL     1      41.229 -14.210   2.753  1.00  0.00     0.191 A 
HETATM   18  N   UNL     1      40.397 -14.602   1.743  1.00  0.00    -0.312 N 
HETATM   19  C   UNL     1      39.138 -15.288   1.872  1.00  0.00     0.160 C 
HETATM   20  C   UNL     1      40.986 -14.155   0.577  1.00  0.00     0.164 A 
HETATM   21  N   UNL     1      42.054 -13.445   0.904  1.00  0.00    -0.128 NA
HETATM   22  N   UNL     1      42.211 -13.488   2.268  1.00  0.00    -0.122 NA
BRANCH  20  23
HETATM   23  C   UNL     1      40.511 -14.420  -0.783  1.00  0.00     0.018 A 
HETATM   24  C   UNL     1      39.522 -13.620  -1.392  1.00  0.00    -0.048 A 
HETATM   25  C   UNL     1      38.908 -12.440  -0.687  1.00  0.00     0.049 C 
HETATM   26  C   UNL     1      39.119 -13.910  -2.708  1.00  0.00     0.007 A 
HETATM   27  C   UNL     1      39.678 -14.977  -3.411  1.00  0.00     0.001 A 
HETATM   28  C   UNL     1      40.659 -15.762  -2.815  1.00  0.00     0.001 A 
HETATM   29  C   UNL     1      41.077 -15.482  -1.512  1.00  0.00     0.016 A 
ENDBRANCH  20  23
ENDBRANCH  16  17
ENDBRANCH   1  16
TORSDOF 8
ENDMDL
MODEL 9
REMARK VINA RESULT:      -7.9      4.197      6.980
REMARK  8 active torsions:
REMARK  status: ('A' for Active; 'I' for Inactive)
REMARK    1  A    between atoms: C_4  and  O_5 
REMARK    2  A    between atoms: O_5  and  C_6 
REMARK    3  A    between atoms: C_6  and  C_7 
REMARK    4  A    between atoms: C_7  and  N_8 
REMARK       I    between atoms: N_8  and  C_9 
REMARK    5  A    between atoms: C_9  and  C_10 
REMARK    6  A    between atoms: C_10  and  S_11 
REMARK    7  A    between atoms: S_11  and  C_12 
REMARK    8  A    between atoms: C_15  and  C_16 
ROOT
HETATM    1  C   UNL     1      42.063 -13.017   5.317  1.00  0.00     0.185 C 
ENDROOT
BRANCH   1   2
HETATM    2  C   UNL     1      41.083 -12.070   4.632  1.00  0.00     0.227 C 
HETATM    3  N   UNL     1      41.643 -11.420   3.542  1.00  0.00    -0.358 N 
HETATM    4  H   UNL     1      42.486 -11.814   3.142  1.00  0.00     0.162 HD
HETATM    5  O   UNL     1      39.936 -11.855   5.014  1.00  0.00    -0.273 OA
BRANCH   3   6
HETATM    6  C   UNL     1      40.860 -10.527   2.704  1.00  0.00     0.149 C 
BRANCH   6   7
HETATM    7  C   UNL     1      40.674 -11.069   1.285  1.00  0.00     0.195 C 
BRANCH   7   8
HETATM    8  O   UNL     1      39.778 -12.177   1.343  1.00  0.00    -0.350 OA
BRANCH   8   9
HETATM    9  C   UNL     1      40.264 -13.401   0.973  1.00  0.00     0.069 A 
HETATM   10  C   UNL     1      39.968 -14.624   1.578  1.00  0.00     0.043 A 
HETATM   11  C   UNL     1      40.543 -15.814   1.101  1.00  0.00    -0.059 A 
HETATM   12  C   UNL     1      40.221 -17.135   1.735  1.00  0.00     0.048 C 
HETATM   13  C   UNL     1      41.408 -15.765   0.001  1.00  0.00     0.007 A 
HETATM   14  C   UNL     1      41.704 -14.548  -0.607  1.00  0.00     0.003 A 
HETATM   15  C   UNL     1      41.134 -13.372  -0.120  1.00  0.00     0.037 A 
ENDBRANCH   8   9
ENDBRANCH   7   8
ENDBRANCH   6   7
ENDBRANCH   3   6
ENDBRANCH   1   2
BRANCH   1  16
HETATM   16  S   UNL     1      41.342 -14.649   5.636  1.00  0.00    -0.081 SA
BRANCH  16  17
HETATM   17  C   UNL     1      42.250 -15.604   4.520  1.00  0.00     0.191 A 
HETATM   18  N   UNL     1      42.230 -16.969   4.490  1.00  0.00    -0.312 N 
HETATM   19  C   UNL     1      41.341 -17.841   5.215  1.00  0.00     0.160 C 
HETATM   20  C   UNL     1      43.198 -17.339   3.579  1.00  0.00     0.164 A 
HETATM   21  N   UNL     1      43.683 -16.238   3.028  1.00  0.00    -0.128 NA
HETATM   22  N   UNL     1      43.094 -15.150   3.626  1.00  0.00    -0.122 NA
BRANCH  20  23
HETATM   23  C   UNL     1      43.616 -18.709   3.275  1.00  0.00     0.018 A 
HETATM   24  C   UNL     1      44.401 -19.462   4.174  1.00  0.00    -0.048 A 
HETATM   25  C   UNL     1      44.842 -18.905   5.502  1.00  0.00     0.049 C 
HETATM   26  C   UNL     1      44.755 -20.780   3.838  1.00  0.00     0.007 A 
HETATM   27  C   UNL     1      44.348 -21.347   2.631  1.00  0.00     0.001 A 
HETATM   28  C   UNL     1      43.568 -20.610   1.747  1.00  0.00     0.001 A 
HETATM   29  C   UNL     1      43.199 -19.303   2.070  1.00  0.00     0.016 A 
ENDBRANCH  20  23
ENDBRANCH  16  17
ENDBRANCH   1  16
TORSDOF 8
ENDMDL
MODEL 10
REMARK VINA RESULT:      -7.7      4.208      7.982
REMARK  8 active torsions:
REMARK  status: ('A' for Active; 'I' for Inactive)
REMARK    1  A    between atoms: C_4  and  O_5 
REMARK    2  A    between atoms: O_5  and  C_6 
REMARK    3  A    between atoms: C_6  and  C_7 
REMARK    4  A    between atoms: C_7  and  N_8 
REMARK       I    between atoms: N_8  and  C_9 
REMARK    5  A    between atoms: C_9  and  C_10 
REMARK    6  A    between atoms: C_10  and  S_11 
REMARK    7  A    between atoms: S_11  and  C_12 
REMARK    8  A    between atoms: C_15  and  C_16 
ROOT
HETATM    1  C   UNL     1      43.233 -14.577   6.104  1.00  0.00     0.185 C 
ENDROOT
BRANCH   1   2
HETATM    2  C   UNL     1      42.238 -14.266   4.991  1.00  0.00     0.227 C 
HETATM    3  N   UNL     1      42.776 -13.447   4.008  1.00  0.00    -0.358 N 
HETATM    4  H   UNL     1      43.784 -13.374   3.959  1.00  0.00     0.162 HD
HETATM    5  O   UNL     1      41.071 -14.648   4.970  1.00  0.00    -0.273 OA
BRANCH   3   6
HETATM    6  C   UNL     1      42.019 -13.088   2.820  1.00  0.00     0.149 C 
BRANCH   6   7
HETATM    7  C   UNL     1      42.426 -13.912   1.597  1.00  0.00     0.195 C 
BRANCH   7   8
HETATM    8  O   UNL     1      41.251 -14.202   0.841  1.00  0.00    -0.350 OA
BRANCH   8   9
HETATM    9  C   UNL     1      41.358 -14.184  -0.523  1.00  0.00     0.069 A 
HETATM   10  C   UNL     1      41.832 -13.125  -1.299  1.00  0.00     0.043 A 
HETATM   11  C   UNL     1      41.883 -13.234  -2.699  1.00  0.00    -0.059 A 
HETATM   12  C   UNL     1      42.403 -12.107  -3.543  1.00  0.00     0.048 C 
HETATM   13  C   UNL     1      41.469 -14.423  -3.311  1.00  0.00     0.007 A 
HETATM   14  C   UNL     1      40.998 -15.482  -2.539  1.00  0.00     0.003 A 
HETATM   15  C   UNL     1      40.943 -15.360  -1.151  1.00  0.00     0.037 A 
ENDBRANCH   8   9
ENDBRANCH   7   8
ENDBRANCH   6   7
ENDBRANCH   3   6
ENDBRANCH   1   2
BRANCH   1  16
HETATM   16  S   UNL     1      42.788 -16.067   7.035  1.00  0.00    -0.081 SA
BRANCH  16  17
HETATM   17  C   UNL     1      43.827 -17.219   6.278  1.00  0.00     0.191 A 
HETATM   18  N   UNL     1      43.398 -18.171   5.397  1.00  0.00    -0.312 N 
HETATM   19  C   UNL     1      42.092 -18.277   4.799  1.00  0.00     0.160 C 
HETATM   20  C   UNL     1      44.493 -18.977   5.155  1.00  0.00     0.164 A 
HETATM   21  N   UNL     1      45.533 -18.454   5.783  1.00  0.00    -0.128 NA
HETATM   22  N   UNL     1      45.112 -17.357   6.494  1.00  0.00    -0.122 NA
BRANCH  20  23
HETATM   23  C   UNL     1      44.500 -20.198   4.346  1.00  0.00     0.018 A 
HETATM   24  C   UNL     1      44.346 -20.159   2.944  1.00  0.00    -0.048 A 
HETATM   25  C   UNL     1      44.181 -18.861   2.198  1.00  0.00     0.049 C 
HETATM   26  C   UNL     1      44.381 -21.361   2.216  1.00  0.00     0.007 A 
HETATM   27  C   UNL     1      44.558 -22.585   2.860  1.00  0.00     0.001 A 
HETATM   28  C   UNL     1      44.718 -22.625   4.241  1.00  0.00     0.001 A 
HETATM   29  C   UNL     1      44.695 -21.439   4.977  1.00  0.00     0.016 A 
ENDBRANCH  20  23
ENDBRANCH  16  17
ENDBRANCH   1  16
TORSDOF 8
ENDMDL
