MODEL 1
REMARK VINA RESULT:      -8.8      0.000      0.000
REMARK  4 active torsions:
REMARK  status: ('A' for Active; 'I' for Inactive)
REMARK    1  A    between atoms: C_3  and  C_4 
REMARK    2  A    between atoms: C_9  and  N_10 
REMARK       I    between atoms: N_10  and  C_11 
REMARK    3  A    between atoms: C_11  and  C_12 
REMARK    4  A    between atoms: C_16  and  C_17 
ROOT
HETATM    1  N   UNL     1      43.981 -13.662   7.576  1.00  0.00    -0.322 N 
HETATM    2  C   UNL     1      45.144 -12.970   7.853  1.00  0.00     0.276 C 
HETATM    3  O   UNL     1      46.213 -13.060   7.259  1.00  0.00    -0.266 OA
HETATM    4  H   UNL     1      43.219 -13.429   8.210  1.00  0.00     0.169 HD
ENDROOT
BRANCH   2   5
HETATM    5  C   UNL     1      44.988 -12.098   9.032  1.00  0.00     0.147 A 
HETATM    6  N   UNL     1      45.748 -11.000   9.216  1.00  0.00    -0.169 NA
HETATM    7  N   UNL     1      45.274 -10.470  10.357  1.00  0.00    -0.277 N 
HETATM    8  H   UNL     1      45.719  -9.630  10.708  1.00  0.00     0.189 HD
HETATM    9  C   UNL     1      44.205 -11.137  10.901  1.00  0.00     0.063 A 
HETATM   10  C   UNL     1      44.034 -12.229  10.070  1.00  0.00     0.071 A 
BRANCH   9  11
HETATM   11  C   UNL     1      43.468 -10.698  12.092  1.00  0.00    -0.008 A 
HETATM   12  C   UNL     1      43.870  -9.579  12.841  1.00  0.00     0.014 A 
HETATM   13  C   UNL     1      43.136  -9.158  13.955  1.00  0.00     0.001 A 
HETATM   14  C   UNL     1      41.988  -9.845  14.338  1.00  0.00     0.000 A 
HETATM   15  C   UNL     1      41.574 -10.956  13.609  1.00  0.00     0.001 A 
HETATM   16  C   UNL     1      42.309 -11.378  12.497  1.00  0.00     0.014 A 
ENDBRANCH   9  11
ENDBRANCH   2   5
BRANCH   1  17
HETATM   17  C   UNL     1      43.776 -14.682   6.635  1.00  0.00     0.035 A 
HETATM   18  C   UNL     1      43.108 -14.500   5.427  1.00  0.00     0.030 A 
HETATM   19  C   UNL     1      42.986 -15.557   4.520  1.00  0.00     0.018 A 
HETATM   20  C   UNL     1      43.541 -16.812   4.807  1.00  0.00     0.015 A 
HETATM   21  C   UNL     1      44.208 -17.018   6.029  1.00  0.00    -0.046 A 
HETATM   22  C   UNL     1      44.822 -18.339   6.401  1.00  0.00     0.049 C 
HETATM   23  C   UNL     1      44.306 -15.945   6.935  1.00  0.00     0.037 A 
BRANCH  20  24
HETATM   24  C   UNL     1      43.403 -17.904   3.801  1.00  0.00     0.156 C 
HETATM   25  C   UNL     1      44.100 -17.739   2.474  1.00  0.00     0.097 C 
HETATM   26  O   UNL     1      42.725 -18.899   4.047  1.00  0.00    -0.293 OA
ENDBRANCH  20  24
ENDBRANCH   1  17
TORSDOF 4
ENDMDL
MODEL 2
REMARK VINA RESULT:      -8.1      8.769     11.344
REMARK  4 active torsions:
REMARK  status: ('A' for Active; 'I' for Inactive)
REMARK    1  A    between atoms: C_3  and  C_4 
REMARK    2  A    between atoms: C_9  and  N_10 
REMARK       I    between atoms: N_10  and  C_11 
REMARK    3  A    between atoms: C_11  and  C_12 
REMARK    4  A    between atoms: C_16  and  C_17 
ROOT
HETATM    1  N   UNL     1      41.911 -14.688  -0.653  1.00  0.00    -0.322 N 
HETATM    2  C   UNL     1      40.897 -15.041   0.216  1.00  0.00     0.276 C 
HETATM    3  O   UNL     1      39.760 -14.582   0.245  1.00  0.00    -0.266 OA
HETATM    4  H   UNL     1      42.776 -15.198  -0.483  1.00  0.00     0.169 HD
ENDROOT
BRANCH   2   5
HETATM    5  C   UNL     1      41.349 -16.045   1.197  1.00  0.00     0.147 A 
HETATM    6  N   UNL     1      40.742 -16.204   2.390  1.00  0.00    -0.169 NA
HETATM    7  N   UNL     1      41.411 -17.225   2.956  1.00  0.00    -0.277 N 
HETATM    8  H   UNL     1      41.135 -17.512   3.887  1.00  0.00     0.189 HD
HETATM    9  C   UNL     1      42.391 -17.777   2.169  1.00  0.00     0.063 A 
HETATM   10  C   UNL     1      42.393 -16.989   1.033  1.00  0.00     0.071 A 
BRANCH   9  11
HETATM   11  C   UNL     1      43.190 -18.952   2.537  1.00  0.00    -0.008 A 
HETATM   12  C   UNL     1      43.965 -18.983   3.708  1.00  0.00     0.014 A 
HETATM   13  C   UNL     1      44.696 -20.123   4.057  1.00  0.00     0.001 A 
HETATM   14  C   UNL     1      44.663 -21.253   3.245  1.00  0.00     0.000 A 
HETATM   15  C   UNL     1      43.901 -21.241   2.080  1.00  0.00     0.001 A 
HETATM   16  C   UNL     1      43.173 -20.100   1.730  1.00  0.00     0.014 A 
ENDBRANCH   9  11
ENDBRANCH   2   5
BRANCH   1  17
HETATM   17  C   UNL     1      41.916 -13.672  -1.621  1.00  0.00     0.035 A 
HETATM   18  C   UNL     1      41.278 -13.775  -2.855  1.00  0.00     0.030 A 
HETATM   19  C   UNL     1      41.290 -12.698  -3.747  1.00  0.00     0.018 A 
HETATM   20  C   UNL     1      41.934 -11.499  -3.413  1.00  0.00     0.015 A 
HETATM   21  C   UNL     1      42.595 -11.383  -2.176  1.00  0.00    -0.046 A 
HETATM   22  C   UNL     1      43.309 -10.128  -1.757  1.00  0.00     0.049 C 
HETATM   23  C   UNL     1      42.586 -12.484  -1.298  1.00  0.00     0.037 A 
BRANCH  20  24
HETATM   24  C   UNL     1      41.902 -10.372  -4.389  1.00  0.00     0.156 C 
HETATM   25  C   UNL     1      40.715  -9.443  -4.363  1.00  0.00     0.097 C 
HETATM   26  O   UNL     1      42.814 -10.222  -5.199  1.00  0.00    -0.293 OA
ENDBRANCH  20  24
ENDBRANCH   1  17
TORSDOF 4
ENDMDL
MODEL 3
REMARK VINA RESULT:      -8.0      1.666      2.564
REMARK  4 active torsions:
REMARK  status: ('A' for Active; 'I' for Inactive)
REMARK    1  A    between atoms: C_3  and  C_4 
REMARK    2  A    between atoms: C_9  and  N_10 
REMARK       I    between atoms: N_10  and  C_11 
REMARK    3  A    between atoms: C_11  and  C_12 
REMARK    4  A    between atoms: C_16  and  C_17 
ROOT
HETATM    1  N   UNL     1      43.712 -14.807   6.909  1.00  0.00    -0.322 N 
HETATM    2  C   UNL     1      44.573 -13.746   7.110  1.00  0.00     0.276 C 
HETATM    3  O   UNL     1      45.757 -13.690   6.796  1.00  0.00    -0.266 OA
HETATM    4  H   UNL     1      42.773 -14.629   7.261  1.00  0.00     0.169 HD
ENDROOT
BRANCH   2   5
HETATM    5  C   UNL     1      43.912 -12.639   7.825  1.00  0.00     0.147 A 
HETATM    6  N   UNL     1      42.806 -12.036   7.344  1.00  0.00    -0.169 NA
HETATM    7  N   UNL     1      42.498 -11.131   8.290  1.00  0.00    -0.277 N 
HETATM    8  H   UNL     1      41.695 -10.534   8.129  1.00  0.00     0.189 HD
HETATM    9  C   UNL     1      43.316 -11.149   9.392  1.00  0.00     0.063 A 
HETATM   10  C   UNL     1      44.273 -12.099   9.083  1.00  0.00     0.071 A 
BRANCH   9  11
HETATM   11  C   UNL     1      43.124 -10.316  10.585  1.00  0.00    -0.008 A 
HETATM   12  C   UNL     1      42.159  -9.296  10.628  1.00  0.00     0.014 A 
HETATM   13  C   UNL     1      41.970  -8.533  11.786  1.00  0.00     0.001 A 
HETATM   14  C   UNL     1      42.739  -8.779  12.920  1.00  0.00     0.000 A 
HETATM   15  C   UNL     1      43.700  -9.785  12.896  1.00  0.00     0.001 A 
HETATM   16  C   UNL     1      43.891 -10.545  11.738  1.00  0.00     0.014 A 
ENDBRANCH   9  11
ENDBRANCH   2   5
BRANCH   1  17
HETATM   17  C   UNL     1      44.002 -16.082   6.401  1.00  0.00     0.035 A 
HETATM   18  C   UNL     1      44.917 -16.958   6.981  1.00  0.00     0.030 A 
HETATM   19  C   UNL     1      45.115 -18.233   6.442  1.00  0.00     0.018 A 
HETATM   20  C   UNL     1      44.392 -18.653   5.317  1.00  0.00     0.015 A 
HETATM   21  C   UNL     1      43.473 -17.777   4.711  1.00  0.00    -0.046 A 
HETATM   22  C   UNL     1      42.669 -18.162   3.500  1.00  0.00     0.049 C 
HETATM   23  C   UNL     1      43.300 -16.491   5.259  1.00  0.00     0.037 A 
BRANCH  20  24
HETATM   24  C   UNL     1      44.622 -20.028   4.790  1.00  0.00     0.156 C 
HETATM   25  C   UNL     1      44.384 -21.194   5.716  1.00  0.00     0.097 C 
HETATM   26  O   UNL     1      45.012 -20.198   3.637  1.00  0.00    -0.293 OA
ENDBRANCH  20  24
ENDBRANCH   1  17
TORSDOF 4
ENDMDL
MODEL 4
REMARK VINA RESULT:      -7.9      8.099     11.314
REMARK  4 active torsions:
REMARK  status: ('A' for Active; 'I' for Inactive)
REMARK    1  A    between atoms: C_3  and  C_4 
REMARK    2  A    between atoms: C_9  and  N_10 
REMARK       I    between atoms: N_10  and  C_11 
REMARK    3  A    between atoms: C_11  and  C_12 
REMARK    4  A    between atoms: C_16  and  C_17 
ROOT
HETATM    1  N   UNL     1      42.744 -16.524   0.660  1.00  0.00    -0.322 N 
HETATM    2  C   UNL     1      41.487 -15.976   0.496  1.00  0.00     0.276 C 
HETATM    3  O   UNL     1      40.550 -16.036   1.284  1.00  0.00    -0.266 OA
HETATM    4  H   UNL     1      43.359 -16.352  -0.134  1.00  0.00     0.169 HD
ENDROOT
BRANCH   2   5
HETATM    5  C   UNL     1      41.352 -15.312  -0.814  1.00  0.00     0.147 A 
HETATM    6  N   UNL     1      40.903 -15.966  -1.905  1.00  0.00    -0.169 NA
HETATM    7  N   UNL     1      40.886 -15.020  -2.861  1.00  0.00    -0.277 N 
HETATM    8  H   UNL     1      40.595 -15.295  -3.791  1.00  0.00     0.189 HD
HETATM    9  C   UNL     1      41.251 -13.766  -2.436  1.00  0.00     0.063 A 
HETATM   10  C   UNL     1      41.601 -13.950  -1.111  1.00  0.00     0.071 A 
BRANCH   9  11
HETATM   11  C   UNL     1      41.225 -12.563  -3.276  1.00  0.00    -0.008 A 
HETATM   12  C   UNL     1      40.026 -12.049  -3.797  1.00  0.00     0.014 A 
HETATM   13  C   UNL     1      40.019 -10.884  -4.571  1.00  0.00     0.001 A 
HETATM   14  C   UNL     1      41.208 -10.210  -4.834  1.00  0.00     0.000 A 
HETATM   15  C   UNL     1      42.406 -10.704  -4.327  1.00  0.00     0.001 A 
HETATM   16  C   UNL     1      42.413 -11.871  -3.556  1.00  0.00     0.014 A 
ENDBRANCH   9  11
ENDBRANCH   2   5
BRANCH   1  17
HETATM   17  C   UNL     1      43.208 -17.349   1.695  1.00  0.00     0.035 A 
HETATM   18  C   UNL     1      43.504 -16.891   2.977  1.00  0.00     0.030 A 
HETATM   19  C   UNL     1      43.916 -17.786   3.969  1.00  0.00     0.018 A 
HETATM   20  C   UNL     1      44.031 -19.155   3.694  1.00  0.00     0.015 A 
HETATM   21  C   UNL     1      43.748 -19.633   2.401  1.00  0.00    -0.046 A 
HETATM   22  C   UNL     1      43.855 -21.089   2.037  1.00  0.00     0.049 C 
HETATM   23  C   UNL     1      43.351 -18.714   1.411  1.00  0.00     0.037 A 
BRANCH  20  24
HETATM   24  C   UNL     1      44.455 -20.074   4.789  1.00  0.00     0.156 C 
HETATM   25  C   UNL     1      43.727 -19.992   6.107  1.00  0.00     0.097 C 
HETATM   26  O   UNL     1      45.383 -20.860   4.620  1.00  0.00    -0.293 OA
ENDBRANCH  20  24
ENDBRANCH   1  17
TORSDOF 4
ENDMDL
MODEL 5
REMARK VINA RESULT:      -7.9      7.777     10.560
REMARK  4 active torsions:
REMARK  status: ('A' for Active; 'I' for Inactive)
REMARK    1  A    between atoms: C_3  and  C_4 
REMARK    2  A    between atoms: C_9  and  N_10 
REMARK       I    between atoms: N_10  and  C_11 
REMARK    3  A    between atoms: C_11  and  C_12 
REMARK    4  A    between atoms: C_16  and  C_17 
ROOT
HETATM    1  N   UNL     1      41.336 -15.853   1.257  1.00  0.00    -0.322 N 
HETATM    2  C   UNL     1      42.241 -15.394   2.193  1.00  0.00     0.276 C 
HETATM    3  O   UNL     1      42.516 -14.224   2.438  1.00  0.00    -0.266 OA
HETATM    4  H   UNL     1      41.280 -16.870   1.223  1.00  0.00     0.169 HD
ENDROOT
BRANCH   2   5
HETATM    5  C   UNL     1      42.925 -16.506   2.877  1.00  0.00     0.147 A 
HETATM    6  N   UNL     1      43.390 -16.394   4.138  1.00  0.00    -0.169 NA
HETATM    7  N   UNL     1      43.895 -17.612   4.403  1.00  0.00    -0.277 N 
HETATM    8  H   UNL     1      44.326 -17.758   5.308  1.00  0.00     0.189 HD
HETATM    9  C   UNL     1      43.734 -18.533   3.397  1.00  0.00     0.063 A 
HETATM   10  C   UNL     1      43.142 -17.813   2.375  1.00  0.00     0.071 A 
BRANCH   9  11
HETATM   11  C   UNL     1      44.124 -19.945   3.491  1.00  0.00    -0.008 A 
HETATM   12  C   UNL     1      44.552 -20.516   4.701  1.00  0.00     0.014 A 
HETATM   13  C   UNL     1      44.891 -21.871   4.777  1.00  0.00     0.001 A 
HETATM   14  C   UNL     1      44.804 -22.679   3.646  1.00  0.00     0.000 A 
HETATM   15  C   UNL     1      44.382 -22.131   2.439  1.00  0.00     0.001 A 
HETATM   16  C   UNL     1      44.046 -20.776   2.363  1.00  0.00     0.014 A 
ENDBRANCH   9  11
ENDBRANCH   2   5
BRANCH   1  17
HETATM   17  C   UNL     1      40.604 -15.116   0.314  1.00  0.00     0.035 A 
HETATM   18  C   UNL     1      39.473 -14.364   0.626  1.00  0.00     0.030 A 
HETATM   19  C   UNL     1      38.827 -13.617  -0.363  1.00  0.00     0.018 A 
HETATM   20  C   UNL     1      39.310 -13.604  -1.679  1.00  0.00     0.015 A 
HETATM   21  C   UNL     1      40.443 -14.367  -2.014  1.00  0.00    -0.046 A 
HETATM   22  C   UNL     1      41.010 -14.401  -3.407  1.00  0.00     0.049 C 
HETATM   23  C   UNL     1      41.070 -15.126  -1.007  1.00  0.00     0.037 A 
BRANCH  20  24
HETATM   24  C   UNL     1      38.599 -12.776  -2.695  1.00  0.00     0.156 C 
HETATM   25  C   UNL     1      37.414 -13.382  -3.403  1.00  0.00     0.097 C 
HETATM   26  O   UNL     1      38.985 -11.638  -2.954  1.00  0.00    -0.293 OA
ENDBRANCH  20  24
ENDBRANCH   1  17
TORSDOF 4
ENDMDL
MODEL 6
REMARK VINA RESULT:      -7.9      7.697     11.941
REMARK  4 active torsions:
REMARK  status: ('A' for Active; 'I' for Inactive)
REMARK    1  A    between atoms: C_3  and  C_4 
REMARK    2  A    between atoms: C_9  and  N_10 
REMARK       I    between atoms: N_10  and  C_11 
REMARK    3  A    between atoms: C_11  and  C_12 
REMARK    4  A    between atoms: C_16  and  C_17 
ROOT
HETATM    1  N   UNL     1      41.782 -16.547  -0.016  1.00  0.00    -0.322 N 
HETATM    2  C   UNL     1      41.493 -15.207  -0.180  1.00  0.00     0.276 C 
HETATM    3  O   UNL     1      41.802 -14.290   0.573  1.00  0.00    -0.266 OA
HETATM    4  H   UNL     1      41.415 -17.128  -0.768  1.00  0.00     0.169 HD
ENDROOT
BRANCH   2   5
HETATM    5  C   UNL     1      40.689 -14.970  -1.393  1.00  0.00     0.147 A 
HETATM    6  N   UNL     1      40.979 -15.560  -2.571  1.00  0.00    -0.169 NA
HETATM    7  N   UNL     1      40.005 -15.129  -3.393  1.00  0.00    -0.277 N 
HETATM    8  H   UNL     1      40.033 -15.436  -4.358  1.00  0.00     0.189 HD
HETATM    9  C   UNL     1      39.062 -14.329  -2.798  1.00  0.00     0.063 A 
HETATM   10  C   UNL     1      39.519 -14.180  -1.501  1.00  0.00     0.071 A 
BRANCH   9  11
HETATM   11  C   UNL     1      37.864 -13.814  -3.471  1.00  0.00    -0.008 A 
HETATM   12  C   UNL     1      36.986 -14.658  -4.172  1.00  0.00     0.014 A 
HETATM   13  C   UNL     1      35.834 -14.151  -4.781  1.00  0.00     0.001 A 
HETATM   14  C   UNL     1      35.536 -12.793  -4.698  1.00  0.00     0.000 A 
HETATM   15  C   UNL     1      36.394 -11.941  -4.009  1.00  0.00     0.001 A 
HETATM   16  C   UNL     1      37.547 -12.448  -3.402  1.00  0.00     0.014 A 
ENDBRANCH   9  11
ENDBRANCH   2   5
BRANCH   1  17
HETATM   17  C   UNL     1      42.393 -17.181   1.076  1.00  0.00     0.035 A 
HETATM   18  C   UNL     1      43.679 -17.716   1.041  1.00  0.00     0.030 A 
HETATM   19  C   UNL     1      44.236 -18.290   2.188  1.00  0.00     0.018 A 
HETATM   20  C   UNL     1      43.517 -18.328   3.391  1.00  0.00     0.015 A 
HETATM   21  C   UNL     1      42.213 -17.803   3.440  1.00  0.00    -0.046 A 
HETATM   22  C   UNL     1      41.384 -17.816   4.696  1.00  0.00     0.049 C 
HETATM   23  C   UNL     1      41.662 -17.245   2.270  1.00  0.00     0.037 A 
BRANCH  20  24
HETATM   24  C   UNL     1      44.161 -18.932   4.592  1.00  0.00     0.156 C 
HETATM   25  C   UNL     1      44.780 -18.005   5.608  1.00  0.00     0.097 C 
HETATM   26  O   UNL     1      44.197 -20.151   4.735  1.00  0.00    -0.293 OA
ENDBRANCH  20  24
ENDBRANCH   1  17
TORSDOF 4
ENDMDL
MODEL 7
REMARK VINA RESULT:      -7.8      4.631     10.086
REMARK  4 active torsions:
REMARK  status: ('A' for Active; 'I' for Inactive)
REMARK    1  A    between atoms: C_3  and  C_4 
REMARK    2  A    between atoms: C_9  and  N_10 
REMARK       I    between atoms: N_10  and  C_11 
REMARK    3  A    between atoms: C_11  and  C_12 
REMARK    4  A    between atoms: C_16  and  C_17 
ROOT
HETATM    1  N   UNL     1      41.703 -14.565   4.124  1.00  0.00    -0.322 N 
HETATM    2  C   UNL     1      42.645 -14.592   3.114  1.00  0.00     0.276 C 
HETATM    3  O   UNL     1      43.220 -13.629   2.619  1.00  0.00    -0.266 OA
HETATM    4  H   UNL     1      41.355 -15.490   4.369  1.00  0.00     0.169 HD
ENDROOT
BRANCH   2   5
HETATM    5  C   UNL     1      42.873 -15.964   2.624  1.00  0.00     0.147 A 
HETATM    6  N   UNL     1      42.908 -16.257   1.308  1.00  0.00    -0.169 NA
HETATM    7  N   UNL     1      43.177 -17.575   1.281  1.00  0.00    -0.277 N 
HETATM    8  H   UNL     1      43.231 -18.027   0.376  1.00  0.00     0.189 HD
HETATM    9  C   UNL     1      43.375 -18.147   2.513  1.00  0.00     0.063 A 
HETATM   10  C   UNL     1      43.136 -17.117   3.404  1.00  0.00     0.071 A 
BRANCH   9  11
HETATM   11  C   UNL     1      43.765 -19.546   2.727  1.00  0.00    -0.008 A 
HETATM   12  C   UNL     1      43.583 -20.526   1.738  1.00  0.00     0.014 A 
HETATM   13  C   UNL     1      43.989 -21.847   1.951  1.00  0.00     0.001 A 
HETATM   14  C   UNL     1      44.589 -22.211   3.153  1.00  0.00     0.000 A 
HETATM   15  C   UNL     1      44.778 -21.254   4.146  1.00  0.00     0.001 A 
HETATM   16  C   UNL     1      44.369 -19.934   3.934  1.00  0.00     0.014 A 
ENDBRANCH   9  11
ENDBRANCH   2   5
BRANCH   1  17
HETATM   17  C   UNL     1      41.116 -13.449   4.740  1.00  0.00     0.035 A 
HETATM   18  C   UNL     1      39.845 -12.971   4.430  1.00  0.00     0.030 A 
HETATM   19  C   UNL     1      39.312 -11.881   5.124  1.00  0.00     0.018 A 
HETATM   20  C   UNL     1      40.040 -11.259   6.147  1.00  0.00     0.015 A 
HETATM   21  C   UNL     1      41.331 -11.721   6.465  1.00  0.00    -0.046 A 
HETATM   22  C   UNL     1      42.168 -11.096   7.547  1.00  0.00     0.049 C 
HETATM   23  C   UNL     1      41.857 -12.809   5.743  1.00  0.00     0.037 A 
BRANCH  20  24
HETATM   24  C   UNL     1      39.421 -10.113   6.873  1.00  0.00     0.156 C 
HETATM   25  C   UNL     1      39.641  -8.724   6.327  1.00  0.00     0.097 C 
HETATM   26  O   UNL     1      38.767 -10.301   7.895  1.00  0.00    -0.293 OA
ENDBRANCH  20  24
ENDBRANCH   1  17
TORSDOF 4
ENDMDL
MODEL 8
REMARK VINA RESULT:      -7.5      8.687     11.491
REMARK  4 active torsions:
REMARK  status: ('A' for Active; 'I' for Inactive)
REMARK    1  A    between atoms: C_3  and  C_4 
REMARK    2  A    between atoms: C_9  and  N_10 
REMARK       I    between atoms: N_10  and  C_11 
REMARK    3  A    between atoms: C_11  and  C_12 
REMARK    4  A    between atoms: C_16  and  C_17 
ROOT
HETATM    1  N   UNL     1      42.037 -14.239  -0.635  1.00  0.00    -0.322 N 
HETATM    2  C   UNL     1      41.399 -15.457  -0.767  1.00  0.00     0.276 C 
HETATM    3  O   UNL     1      40.686 -15.815  -1.698  1.00  0.00    -0.266 OA
HETATM    4  H   UNL     1      42.571 -14.162   0.230  1.00  0.00     0.169 HD
ENDROOT
BRANCH   2   5
HETATM    5  C   UNL     1      41.627 -16.319   0.407  1.00  0.00     0.147 A 
HETATM    6  N   UNL     1      40.700 -16.470   1.374  1.00  0.00    -0.169 NA
HETATM    7  N   UNL     1      41.263 -17.350   2.222  1.00  0.00    -0.277 N 
HETATM    8  H   UNL     1      40.743 -17.602   3.054  1.00  0.00     0.189 HD
HETATM    9  C   UNL     1      42.491 -17.823   1.829  1.00  0.00     0.063 A 
HETATM   10  C   UNL     1      42.762 -17.125   0.666  1.00  0.00     0.071 A 
BRANCH   9  11
HETATM   11  C   UNL     1      43.254 -18.851   2.546  1.00  0.00    -0.008 A 
HETATM   12  C   UNL     1      43.566 -20.087   1.956  1.00  0.00     0.014 A 
HETATM   13  C   UNL     1      44.321 -21.043   2.645  1.00  0.00     0.001 A 
HETATM   14  C   UNL     1      44.780 -20.778   3.932  1.00  0.00     0.000 A 
HETATM   15  C   UNL     1      44.481 -19.559   4.533  1.00  0.00     0.001 A 
HETATM   16  C   UNL     1      43.724 -18.605   3.845  1.00  0.00     0.014 A 
ENDBRANCH   9  11
ENDBRANCH   2   5
BRANCH   1  17
HETATM   17  C   UNL     1      41.945 -13.110  -1.462  1.00  0.00     0.035 A 
HETATM   18  C   UNL     1      42.647 -12.965  -2.657  1.00  0.00     0.030 A 
HETATM   19  C   UNL     1      42.463 -11.829  -3.451  1.00  0.00     0.018 A 
HETATM   20  C   UNL     1      41.566 -10.824  -3.063  1.00  0.00     0.015 A 
HETATM   21  C   UNL     1      40.859 -10.948  -1.854  1.00  0.00    -0.046 A 
HETATM   22  C   UNL     1      39.885  -9.905  -1.377  1.00  0.00     0.049 C 
HETATM   23  C   UNL     1      41.070 -12.092  -1.060  1.00  0.00     0.037 A 
BRANCH  20  24
HETATM   24  C   UNL     1      41.389  -9.640  -3.952  1.00  0.00     0.156 C 
HETATM   25  C   UNL     1      42.302  -8.457  -3.751  1.00  0.00     0.097 C 
HETATM   26  O   UNL     1      40.510  -9.629  -4.810  1.00  0.00    -0.293 OA
ENDBRANCH  20  24
ENDBRANCH   1  17
TORSDOF 4
ENDMDL
MODEL 9
REMARK VINA RESULT:      -7.5      5.173      9.879
REMARK  4 active torsions:
REMARK  status: ('A' for Active; 'I' for Inactive)
REMARK    1  A    between atoms: C_3  and  C_4 
REMARK    2  A    between atoms: C_9  and  N_10 
REMARK       I    between atoms: N_10  and  C_11 
REMARK    3  A    between atoms: C_11  and  C_12 
REMARK    4  A    between atoms: C_16  and  C_17 
ROOT
HETATM    1  N   UNL     1      41.811 -14.287   4.672  1.00  0.00    -0.322 N 
HETATM    2  C   UNL     1      42.986 -14.599   4.016  1.00  0.00     0.276 C 
HETATM    3  O   UNL     1      43.641 -13.859   3.290  1.00  0.00    -0.266 OA
HETATM    4  H   UNL     1      41.439 -15.065   5.214  1.00  0.00     0.169 HD
ENDROOT
BRANCH   2   5
HETATM    5  C   UNL     1      43.377 -16.002   4.242  1.00  0.00     0.147 A 
HETATM    6  N   UNL     1      43.561 -16.504   5.480  1.00  0.00    -0.169 NA
HETATM    7  N   UNL     1      43.859 -17.797   5.260  1.00  0.00    -0.277 N 
HETATM    8  H   UNL     1      44.061 -18.378   6.065  1.00  0.00     0.189 HD
HETATM    9  C   UNL     1      43.825 -18.179   3.942  1.00  0.00     0.063 A 
HETATM   10  C   UNL     1      43.555 -17.007   3.260  1.00  0.00     0.071 A 
BRANCH   9  11
HETATM   11  C   UNL     1      44.029 -19.554   3.469  1.00  0.00    -0.008 A 
HETATM   12  C   UNL     1      44.641 -20.530   4.272  1.00  0.00     0.014 A 
HETATM   13  C   UNL     1      44.799 -21.843   3.814  1.00  0.00     0.001 A 
HETATM   14  C   UNL     1      44.343 -22.203   2.549  1.00  0.00     0.000 A 
HETATM   15  C   UNL     1      43.734 -21.250   1.739  1.00  0.00     0.001 A 
HETATM   16  C   UNL     1      43.579 -19.937   2.196  1.00  0.00     0.014 A 
ENDBRANCH   9  11
ENDBRANCH   2   5
BRANCH   1  17
HETATM   17  C   UNL     1      41.050 -13.111   4.588  1.00  0.00     0.035 A 
HETATM   18  C   UNL     1      39.847 -13.015   3.892  1.00  0.00     0.030 A 
HETATM   19  C   UNL     1      39.123 -11.819   3.896  1.00  0.00     0.018 A 
HETATM   20  C   UNL     1      39.588 -10.703   4.604  1.00  0.00     0.015 A 
HETATM   21  C   UNL     1      40.808 -10.779   5.302  1.00  0.00    -0.046 A 
HETATM   22  C   UNL     1      41.367  -9.618   6.079  1.00  0.00     0.049 C 
HETATM   23  C   UNL     1      41.531 -11.987   5.272  1.00  0.00     0.037 A 
BRANCH  20  24
HETATM   24  C   UNL     1      38.771  -9.456   4.595  1.00  0.00     0.156 C 
HETATM   25  C   UNL     1      38.989  -8.472   3.474  1.00  0.00     0.097 C 
HETATM   26  O   UNL     1      37.958  -9.236   5.490  1.00  0.00    -0.293 OA
ENDBRANCH  20  24
ENDBRANCH   1  17
TORSDOF 4
ENDMDL
MODEL 10
REMARK VINA RESULT:      -7.4      7.265     10.352
REMARK  4 active torsions:
REMARK  status: ('A' for Active; 'I' for Inactive)
REMARK    1  A    between atoms: C_3  and  C_4 
REMARK    2  A    between atoms: C_9  and  N_10 
REMARK       I    between atoms: N_10  and  C_11 
REMARK    3  A    between atoms: C_11  and  C_12 
REMARK    4  A    between atoms: C_16  and  C_17 
ROOT
HETATM    1  N   UNL     1      42.299 -16.463   1.767  1.00  0.00    -0.322 N 
HETATM    2  C   UNL     1      40.964 -16.214   1.514  1.00  0.00     0.276 C 
HETATM    3  O   UNL     1      40.004 -16.838   1.953  1.00  0.00    -0.266 OA
HETATM    4  H   UNL     1      42.923 -15.818   1.285  1.00  0.00     0.169 HD
ENDROOT
BRANCH   2   5
HETATM    5  C   UNL     1      40.791 -15.092   0.573  1.00  0.00     0.147 A 
HETATM    6  N   UNL     1      39.633 -14.409   0.478  1.00  0.00    -0.169 NA
HETATM    7  N   UNL     1      39.894 -13.461  -0.439  1.00  0.00    -0.277 N 
HETATM    8  H   UNL     1      39.144 -12.829  -0.691  1.00  0.00     0.189 HD
HETATM    9  C   UNL     1      41.183 -13.457  -0.911  1.00  0.00     0.063 A 
HETATM   10  C   UNL     1      41.771 -14.545  -0.291  1.00  0.00     0.071 A 
BRANCH   9  11
HETATM   11  C   UNL     1      41.722 -12.465  -1.849  1.00  0.00    -0.008 A 
HETATM   12  C   UNL     1      41.521 -12.570  -3.235  1.00  0.00     0.014 A 
HETATM   13  C   UNL     1      42.017 -11.597  -4.110  1.00  0.00     0.001 A 
HETATM   14  C   UNL     1      42.719 -10.502  -3.614  1.00  0.00     0.000 A 
HETATM   15  C   UNL     1      42.930 -10.381  -2.244  1.00  0.00     0.001 A 
HETATM   16  C   UNL     1      42.436 -11.355  -1.370  1.00  0.00     0.014 A 
ENDBRANCH   9  11
ENDBRANCH   2   5
BRANCH   1  17
HETATM   17  C   UNL     1      42.868 -17.525   2.486  1.00  0.00     0.035 A 
HETATM   18  C   UNL     1      42.997 -18.819   1.986  1.00  0.00     0.030 A 
HETATM   19  C   UNL     1      43.620 -19.812   2.748  1.00  0.00     0.018 A 
HETATM   20  C   UNL     1      44.131 -19.522   4.020  1.00  0.00     0.015 A 
HETATM   21  C   UNL     1      43.998 -18.224   4.546  1.00  0.00    -0.046 A 
HETATM   22  C   UNL     1      44.520 -17.846   5.905  1.00  0.00     0.049 C 
HETATM   23  C   UNL     1      43.353 -17.242   3.770  1.00  0.00     0.037 A 
BRANCH  20  24
HETATM   24  C   UNL     1      44.805 -20.609   4.787  1.00  0.00     0.156 C 
HETATM   25  C   UNL     1      44.070 -21.214   5.956  1.00  0.00     0.097 C 
HETATM   26  O   UNL     1      45.934 -20.982   4.479  1.00  0.00    -0.293 OA
ENDBRANCH  20  24
ENDBRANCH   1  17
TORSDOF 4
ENDMDL
