MODEL 1
REMARK VINA RESULT:      -8.4      0.000      0.000
REMARK  3 active torsions:
REMARK  status: ('A' for Active; 'I' for Inactive)
REMARK    1  A    between atoms: C_5  and  N_6 
REMARK       I    between atoms: N_6  and  C_7 
REMARK    2  A    between atoms: C_7  and  C_8 
REMARK    3  A    between atoms: C_11  and  N_12 
ROOT
HETATM    1  C   UNL     1      41.111 -14.222   5.842  1.00  0.00     0.001 A 
HETATM    2  C   UNL     1      40.428 -14.486   4.653  1.00  0.00     0.008 A 
HETATM    3  C   UNL     1      41.153 -14.966   3.576  1.00  0.00    -0.043 A 
HETATM    4  C   UNL     1      42.538 -15.181   3.674  1.00  0.00    -0.028 A 
HETATM    5  C   UNL     1      43.071 -15.839   2.416  1.00  0.00     0.125 C 
HETATM    6  C   UNL     1      41.998 -15.297   1.426  1.00  0.00     0.049 C 
HETATM    7  C   UNL     1      40.667 -15.270   2.198  1.00  0.00     0.053 C 
HETATM    8  C   UNL     1      41.624 -16.023   0.163  1.00  0.00     0.239 C 
HETATM    9  N   UNL     1      40.680 -17.087   0.620  1.00  0.00    -0.074 N 
HETATM   10  H   UNL     1      39.985 -17.330  -0.096  1.00  0.00     0.277 HD
HETATM   11  H   UNL     1      41.268 -17.934   0.745  1.00  0.00     0.277 HD
HETATM   12  C   UNL     1      40.075 -16.654   1.933  1.00  0.00     0.242 C 
HETATM   13  C   UNL     1      43.221 -14.918   4.852  1.00  0.00     0.010 A 
HETATM   14  C   UNL     1      42.496 -14.431   5.939  1.00  0.00     0.001 A 
ENDROOT
BRANCH   5  15
HETATM   15  N   UNL     1      43.184 -17.254   2.768  1.00  0.00    -0.348 N 
HETATM   16  C   UNL     1      43.701 -18.282   2.026  1.00  0.00     0.252 C 
HETATM   17  O   UNL     1      43.814 -18.243   0.809  1.00  0.00    -0.268 OA
HETATM   18  H   UNL     1      43.276 -17.389   3.772  1.00  0.00     0.163 HD
BRANCH  16  19
HETATM   19  C   UNL     1      44.053 -19.519   2.773  1.00  0.00     0.032 A 
HETATM   20  C   UNL     1      44.407 -19.484   4.127  1.00  0.00     0.019 A 
HETATM   21  C   UNL     1      44.738 -20.669   4.790  1.00  0.00     0.024 A 
HETATM   22  C   UNL     1      44.677 -21.900   4.131  1.00  0.00     0.005 A 
HETATM   23  C   UNL     1      44.361 -21.918   2.770  1.00  0.00     0.024 A 
HETATM   24  C   UNL     1      44.021 -20.741   2.096  1.00  0.00     0.019 A 
BRANCH  22  25
HETATM   25  N   UNL     1      45.146 -23.054   4.760  1.00  0.00    -0.303 NA
HETATM   26  H   UNL     1      45.478 -23.780   4.132  1.00  0.00     0.124 HD
HETATM   27  H   UNL     1      45.793 -22.889   5.526  1.00  0.00     0.124 HD
ENDBRANCH  22  25
ENDBRANCH  16  19
ENDBRANCH   5  15
TORSDOF 3
ENDMDL
MODEL 2
REMARK VINA RESULT:      -7.6      2.059      3.769
REMARK  3 active torsions:
REMARK  status: ('A' for Active; 'I' for Inactive)
REMARK    1  A    between atoms: C_5  and  N_6 
REMARK       I    between atoms: N_6  and  C_7 
REMARK    2  A    between atoms: C_7  and  C_8 
REMARK    3  A    between atoms: C_11  and  N_12 
ROOT
HETATM    1  C   UNL     1      39.942 -13.628   0.640  1.00  0.00     0.001 A 
HETATM    2  C   UNL     1      40.901 -13.073   1.491  1.00  0.00     0.008 A 
HETATM    3  C   UNL     1      41.180 -13.727   2.678  1.00  0.00    -0.043 A 
HETATM    4  C   UNL     1      40.517 -14.918   3.021  1.00  0.00    -0.028 A 
HETATM    5  C   UNL     1      41.097 -15.510   4.290  1.00  0.00     0.125 C 
HETATM    6  C   UNL     1      41.608 -14.183   4.926  1.00  0.00     0.049 C 
HETATM    7  C   UNL     1      42.113 -13.310   3.764  1.00  0.00     0.053 C 
HETATM    8  C   UNL     1      42.762 -14.140   5.889  1.00  0.00     0.239 C 
HETATM    9  N   UNL     1      43.970 -14.197   5.012  1.00  0.00    -0.074 N 
HETATM   10  H   UNL     1      44.774 -13.703   5.419  1.00  0.00     0.277 HD
HETATM   11  H   UNL     1      44.236 -15.200   4.984  1.00  0.00     0.277 HD
HETATM   12  C   UNL     1      43.584 -13.704   3.639  1.00  0.00     0.242 C 
HETATM   13  C   UNL     1      39.562 -15.473   2.181  1.00  0.00     0.010 A 
HETATM   14  C   UNL     1      39.275 -14.815   0.985  1.00  0.00     0.001 A 
ENDROOT
BRANCH   5  15
HETATM   15  N   UNL     1      41.997 -16.563   3.819  1.00  0.00    -0.348 N 
HETATM   16  C   UNL     1      42.714 -17.468   4.555  1.00  0.00     0.252 C 
HETATM   17  O   UNL     1      42.998 -17.305   5.734  1.00  0.00    -0.268 OA
HETATM   18  H   UNL     1      41.735 -16.903   2.898  1.00  0.00     0.163 HD
BRANCH  16  19
HETATM   19  C   UNL     1      43.219 -18.658   3.820  1.00  0.00     0.032 A 
HETATM   20  C   UNL     1      42.790 -18.956   2.522  1.00  0.00     0.019 A 
HETATM   21  C   UNL     1      43.285 -20.090   1.869  1.00  0.00     0.024 A 
HETATM   22  C   UNL     1      44.239 -20.909   2.478  1.00  0.00     0.005 A 
HETATM   23  C   UNL     1      44.629 -20.623   3.790  1.00  0.00     0.024 A 
HETATM   24  C   UNL     1      44.148 -19.490   4.452  1.00  0.00     0.019 A 
BRANCH  22  25
HETATM   25  N   UNL     1      44.616 -22.110   1.877  1.00  0.00    -0.303 NA
HETATM   26  H   UNL     1      43.855 -22.763   1.710  1.00  0.00     0.124 HD
HETATM   27  H   UNL     1      45.217 -22.010   1.065  1.00  0.00     0.124 HD
ENDBRANCH  22  25
ENDBRANCH  16  19
ENDBRANCH   5  15
TORSDOF 3
ENDMDL
MODEL 3
REMARK VINA RESULT:      -7.5      2.936      7.040
REMARK  3 active torsions:
REMARK  status: ('A' for Active; 'I' for Inactive)
REMARK    1  A    between atoms: C_5  and  N_6 
REMARK       I    between atoms: N_6  and  C_7 
REMARK    2  A    between atoms: C_7  and  C_8 
REMARK    3  A    between atoms: C_11  and  N_12 
ROOT
HETATM    1  C   UNL     1      43.620 -19.181   1.586  1.00  0.00     0.001 A 
HETATM    2  C   UNL     1      43.218 -19.313   2.917  1.00  0.00     0.008 A 
HETATM    3  C   UNL     1      43.104 -18.166   3.682  1.00  0.00    -0.043 A 
HETATM    4  C   UNL     1      43.384 -16.902   3.138  1.00  0.00    -0.028 A 
HETATM    5  C   UNL     1      43.048 -15.802   4.127  1.00  0.00     0.125 C 
HETATM    6  C   UNL     1      43.247 -16.630   5.433  1.00  0.00     0.049 C 
HETATM    7  C   UNL     1      42.748 -18.052   5.127  1.00  0.00     0.053 C 
HETATM    8  C   UNL     1      42.529 -16.302   6.712  1.00  0.00     0.239 C 
HETATM    9  N   UNL     1      41.170 -16.897   6.530  1.00  0.00    -0.074 N 
HETATM   10  H   UNL     1      40.751 -17.197   7.418  1.00  0.00     0.277 HD
HETATM   11  H   UNL     1      40.579 -16.117   6.184  1.00  0.00     0.277 HD
HETATM   12  C   UNL     1      41.267 -17.996   5.501  1.00  0.00     0.242 C 
HETATM   13  C   UNL     1      43.786 -16.765   1.817  1.00  0.00     0.010 A 
HETATM   14  C   UNL     1      43.906 -17.918   1.042  1.00  0.00     0.001 A 
ENDROOT
BRANCH   5  15
HETATM   15  N   UNL     1      41.742 -15.309   3.690  1.00  0.00    -0.348 N 
HETATM   16  C   UNL     1      41.167 -14.090   3.925  1.00  0.00     0.252 C 
HETATM   17  O   UNL     1      41.498 -13.353   4.843  1.00  0.00    -0.268 OA
HETATM   18  H   UNL     1      41.447 -15.739   2.818  1.00  0.00     0.163 HD
BRANCH  16  19
HETATM   19  C   UNL     1      40.030 -13.720   3.040  1.00  0.00     0.032 A 
HETATM   20  C   UNL     1      39.487 -12.430   3.043  1.00  0.00     0.019 A 
HETATM   21  C   UNL     1      38.413 -12.126   2.200  1.00  0.00     0.024 A 
HETATM   22  C   UNL     1      37.901 -13.081   1.318  1.00  0.00     0.005 A 
HETATM   23  C   UNL     1      38.426 -14.376   1.353  1.00  0.00     0.024 A 
HETATM   24  C   UNL     1      39.503 -14.692   2.185  1.00  0.00     0.019 A 
BRANCH  22  25
HETATM   25  N   UNL     1      36.743 -12.810   0.588  1.00  0.00    -0.303 NA
HETATM   26  H   UNL     1      36.377 -11.868   0.699  1.00  0.00     0.124 HD
HETATM   27  H   UNL     1      36.777 -13.092  -0.386  1.00  0.00     0.124 HD
ENDBRANCH  22  25
ENDBRANCH  16  19
ENDBRANCH   5  15
TORSDOF 3
ENDMDL
MODEL 4
REMARK VINA RESULT:      -7.5      2.494      6.113
REMARK  3 active torsions:
REMARK  status: ('A' for Active; 'I' for Inactive)
REMARK    1  A    between atoms: C_5  and  N_6 
REMARK       I    between atoms: N_6  and  C_7 
REMARK    2  A    between atoms: C_7  and  C_8 
REMARK    3  A    between atoms: C_11  and  N_12 
ROOT
HETATM    1  C   UNL     1      45.264 -20.902   4.332  1.00  0.00     0.001 A 
HETATM    2  C   UNL     1      45.069 -20.273   3.100  1.00  0.00     0.008 A 
HETATM    3  C   UNL     1      44.019 -19.380   2.980  1.00  0.00    -0.043 A 
HETATM    4  C   UNL     1      43.170 -19.112   4.067  1.00  0.00    -0.028 A 
HETATM    5  C   UNL     1      42.195 -18.001   3.727  1.00  0.00     0.125 C 
HETATM    6  C   UNL     1      42.155 -18.223   2.186  1.00  0.00     0.049 C 
HETATM    7  C   UNL     1      43.578 -18.631   1.767  1.00  0.00     0.053 C 
HETATM    8  C   UNL     1      41.838 -17.116   1.219  1.00  0.00     0.239 C 
HETATM    9  N   UNL     1      43.124 -16.367   1.088  1.00  0.00    -0.074 N 
HETATM   10  H   UNL     1      43.233 -15.933   0.164  1.00  0.00     0.277 HD
HETATM   11  H   UNL     1      43.050 -15.583   1.765  1.00  0.00     0.277 HD
HETATM   12  C   UNL     1      44.254 -17.295   1.462  1.00  0.00     0.242 C 
HETATM   13  C   UNL     1      43.357 -19.735   5.292  1.00  0.00     0.010 A 
HETATM   14  C   UNL     1      44.412 -20.639   5.417  1.00  0.00     0.001 A 
ENDROOT
BRANCH   5  15
HETATM   15  N   UNL     1      42.776 -16.808   4.343  1.00  0.00    -0.348 N 
HETATM   16  C   UNL     1      42.145 -15.670   4.767  1.00  0.00     0.252 C 
HETATM   17  O   UNL     1      41.044 -15.320   4.363  1.00  0.00    -0.268 OA
HETATM   18  H   UNL     1      43.621 -17.025   4.866  1.00  0.00     0.163 HD
BRANCH  16  19
HETATM   19  C   UNL     1      42.909 -14.806   5.705  1.00  0.00     0.032 A 
HETATM   20  C   UNL     1      42.561 -13.467   5.920  1.00  0.00     0.019 A 
HETATM   21  C   UNL     1      43.311 -12.687   6.805  1.00  0.00     0.024 A 
HETATM   22  C   UNL     1      44.381 -13.237   7.516  1.00  0.00     0.005 A 
HETATM   23  C   UNL     1      44.743 -14.563   7.263  1.00  0.00     0.024 A 
HETATM   24  C   UNL     1      43.998 -15.356   6.386  1.00  0.00     0.019 A 
BRANCH  22  25
HETATM   25  N   UNL     1      45.207 -12.415   8.284  1.00  0.00    -0.303 NA
HETATM   26  H   UNL     1      44.749 -11.602   8.685  1.00  0.00     0.124 HD
HETATM   27  H   UNL     1      45.778 -12.905   8.966  1.00  0.00     0.124 HD
ENDBRANCH  22  25
ENDBRANCH  16  19
ENDBRANCH   5  15
TORSDOF 3
ENDMDL
MODEL 5
REMARK VINA RESULT:      -7.5      3.086      6.672
REMARK  3 active torsions:
REMARK  status: ('A' for Active; 'I' for Inactive)
REMARK    1  A    between atoms: C_5  and  N_6 
REMARK       I    between atoms: N_6  and  C_7 
REMARK    2  A    between atoms: C_7  and  C_8 
REMARK    3  A    between atoms: C_11  and  N_12 
ROOT
HETATM    1  C   UNL     1      43.220 -19.102   2.910  1.00  0.00     0.001 A 
HETATM    2  C   UNL     1      42.546 -18.162   3.693  1.00  0.00     0.008 A 
HETATM    3  C   UNL     1      42.532 -16.846   3.267  1.00  0.00    -0.043 A 
HETATM    4  C   UNL     1      43.178 -16.463   2.079  1.00  0.00    -0.028 A 
HETATM    5  C   UNL     1      42.897 -15.007   1.759  1.00  0.00     0.125 C 
HETATM    6  C   UNL     1      42.654 -14.516   3.218  1.00  0.00     0.049 C 
HETATM    7  C   UNL     1      41.932 -15.662   3.948  1.00  0.00     0.053 C 
HETATM    8  C   UNL     1      41.785 -13.331   3.536  1.00  0.00     0.239 C 
HETATM    9  N   UNL     1      40.394 -13.872   3.476  1.00  0.00    -0.074 N 
HETATM   10  H   UNL     1      39.754 -13.381   4.112  1.00  0.00     0.277 HD
HETATM   11  H   UNL     1      40.063 -13.657   2.515  1.00  0.00     0.277 HD
HETATM   12  C   UNL     1      40.454 -15.363   3.702  1.00  0.00     0.242 C 
HETATM   13  C   UNL     1      43.850 -17.392   1.299  1.00  0.00     0.010 A 
HETATM   14  C   UNL     1      43.871 -18.719   1.726  1.00  0.00     0.001 A 
ENDROOT
BRANCH   5  15
HETATM   15  N   UNL     1      41.839 -15.056   0.751  1.00  0.00    -0.348 N 
HETATM   16  C   UNL     1      41.404 -14.060  -0.082  1.00  0.00     0.252 C 
HETATM   17  O   UNL     1      41.584 -12.871   0.139  1.00  0.00    -0.268 OA
HETATM   18  H   UNL     1      41.725 -15.990   0.364  1.00  0.00     0.163 HD
BRANCH  16  19
HETATM   19  C   UNL     1      40.608 -14.492  -1.261  1.00  0.00     0.032 A 
HETATM   20  C   UNL     1      39.389 -13.886  -1.587  1.00  0.00     0.019 A 
HETATM   21  C   UNL     1      38.669 -14.327  -2.701  1.00  0.00     0.024 A 
HETATM   22  C   UNL     1      39.170 -15.338  -3.525  1.00  0.00     0.005 A 
HETATM   23  C   UNL     1      40.368 -15.963  -3.167  1.00  0.00     0.024 A 
HETATM   24  C   UNL     1      41.102 -15.527  -2.059  1.00  0.00     0.019 A 
BRANCH  22  25
HETATM   25  N   UNL     1      38.378 -15.866  -4.545  1.00  0.00    -0.303 NA
HETATM   26  H   UNL     1      38.153 -15.216  -5.293  1.00  0.00     0.124 HD
HETATM   27  H   UNL     1      38.688 -16.764  -4.903  1.00  0.00     0.124 HD
ENDBRANCH  22  25
ENDBRANCH  16  19
ENDBRANCH   5  15
TORSDOF 3
ENDMDL
MODEL 6
REMARK VINA RESULT:      -7.0      2.699      5.937
REMARK  3 active torsions:
REMARK  status: ('A' for Active; 'I' for Inactive)
REMARK    1  A    between atoms: C_5  and  N_6 
REMARK       I    between atoms: N_6  and  C_7 
REMARK    2  A    between atoms: C_7  and  C_8 
REMARK    3  A    between atoms: C_11  and  N_12 
ROOT
HETATM    1  C   UNL     1      44.316 -19.455   2.057  1.00  0.00     0.001 A 
HETATM    2  C   UNL     1      43.625 -18.538   1.262  1.00  0.00     0.008 A 
HETATM    3  C   UNL     1      42.598 -17.813   1.842  1.00  0.00    -0.043 A 
HETATM    4  C   UNL     1      42.258 -17.995   3.193  1.00  0.00    -0.028 A 
HETATM    5  C   UNL     1      41.206 -16.990   3.623  1.00  0.00     0.125 C 
HETATM    6  C   UNL     1      40.549 -16.767   2.228  1.00  0.00     0.049 C 
HETATM    7  C   UNL     1      41.688 -16.824   1.195  1.00  0.00     0.053 C 
HETATM    8  C   UNL     1      39.844 -15.490   1.863  1.00  0.00     0.239 C 
HETATM    9  N   UNL     1      40.950 -14.553   1.502  1.00  0.00    -0.074 N 
HETATM   10  H   UNL     1      40.666 -13.863   0.797  1.00  0.00     0.277 HD
HETATM   11  H   UNL     1      41.141 -14.015   2.369  1.00  0.00     0.277 HD
HETATM   12  C   UNL     1      42.154 -15.371   1.102  1.00  0.00     0.242 C 
HETATM   13  C   UNL     1      42.939 -18.906   3.986  1.00  0.00     0.010 A 
HETATM   14  C   UNL     1      43.972 -19.642   3.406  1.00  0.00     0.001 A 
ENDROOT
BRANCH   5  15
HETATM   15  N   UNL     1      41.963 -15.950   4.320  1.00  0.00    -0.348 N 
HETATM   16  C   UNL     1      41.526 -15.067   5.270  1.00  0.00     0.252 C 
HETATM   17  O   UNL     1      40.351 -14.765   5.421  1.00  0.00    -0.268 OA
HETATM   18  H   UNL     1      42.947 -16.191   4.407  1.00  0.00     0.163 HD
BRANCH  16  19
HETATM   19  C   UNL     1      42.581 -14.404   6.083  1.00  0.00     0.032 A 
HETATM   20  C   UNL     1      42.504 -13.048   6.421  1.00  0.00     0.019 A 
HETATM   21  C   UNL     1      43.521 -12.462   7.181  1.00  0.00     0.024 A 
HETATM   22  C   UNL     1      44.595 -13.224   7.650  1.00  0.00     0.005 A 
HETATM   23  C   UNL     1      44.680 -14.567   7.273  1.00  0.00     0.024 A 
HETATM   24  C   UNL     1      43.667 -15.167   6.519  1.00  0.00     0.019 A 
BRANCH  22  25
HETATM   25  N   UNL     1      45.670 -12.600   8.284  1.00  0.00    -0.303 NA
HETATM   26  H   UNL     1      45.700 -11.590   8.183  1.00  0.00     0.124 HD
HETATM   27  H   UNL     1      45.827 -12.892   9.244  1.00  0.00     0.124 HD
ENDBRANCH  22  25
ENDBRANCH  16  19
ENDBRANCH   5  15
TORSDOF 3
ENDMDL
MODEL 7
REMARK VINA RESULT:      -6.9      3.155      6.726
REMARK  3 active torsions:
REMARK  status: ('A' for Active; 'I' for Inactive)
REMARK    1  A    between atoms: C_5  and  N_6 
REMARK       I    between atoms: N_6  and  C_7 
REMARK    2  A    between atoms: C_7  and  C_8 
REMARK    3  A    between atoms: C_11  and  N_12 
ROOT
HETATM    1  C   UNL     1      44.363 -17.791   6.972  1.00  0.00     0.001 A 
HETATM    2  C   UNL     1      44.635 -17.791   5.602  1.00  0.00     0.008 A 
HETATM    3  C   UNL     1      43.568 -17.718   4.723  1.00  0.00    -0.043 A 
HETATM    4  C   UNL     1      42.246 -17.647   5.195  1.00  0.00    -0.028 A 
HETATM    5  C   UNL     1      41.277 -17.432   4.048  1.00  0.00     0.125 C 
HETATM    6  C   UNL     1      42.128 -18.100   2.928  1.00  0.00     0.049 C 
HETATM    7  C   UNL     1      43.596 -17.756   3.232  1.00  0.00     0.053 C 
HETATM    8  C   UNL     1      41.999 -17.716   1.480  1.00  0.00     0.239 C 
HETATM    9  N   UNL     1      42.807 -16.465   1.361  1.00  0.00    -0.074 N 
HETATM   10  H   UNL     1      43.222 -16.352   0.428  1.00  0.00     0.277 HD
HETATM   11  H   UNL     1      42.122 -15.691   1.463  1.00  0.00     0.277 HD
HETATM   12  C   UNL     1      43.815 -16.442   2.484  1.00  0.00     0.242 C 
HETATM   13  C   UNL     1      41.971 -17.649   6.554  1.00  0.00     0.010 A 
HETATM   14  C   UNL     1      43.042 -17.726   7.444  1.00  0.00     0.001 A 
ENDROOT
BRANCH   5  15
HETATM   15  N   UNL     1      40.991 -15.997   4.081  1.00  0.00    -0.348 N 
HETATM   16  C   UNL     1      40.127 -15.280   3.299  1.00  0.00     0.252 C 
HETATM   17  O   UNL     1      39.728 -15.663   2.209  1.00  0.00    -0.268 OA
HETATM   18  H   UNL     1      41.124 -15.605   5.009  1.00  0.00     0.163 HD
BRANCH  16  19
HETATM   19  C   UNL     1      39.743 -13.936   3.808  1.00  0.00     0.032 A 
HETATM   20  C   UNL     1      39.717 -13.649   5.178  1.00  0.00     0.019 A 
HETATM   21  C   UNL     1      39.343 -12.374   5.614  1.00  0.00     0.024 A 
HETATM   22  C   UNL     1      39.038 -11.363   4.699  1.00  0.00     0.005 A 
HETATM   23  C   UNL     1      39.030 -11.673   3.335  1.00  0.00     0.024 A 
HETATM   24  C   UNL     1      39.408 -12.942   2.885  1.00  0.00     0.019 A 
BRANCH  22  25
HETATM   25  N   UNL     1      38.531 -10.144   5.146  1.00  0.00    -0.303 NA
HETATM   26  H   UNL     1      37.533 -10.139   5.338  1.00  0.00     0.124 HD
HETATM   27  H   UNL     1      39.063  -9.709   5.894  1.00  0.00     0.124 HD
ENDBRANCH  22  25
ENDBRANCH  16  19
ENDBRANCH   5  15
TORSDOF 3
ENDMDL
MODEL 8
REMARK VINA RESULT:      -6.9      1.845      2.246
REMARK  3 active torsions:
REMARK  status: ('A' for Active; 'I' for Inactive)
REMARK    1  A    between atoms: C_5  and  N_6 
REMARK       I    between atoms: N_6  and  C_7 
REMARK    2  A    between atoms: C_7  and  C_8 
REMARK    3  A    between atoms: C_11  and  N_12 
ROOT
HETATM    1  C   UNL     1      40.103 -12.071   5.545  1.00  0.00     0.001 A 
HETATM    2  C   UNL     1      39.410 -12.488   4.406  1.00  0.00     0.008 A 
HETATM    3  C   UNL     1      40.140 -13.009   3.351  1.00  0.00    -0.043 A 
HETATM    4  C   UNL     1      41.539 -13.115   3.422  1.00  0.00    -0.028 A 
HETATM    5  C   UNL     1      42.085 -13.843   2.208  1.00  0.00     0.125 C 
HETATM    6  C   UNL     1      40.948 -13.469   1.211  1.00  0.00     0.049 C 
HETATM    7  C   UNL     1      39.640 -13.467   2.022  1.00  0.00     0.053 C 
HETATM    8  C   UNL     1      40.595 -14.329   0.030  1.00  0.00     0.239 C 
HETATM    9  N   UNL     1      39.745 -15.412   0.608  1.00  0.00    -0.074 N 
HETATM   10  H   UNL     1      39.050 -15.766  -0.061  1.00  0.00     0.277 HD
HETATM   11  H   UNL     1      40.397 -16.200   0.787  1.00  0.00     0.277 HD
HETATM   12  C   UNL     1      39.145 -14.908   1.898  1.00  0.00     0.242 C 
HETATM   13  C   UNL     1      42.232 -12.701   4.550  1.00  0.00     0.010 A 
HETATM   14  C   UNL     1      41.502 -12.172   5.614  1.00  0.00     0.001 A 
ENDROOT
BRANCH   5  15
HETATM   15  N   UNL     1      42.311 -15.210   2.678  1.00  0.00    -0.348 N 
HETATM   16  C   UNL     1      42.843 -16.272   1.997  1.00  0.00     0.252 C 
HETATM   17  O   UNL     1      42.874 -16.342   0.777  1.00  0.00    -0.268 OA
HETATM   18  H   UNL     1      42.477 -15.244   3.681  1.00  0.00     0.163 HD
BRANCH  16  19
HETATM   19  C   UNL     1      43.321 -17.410   2.826  1.00  0.00     0.032 A 
HETATM   20  C   UNL     1      43.327 -17.349   4.224  1.00  0.00     0.019 A 
HETATM   21  C   UNL     1      43.792 -18.440   4.966  1.00  0.00     0.024 A 
HETATM   22  C   UNL     1      44.211 -19.612   4.331  1.00  0.00     0.005 A 
HETATM   23  C   UNL     1      44.239 -19.646   2.934  1.00  0.00     0.024 A 
HETATM   24  C   UNL     1      43.770 -18.565   2.181  1.00  0.00     0.019 A 
BRANCH  22  25
HETATM   25  N   UNL     1      44.805 -20.634   5.072  1.00  0.00    -0.303 NA
HETATM   26  H   UNL     1      44.422 -21.561   4.908  1.00  0.00     0.124 HD
HETATM   27  H   UNL     1      45.821 -20.635   5.058  1.00  0.00     0.124 HD
ENDBRANCH  22  25
ENDBRANCH  16  19
ENDBRANCH   5  15
TORSDOF 3
ENDMDL
MODEL 9
REMARK VINA RESULT:      -6.8      5.574      8.649
REMARK  3 active torsions:
REMARK  status: ('A' for Active; 'I' for Inactive)
REMARK    1  A    between atoms: C_5  and  N_6 
REMARK       I    between atoms: N_6  and  C_7 
REMARK    2  A    between atoms: C_7  and  C_8 
REMARK    3  A    between atoms: C_11  and  N_12 
ROOT
HETATM    1  C   UNL     1      44.825 -12.287  11.470  1.00  0.00     0.001 A 
HETATM    2  C   UNL     1      43.563 -11.835  11.863  1.00  0.00     0.008 A 
HETATM    3  C   UNL     1      42.798 -11.146  10.938  1.00  0.00    -0.043 A 
HETATM    4  C   UNL     1      43.276 -10.906   9.639  1.00  0.00    -0.028 A 
HETATM    5  C   UNL     1      42.204 -10.263   8.781  1.00  0.00     0.125 C 
HETATM    6  C   UNL     1      41.409  -9.567   9.926  1.00  0.00     0.049 C 
HETATM    7  C   UNL     1      41.456 -10.522  11.132  1.00  0.00     0.053 C 
HETATM    8  C   UNL     1      39.942  -9.256   9.818  1.00  0.00     0.239 C 
HETATM    9  N   UNL     1      39.270 -10.554  10.126  1.00  0.00    -0.074 N 
HETATM   10  H   UNL     1      38.351 -10.426  10.567  1.00  0.00     0.277 HD
HETATM   11  H   UNL     1      39.085 -10.988   9.201  1.00  0.00     0.277 HD
HETATM   12  C   UNL     1      40.221 -11.400  10.937  1.00  0.00     0.242 C 
HETATM   13  C   UNL     1      44.530 -11.351   9.244  1.00  0.00     0.010 A 
HETATM   14  C   UNL     1      45.306 -12.043  10.174  1.00  0.00     0.001 A 
ENDROOT
BRANCH   5  15
HETATM   15  N   UNL     1      41.659 -11.370   7.995  1.00  0.00    -0.348 N 
HETATM   16  C   UNL     1      41.352 -11.402   6.661  1.00  0.00     0.252 C 
HETATM   17  O   UNL     1      41.142 -10.398   5.994  1.00  0.00    -0.268 OA
HETATM   18  H   UNL     1      41.930 -12.274   8.373  1.00  0.00     0.163 HD
BRANCH  16  19
HETATM   19  C   UNL     1      41.199 -12.751   6.055  1.00  0.00     0.032 A 
HETATM   20  C   UNL     1      39.947 -13.247   5.674  1.00  0.00     0.019 A 
HETATM   21  C   UNL     1      39.846 -14.524   5.114  1.00  0.00     0.024 A 
HETATM   22  C   UNL     1      40.986 -15.300   4.886  1.00  0.00     0.005 A 
HETATM   23  C   UNL     1      42.226 -14.810   5.308  1.00  0.00     0.024 A 
HETATM   24  C   UNL     1      42.341 -13.532   5.863  1.00  0.00     0.019 A 
BRANCH  22  25
HETATM   25  N   UNL     1      40.859 -16.623   4.462  1.00  0.00    -0.303 NA
HETATM   26  H   UNL     1      40.125 -17.152   4.923  1.00  0.00     0.124 HD
HETATM   27  H   UNL     1      40.842 -16.747   3.455  1.00  0.00     0.124 HD
ENDBRANCH  22  25
ENDBRANCH  16  19
ENDBRANCH   5  15
TORSDOF 3
ENDMDL
MODEL 10
REMARK VINA RESULT:      -6.7      2.444      4.246
REMARK  3 active torsions:
REMARK  status: ('A' for Active; 'I' for Inactive)
REMARK    1  A    between atoms: C_5  and  N_6 
REMARK       I    between atoms: N_6  and  C_7 
REMARK    2  A    between atoms: C_7  and  C_8 
REMARK    3  A    between atoms: C_11  and  N_12 
ROOT
HETATM    1  C   UNL     1      41.984 -12.614  -0.011  1.00  0.00     0.001 A 
HETATM    2  C   UNL     1      42.082 -12.170   1.310  1.00  0.00     0.008 A 
HETATM    3  C   UNL     1      41.321 -12.810   2.272  1.00  0.00    -0.043 A 
HETATM    4  C   UNL     1      40.471 -13.876   1.932  1.00  0.00    -0.028 A 
HETATM    5  C   UNL     1      39.860 -14.495   3.174  1.00  0.00     0.125 C 
HETATM    6  C   UNL     1      39.912 -13.231   4.084  1.00  0.00     0.049 C 
HETATM    7  C   UNL     1      41.212 -12.490   3.726  1.00  0.00     0.053 C 
HETATM    8  C   UNL     1      39.993 -13.319   5.583  1.00  0.00     0.239 C 
HETATM    9  N   UNL     1      41.437 -13.588   5.856  1.00  0.00    -0.074 N 
HETATM   10  H   UNL     1      41.746 -13.201   6.755  1.00  0.00     0.277 HD
HETATM   11  H   UNL     1      41.506 -14.620   5.949  1.00  0.00     0.277 HD
HETATM   12  C   UNL     1      42.242 -13.100   4.675  1.00  0.00     0.242 C 
HETATM   13  C   UNL     1      40.368 -14.319   0.621  1.00  0.00     0.010 A 
HETATM   14  C   UNL     1      41.131 -13.675  -0.353  1.00  0.00     0.001 A 
ENDROOT
BRANCH   5  15
HETATM   15  N   UNL     1      40.672 -15.686   3.421  1.00  0.00    -0.348 N 
HETATM   16  C   UNL     1      40.691 -16.867   2.729  1.00  0.00     0.252 C 
HETATM   17  O   UNL     1      39.771 -17.246   2.018  1.00  0.00    -0.268 OA
HETATM   18  H   UNL     1      41.560 -15.456   3.860  1.00  0.00     0.163 HD
BRANCH  16  19
HETATM   19  C   UNL     1      41.878 -17.736   2.947  1.00  0.00     0.032 A 
HETATM   20  C   UNL     1      42.603 -18.271   1.876  1.00  0.00     0.019 A 
HETATM   21  C   UNL     1      43.708 -19.090   2.124  1.00  0.00     0.024 A 
HETATM   22  C   UNL     1      44.130 -19.348   3.431  1.00  0.00     0.005 A 
HETATM   23  C   UNL     1      43.374 -18.841   4.493  1.00  0.00     0.024 A 
HETATM   24  C   UNL     1      42.271 -18.015   4.258  1.00  0.00     0.019 A 
BRANCH  22  25
HETATM   25  N   UNL     1      45.142 -20.278   3.669  1.00  0.00    -0.303 NA
HETATM   26  H   UNL     1      45.986 -20.144   3.120  1.00  0.00     0.124 HD
HETATM   27  H   UNL     1      45.349 -20.441   4.650  1.00  0.00     0.124 HD
ENDBRANCH  22  25
ENDBRANCH  16  19
ENDBRANCH   5  15
TORSDOF 3
ENDMDL
