MODEL 1
REMARK VINA RESULT:      -8.4      0.000      0.000
REMARK  8 active torsions:
REMARK  status: ('A' for Active; 'I' for Inactive)
REMARK    1  A    between atoms: C_2  and  N_3 
REMARK       I    between atoms: N_3  and  C_4 
REMARK       I    between atoms: C_4  and  N_5 
REMARK       I    between atoms: N_5  and  C_6 
REMARK    2  A    between atoms: C_6  and  C_7 
REMARK    3  A    between atoms: C_7  and  S_8 
REMARK    4  A    between atoms: C_7  and  C_29 
REMARK    5  A    between atoms: S_8  and  C_9 
REMARK    6  A    between atoms: N_10  and  C_11 
REMARK    7  A    between atoms: C_18  and  C_19 
REMARK    8  A    between atoms: C_19  and  N_20 
ROOT
HETATM    1  C   UNL     1      41.734 -16.288   5.810  1.00  0.00     0.197 A 
HETATM    2  N   UNL     1      42.435 -16.891   4.780  1.00  0.00    -0.274 N 
HETATM    3  C   UNL     1      43.445 -17.587   5.435  1.00  0.00     0.161 A 
HETATM    4  N   UNL     1      43.320 -17.432   6.740  1.00  0.00    -0.132 NA
HETATM    5  N   UNL     1      42.244 -16.636   6.969  1.00  0.00    -0.122 NA
ENDROOT
BRANCH   1   6
HETATM    6  S   UNL     1      40.236 -15.435   5.658  1.00  0.00    -0.070 SA
BRANCH   6   7
HETATM    7  C   UNL     1      40.769 -13.735   5.218  1.00  0.00     0.180 C 
BRANCH   7   8
HETATM    8  C   UNL     1      41.944 -13.200   6.054  1.00  0.00     0.244 C 
HETATM    9  N   UNL     1      43.170 -13.814   5.887  1.00  0.00    -0.278 N 
HETATM   10  C   UNL     1      44.216 -13.845   6.770  1.00  0.00     0.322 C 
HETATM   11  H   UNL     1      43.235 -14.580   5.229  1.00  0.00     0.173 HD
HETATM   12  N   UNL     1      44.220 -12.885   7.731  1.00  0.00    -0.343 N 
HETATM   13  O   UNL     1      45.056 -14.737   6.678  1.00  0.00    -0.247 OA
HETATM   14  H   UNL     1      43.485 -12.182   7.696  1.00  0.00     0.164 HD
HETATM   15  O   UNL     1      41.807 -12.194   6.756  1.00  0.00    -0.271 OA
BRANCH  12  16
HETATM   16  C   UNL     1      45.222 -12.807   8.772  1.00  0.00     0.120 C 
HETATM   17  C   UNL     1      45.326 -11.416   9.369  1.00  0.00     0.026 C 
ENDBRANCH  12  16
ENDBRANCH   7   8
BRANCH   7  18
HETATM   18  C   UNL     1      40.877 -13.519   3.716  1.00  0.00    -0.035 A 
HETATM   19  C   UNL     1      41.992 -12.832   3.200  1.00  0.00     0.009 A 
HETATM   20  C   UNL     1      42.112 -12.582   1.833  1.00  0.00     0.001 A 
HETATM   21  C   UNL     1      41.121 -13.017   0.958  1.00  0.00     0.000 A 
HETATM   22  C   UNL     1      40.012 -13.701   1.449  1.00  0.00     0.001 A 
HETATM   23  C   UNL     1      39.888 -13.950   2.818  1.00  0.00     0.009 A 
ENDBRANCH   7  18
ENDBRANCH   6   7
ENDBRANCH   1   6
BRANCH   2  24
HETATM   24  C   UNL     1      42.213 -16.816   3.384  1.00  0.00     0.043 A 
HETATM   25  C   UNL     1      43.133 -16.152   2.561  1.00  0.00     0.033 A 
HETATM   26  C   UNL     1      42.912 -16.088   1.183  1.00  0.00     0.044 A 
HETATM   27  C   UNL     1      41.777 -16.677   0.639  1.00  0.00     0.116 A 
HETATM   28  F   UNL     1      41.567 -16.613  -0.681  1.00  0.00    -0.206 F 
HETATM   29  C   UNL     1      40.852 -17.328   1.447  1.00  0.00     0.044 A 
HETATM   30  C   UNL     1      41.065 -17.400   2.825  1.00  0.00     0.033 A 
ENDBRANCH   2  24
BRANCH   3  31
HETATM   31  C   UNL     1      44.615 -18.263   4.816  1.00  0.00     0.315 C 
BRANCH  31  32
HETATM   32  N   UNL     1      44.202 -19.586   4.174  1.00  0.00    -0.064 N 
HETATM   33  H   UNL     1      43.213 -19.707   4.456  1.00  0.00     0.280 HD
HETATM   34  C   UNL     1      44.203 -19.512   2.663  1.00  0.00     0.235 C 
HETATM   35  C   UNL     1      43.638 -20.801   2.087  1.00  0.00     0.028 C 
HETATM   36  C   UNL     1      44.394 -22.021   2.597  1.00  0.00     0.003 C 
HETATM   37  C   UNL     1      44.424 -22.049   4.122  1.00  0.00     0.028 C 
HETATM   38  C   UNL     1      44.983 -20.757   4.700  1.00  0.00     0.235 C 
ENDBRANCH  31  32
ENDBRANCH   3  31
TORSDOF 8
ENDMDL
MODEL 2
REMARK VINA RESULT:      -8.2      3.840      8.234
REMARK  8 active torsions:
REMARK  status: ('A' for Active; 'I' for Inactive)
REMARK    1  A    between atoms: C_2  and  N_3 
REMARK       I    between atoms: N_3  and  C_4 
REMARK       I    between atoms: C_4  and  N_5 
REMARK       I    between atoms: N_5  and  C_6 
REMARK    2  A    between atoms: C_6  and  C_7 
REMARK    3  A    between atoms: C_7  and  S_8 
REMARK    4  A    between atoms: C_7  and  C_29 
REMARK    5  A    between atoms: S_8  and  C_9 
REMARK    6  A    between atoms: N_10  and  C_11 
REMARK    7  A    between atoms: C_18  and  C_19 
REMARK    8  A    between atoms: C_19  and  N_20 
ROOT
HETATM    1  C   UNL     1      41.966 -13.959   3.673  1.00  0.00     0.197 A 
HETATM    2  N   UNL     1      41.578 -14.255   4.968  1.00  0.00    -0.274 N 
HETATM    3  C   UNL     1      40.503 -13.402   5.190  1.00  0.00     0.161 A 
HETATM    4  N   UNL     1      40.262 -12.693   4.104  1.00  0.00    -0.132 NA
HETATM    5  N   UNL     1      41.166 -13.054   3.156  1.00  0.00    -0.122 NA
ENDROOT
BRANCH   1   6
HETATM    6  S   UNL     1      43.137 -14.824   2.738  1.00  0.00    -0.070 SA
BRANCH   6   7
HETATM    7  C   UNL     1      42.233 -16.341   2.241  1.00  0.00     0.180 C 
BRANCH   7   8
HETATM    8  C   UNL     1      41.635 -16.290   0.825  1.00  0.00     0.244 C 
HETATM    9  N   UNL     1      42.099 -15.303  -0.023  1.00  0.00    -0.278 N 
HETATM   10  C   UNL     1      41.463 -14.770  -1.112  1.00  0.00     0.322 C 
HETATM   11  H   UNL     1      42.803 -14.666   0.326  1.00  0.00     0.173 HD
HETATM   12  N   UNL     1      40.465 -15.518  -1.652  1.00  0.00    -0.343 N 
HETATM   13  O   UNL     1      41.790 -13.657  -1.516  1.00  0.00    -0.247 OA
HETATM   14  H   UNL     1      40.297 -16.438  -1.248  1.00  0.00     0.164 HD
HETATM   15  O   UNL     1      40.856 -17.167   0.441  1.00  0.00    -0.271 OA
BRANCH  12  16
HETATM   16  C   UNL     1      39.660 -15.080  -2.770  1.00  0.00     0.120 C 
HETATM   17  C   UNL     1      39.465 -16.174  -3.804  1.00  0.00     0.026 C 
ENDBRANCH  12  16
ENDBRANCH   7   8
BRANCH   7  18
HETATM   18  C   UNL     1      42.981 -17.618   2.594  1.00  0.00    -0.035 A 
HETATM   19  C   UNL     1      42.963 -18.696   1.689  1.00  0.00     0.009 A 
HETATM   20  C   UNL     1      43.606 -19.897   1.990  1.00  0.00     0.001 A 
HETATM   21  C   UNL     1      44.282 -20.040   3.198  1.00  0.00     0.000 A 
HETATM   22  C   UNL     1      44.314 -18.983   4.105  1.00  0.00     0.001 A 
HETATM   23  C   UNL     1      43.668 -17.780   3.807  1.00  0.00     0.009 A 
ENDBRANCH   7  18
ENDBRANCH   6   7
ENDBRANCH   1   6
BRANCH   2  24
HETATM   24  C   UNL     1      42.136 -15.185   5.878  1.00  0.00     0.043 A 
HETATM   25  C   UNL     1      43.394 -14.943   6.446  1.00  0.00     0.033 A 
HETATM   26  C   UNL     1      43.936 -15.861   7.349  1.00  0.00     0.044 A 
HETATM   27  C   UNL     1      43.228 -17.012   7.670  1.00  0.00     0.116 A 
HETATM   28  F   UNL     1      43.750 -17.891   8.534  1.00  0.00    -0.206 F 
HETATM   29  C   UNL     1      41.985 -17.269   7.104  1.00  0.00     0.044 A 
HETATM   30  C   UNL     1      41.432 -16.356   6.202  1.00  0.00     0.033 A 
ENDBRANCH   2  24
BRANCH   3  31
HETATM   31  C   UNL     1      39.812 -13.150   6.483  1.00  0.00     0.315 C 
BRANCH  31  32
HETATM   32  N   UNL     1      40.066 -11.725   6.967  1.00  0.00    -0.064 N 
HETATM   33  H   UNL     1      39.606 -11.129   6.256  1.00  0.00     0.280 HD
HETATM   34  C   UNL     1      39.369 -11.433   8.276  1.00  0.00     0.235 C 
HETATM   35  C   UNL     1      39.530  -9.962   8.627  1.00  0.00     0.028 C 
HETATM   36  C   UNL     1      40.998  -9.553   8.661  1.00  0.00     0.003 C 
HETATM   37  C   UNL     1      41.695  -9.902   7.350  1.00  0.00     0.028 C 
HETATM   38  C   UNL     1      41.528 -11.371   6.994  1.00  0.00     0.235 C 
ENDBRANCH  31  32
ENDBRANCH   3  31
TORSDOF 8
ENDMDL
MODEL 3
REMARK VINA RESULT:      -8.2      2.148      4.369
REMARK  8 active torsions:
REMARK  status: ('A' for Active; 'I' for Inactive)
REMARK    1  A    between atoms: C_2  and  N_3 
REMARK       I    between atoms: N_3  and  C_4 
REMARK       I    between atoms: C_4  and  N_5 
REMARK       I    between atoms: N_5  and  C_6 
REMARK    2  A    between atoms: C_6  and  C_7 
REMARK    3  A    between atoms: C_7  and  S_8 
REMARK    4  A    between atoms: C_7  and  C_29 
REMARK    5  A    between atoms: S_8  and  C_9 
REMARK    6  A    between atoms: N_10  and  C_11 
REMARK    7  A    between atoms: C_18  and  C_19 
REMARK    8  A    between atoms: C_19  and  N_20 
ROOT
HETATM    1  C   UNL     1      41.980 -16.406   5.933  1.00  0.00     0.197 A 
HETATM    2  N   UNL     1      42.646 -17.013   4.883  1.00  0.00    -0.274 N 
HETATM    3  C   UNL     1      43.631 -17.767   5.511  1.00  0.00     0.161 A 
HETATM    4  N   UNL     1      43.525 -17.639   6.820  1.00  0.00    -0.132 NA
HETATM    5  N   UNL     1      42.485 -16.803   7.079  1.00  0.00    -0.122 NA
ENDROOT
BRANCH   1   6
HETATM    6  S   UNL     1      40.520 -15.487   5.816  1.00  0.00    -0.070 SA
BRANCH   6   7
HETATM    7  C   UNL     1      41.103 -13.853   5.219  1.00  0.00     0.180 C 
BRANCH   7   8
HETATM    8  C   UNL     1      40.747 -13.546   3.755  1.00  0.00     0.244 C 
HETATM    9  N   UNL     1      39.589 -14.108   3.254  1.00  0.00    -0.278 N 
HETATM   10  C   UNL     1      39.283 -14.361   1.944  1.00  0.00     0.322 C 
HETATM   11  H   UNL     1      39.037 -14.691   3.869  1.00  0.00     0.173 HD
HETATM   12  N   UNL     1      39.988 -13.665   1.015  1.00  0.00    -0.343 N 
HETATM   13  O   UNL     1      38.435 -15.209   1.676  1.00  0.00    -0.247 OA
HETATM   14  H   UNL     1      40.650 -12.969   1.354  1.00  0.00     0.164 HD
HETATM   15  O   UNL     1      41.418 -12.741   3.102  1.00  0.00    -0.271 OA
BRANCH  12  16
HETATM   16  C   UNL     1      39.825 -13.850  -0.410  1.00  0.00     0.120 C 
HETATM   17  C   UNL     1      41.038 -13.382  -1.195  1.00  0.00     0.026 C 
ENDBRANCH  12  16
ENDBRANCH   7   8
BRANCH   7  18
HETATM   18  C   UNL     1      40.836 -12.731   6.211  1.00  0.00    -0.035 A 
HETATM   19  C   UNL     1      41.880 -11.846   6.544  1.00  0.00     0.009 A 
HETATM   20  C   UNL     1      41.687 -10.826   7.475  1.00  0.00     0.001 A 
HETATM   21  C   UNL     1      40.447 -10.670   8.088  1.00  0.00     0.000 A 
HETATM   22  C   UNL     1      39.401 -11.533   7.770  1.00  0.00     0.001 A 
HETATM   23  C   UNL     1      39.593 -12.557   6.839  1.00  0.00     0.009 A 
ENDBRANCH   7  18
ENDBRANCH   6   7
ENDBRANCH   1   6
BRANCH   2  24
HETATM   24  C   UNL     1      42.416 -16.896   3.490  1.00  0.00     0.043 A 
HETATM   25  C   UNL     1      41.386 -17.628   2.884  1.00  0.00     0.033 A 
HETATM   26  C   UNL     1      41.159 -17.502   1.512  1.00  0.00     0.044 A 
HETATM   27  C   UNL     1      41.963 -16.658   0.755  1.00  0.00     0.116 A 
HETATM   28  F   UNL     1      41.744 -16.541  -0.559  1.00  0.00    -0.206 F 
HETATM   29  C   UNL     1      42.994 -15.936   1.343  1.00  0.00     0.044 A 
HETATM   30  C   UNL     1      43.228 -16.053   2.716  1.00  0.00     0.033 A 
ENDBRANCH   2  24
BRANCH   3  31
HETATM   31  C   UNL     1      44.765 -18.478   4.864  1.00  0.00     0.315 C 
BRANCH  31  32
HETATM   32  N   UNL     1      44.286 -19.752   4.173  1.00  0.00    -0.064 N 
HETATM   33  H   UNL     1      43.284 -19.818   4.427  1.00  0.00     0.280 HD
HETATM   34  C   UNL     1      44.332 -19.636   2.666  1.00  0.00     0.235 C 
HETATM   35  C   UNL     1      43.701 -20.869   2.038  1.00  0.00     0.028 C 
HETATM   36  C   UNL     1      44.365 -22.149   2.530  1.00  0.00     0.003 C 
HETATM   37  C   UNL     1      44.353 -22.222   4.053  1.00  0.00     0.028 C 
HETATM   38  C   UNL     1      44.977 -20.986   4.684  1.00  0.00     0.235 C 
ENDBRANCH  31  32
ENDBRANCH   3  31
TORSDOF 8
ENDMDL
MODEL 4
REMARK VINA RESULT:      -8.1      2.915      5.541
REMARK  8 active torsions:
REMARK  status: ('A' for Active; 'I' for Inactive)
REMARK    1  A    between atoms: C_2  and  N_3 
REMARK       I    between atoms: N_3  and  C_4 
REMARK       I    between atoms: C_4  and  N_5 
REMARK       I    between atoms: N_5  and  C_6 
REMARK    2  A    between atoms: C_6  and  C_7 
REMARK    3  A    between atoms: C_7  and  S_8 
REMARK    4  A    between atoms: C_7  and  C_29 
REMARK    5  A    between atoms: S_8  and  C_9 
REMARK    6  A    between atoms: N_10  and  C_11 
REMARK    7  A    between atoms: C_18  and  C_19 
REMARK    8  A    between atoms: C_19  and  N_20 
ROOT
HETATM    1  C   UNL     1      40.384 -13.857   2.487  1.00  0.00     0.197 A 
HETATM    2  N   UNL     1      41.080 -14.519   1.491  1.00  0.00    -0.274 N 
HETATM    3  C   UNL     1      41.061 -13.624   0.428  1.00  0.00     0.161 A 
HETATM    4  N   UNL     1      40.438 -12.517   0.786  1.00  0.00    -0.132 NA
HETATM    5  N   UNL     1      40.032 -12.660   2.075  1.00  0.00    -0.122 NA
ENDROOT
BRANCH   1   6
HETATM    6  S   UNL     1      40.228 -14.368   4.132  1.00  0.00    -0.070 SA
BRANCH   6   7
HETATM    7  C   UNL     1      41.970 -14.543   4.681  1.00  0.00     0.180 C 
BRANCH   7   8
HETATM    8  C   UNL     1      42.416 -13.506   5.725  1.00  0.00     0.244 C 
HETATM    9  N   UNL     1      43.675 -13.658   6.271  1.00  0.00    -0.278 N 
HETATM   10  C   UNL     1      44.129 -13.183   7.472  1.00  0.00     0.322 C 
HETATM   11  H   UNL     1      44.238 -14.440   5.961  1.00  0.00     0.173 HD
HETATM   12  N   UNL     1      43.428 -12.152   8.014  1.00  0.00    -0.343 N 
HETATM   13  O   UNL     1      45.097 -13.719   8.006  1.00  0.00    -0.247 OA
HETATM   14  H   UNL     1      42.656 -11.772   7.470  1.00  0.00     0.164 HD
HETATM   15  O   UNL     1      41.712 -12.522   5.973  1.00  0.00    -0.271 OA
BRANCH  12  16
HETATM   16  C   UNL     1      43.741 -11.568   9.299  1.00  0.00     0.120 C 
HETATM   17  C   UNL     1      42.753 -10.487   9.698  1.00  0.00     0.026 C 
ENDBRANCH  12  16
ENDBRANCH   7   8
BRANCH   7  18
HETATM   18  C   UNL     1      42.354 -15.985   4.979  1.00  0.00    -0.035 A 
HETATM   19  C   UNL     1      43.710 -16.306   5.179  1.00  0.00     0.009 A 
HETATM   20  C   UNL     1      44.109 -17.620   5.420  1.00  0.00     0.001 A 
HETATM   21  C   UNL     1      43.159 -18.637   5.468  1.00  0.00     0.000 A 
HETATM   22  C   UNL     1      41.813 -18.339   5.275  1.00  0.00     0.001 A 
HETATM   23  C   UNL     1      41.411 -17.023   5.031  1.00  0.00     0.009 A 
ENDBRANCH   7  18
ENDBRANCH   6   7
ENDBRANCH   1   6
BRANCH   2  24
HETATM   24  C   UNL     1      41.663 -15.810   1.514  1.00  0.00     0.043 A 
HETATM   25  C   UNL     1      43.056 -15.951   1.542  1.00  0.00     0.033 A 
HETATM   26  C   UNL     1      43.625 -17.226   1.572  1.00  0.00     0.044 A 
HETATM   27  C   UNL     1      42.804 -18.347   1.566  1.00  0.00     0.116 A 
HETATM   28  F   UNL     1      43.351 -19.568   1.593  1.00  0.00    -0.206 F 
HETATM   29  C   UNL     1      41.420 -18.219   1.527  1.00  0.00     0.044 A 
HETATM   30  C   UNL     1      40.842 -16.948   1.500  1.00  0.00     0.033 A 
ENDBRANCH   2  24
BRANCH   3  31
HETATM   31  C   UNL     1      41.493 -13.885  -0.971  1.00  0.00     0.315 C 
BRANCH  31  32
HETATM   32  N   UNL     1      40.416 -14.646  -1.741  1.00  0.00    -0.064 N 
HETATM   33  H   UNL     1      39.974 -15.252  -1.027  1.00  0.00     0.280 HD
HETATM   34  C   UNL     1      39.326 -13.731  -2.251  1.00  0.00     0.235 C 
HETATM   35  C   UNL     1      38.211 -14.559  -2.871  1.00  0.00     0.028 C 
HETATM   36  C   UNL     1      38.739 -15.479  -3.964  1.00  0.00     0.003 C 
HETATM   37  C   UNL     1      39.872 -16.357  -3.442  1.00  0.00     0.028 C 
HETATM   38  C   UNL     1      40.985 -15.531  -2.815  1.00  0.00     0.235 C 
ENDBRANCH  31  32
ENDBRANCH   3  31
TORSDOF 8
ENDMDL
MODEL 5
REMARK VINA RESULT:      -8.1      3.188      5.905
REMARK  8 active torsions:
REMARK  status: ('A' for Active; 'I' for Inactive)
REMARK    1  A    between atoms: C_2  and  N_3 
REMARK       I    between atoms: N_3  and  C_4 
REMARK       I    between atoms: C_4  and  N_5 
REMARK       I    between atoms: N_5  and  C_6 
REMARK    2  A    between atoms: C_6  and  C_7 
REMARK    3  A    between atoms: C_7  and  S_8 
REMARK    4  A    between atoms: C_7  and  C_29 
REMARK    5  A    between atoms: S_8  and  C_9 
REMARK    6  A    between atoms: N_10  and  C_11 
REMARK    7  A    between atoms: C_18  and  C_19 
REMARK    8  A    between atoms: C_19  and  N_20 
ROOT
HETATM    1  C   UNL     1      39.997 -13.873   2.393  1.00  0.00     0.197 A 
HETATM    2  N   UNL     1      40.780 -14.470   1.421  1.00  0.00    -0.274 N 
HETATM    3  C   UNL     1      40.746 -13.562   0.369  1.00  0.00     0.161 A 
HETATM    4  N   UNL     1      40.031 -12.506   0.712  1.00  0.00    -0.132 NA
HETATM    5  N   UNL     1      39.580 -12.698   1.980  1.00  0.00    -0.122 NA
ENDROOT
BRANCH   1   6
HETATM    6  S   UNL     1      39.804 -14.420   4.023  1.00  0.00    -0.070 SA
BRANCH   6   7
HETATM    7  C   UNL     1      41.514 -14.359   4.687  1.00  0.00     0.180 C 
BRANCH   7   8
HETATM    8  C   UNL     1      41.721 -13.339   5.819  1.00  0.00     0.244 C 
HETATM    9  N   UNL     1      40.591 -12.853   6.447  1.00  0.00    -0.278 N 
HETATM   10  C   UNL     1      40.458 -11.675   7.133  1.00  0.00     0.322 C 
HETATM   11  H   UNL     1      39.689 -13.187   6.133  1.00  0.00     0.173 HD
HETATM   12  N   UNL     1      41.609 -11.103   7.575  1.00  0.00    -0.343 N 
HETATM   13  O   UNL     1      39.341 -11.186   7.279  1.00  0.00    -0.247 OA
HETATM   14  H   UNL     1      42.477 -11.612   7.417  1.00  0.00     0.164 HD
HETATM   15  O   UNL     1      42.858 -13.061   6.213  1.00  0.00    -0.271 OA
BRANCH  12  16
HETATM   16  C   UNL     1      41.650  -9.835   8.269  1.00  0.00     0.120 C 
HETATM   17  C   UNL     1      42.066  -9.986   9.721  1.00  0.00     0.026 C 
ENDBRANCH  12  16
ENDBRANCH   7   8
BRANCH   7  18
HETATM   18  C   UNL     1      42.104 -15.741   4.928  1.00  0.00    -0.035 A 
HETATM   19  C   UNL     1      41.248 -16.858   4.945  1.00  0.00     0.009 A 
HETATM   20  C   UNL     1      41.743 -18.138   5.198  1.00  0.00     0.001 A 
HETATM   21  C   UNL     1      43.102 -18.323   5.435  1.00  0.00     0.000 A 
HETATM   22  C   UNL     1      43.965 -17.230   5.419  1.00  0.00     0.001 A 
HETATM   23  C   UNL     1      43.471 -15.947   5.169  1.00  0.00     0.009 A 
ENDBRANCH   7  18
ENDBRANCH   6   7
ENDBRANCH   1   6
BRANCH   2  24
HETATM   24  C   UNL     1      41.451 -15.716   1.455  1.00  0.00     0.043 A 
HETATM   25  C   UNL     1      40.718 -16.910   1.417  1.00  0.00     0.033 A 
HETATM   26  C   UNL     1      41.386 -18.136   1.443  1.00  0.00     0.044 A 
HETATM   27  C   UNL     1      42.774 -18.164   1.516  1.00  0.00     0.116 A 
HETATM   28  F   UNL     1      43.411 -19.340   1.542  1.00  0.00    -0.206 F 
HETATM   29  C   UNL     1      43.510 -16.987   1.565  1.00  0.00     0.044 A 
HETATM   30  C   UNL     1      42.852 -15.755   1.536  1.00  0.00     0.033 A 
ENDBRANCH   2  24
BRANCH   3  31
HETATM   31  C   UNL     1      41.257 -13.770  -1.012  1.00  0.00     0.315 C 
BRANCH  31  32
HETATM   32  N   UNL     1      40.286 -14.617  -1.830  1.00  0.00    -0.064 N 
HETATM   33  H   UNL     1      39.791 -15.191  -1.123  1.00  0.00     0.280 HD
HETATM   34  C   UNL     1      39.226 -13.778  -2.507  1.00  0.00     0.235 C 
HETATM   35  C   UNL     1      38.204 -14.684  -3.175  1.00  0.00     0.028 C 
HETATM   36  C   UNL     1      38.866 -15.655  -4.145  1.00  0.00     0.003 C 
HETATM   37  C   UNL     1      39.965 -16.456  -3.454  1.00  0.00     0.028 C 
HETATM   38  C   UNL     1      40.985 -15.551  -2.779  1.00  0.00     0.235 C 
ENDBRANCH  31  32
ENDBRANCH   3  31
TORSDOF 8
ENDMDL
MODEL 6
REMARK VINA RESULT:      -7.9      3.300      6.417
REMARK  8 active torsions:
REMARK  status: ('A' for Active; 'I' for Inactive)
REMARK    1  A    between atoms: C_2  and  N_3 
REMARK       I    between atoms: N_3  and  C_4 
REMARK       I    between atoms: C_4  and  N_5 
REMARK       I    between atoms: N_5  and  C_6 
REMARK    2  A    between atoms: C_6  and  C_7 
REMARK    3  A    between atoms: C_7  and  S_8 
REMARK    4  A    between atoms: C_7  and  C_29 
REMARK    5  A    between atoms: S_8  and  C_9 
REMARK    6  A    between atoms: N_10  and  C_11 
REMARK    7  A    between atoms: C_18  and  C_19 
REMARK    8  A    between atoms: C_19  and  N_20 
ROOT
HETATM    1  C   UNL     1      40.328 -13.834   2.216  1.00  0.00     0.197 A 
HETATM    2  N   UNL     1      41.168 -14.464   1.315  1.00  0.00    -0.274 N 
HETATM    3  C   UNL     1      41.271 -13.553   0.271  1.00  0.00     0.161 A 
HETATM    4  N   UNL     1      40.578 -12.467   0.554  1.00  0.00    -0.132 NA
HETATM    5  N   UNL     1      40.005 -12.640   1.774  1.00  0.00    -0.122 NA
ENDROOT
BRANCH   1   6
HETATM    6  S   UNL     1      39.963 -14.375   3.818  1.00  0.00    -0.070 SA
BRANCH   6   7
HETATM    7  C   UNL     1      41.601 -14.366   4.643  1.00  0.00     0.180 C 
BRANCH   7   8
HETATM    8  C   UNL     1      41.726 -13.362   5.801  1.00  0.00     0.244 C 
HETATM    9  N   UNL     1      40.555 -12.939   6.401  1.00  0.00    -0.278 N 
HETATM   10  C   UNL     1      40.347 -11.783   7.104  1.00  0.00     0.322 C 
HETATM   11  H   UNL     1      39.680 -13.307   6.051  1.00  0.00     0.173 HD
HETATM   12  N   UNL     1      41.455 -11.170   7.595  1.00  0.00    -0.343 N 
HETATM   13  O   UNL     1      39.204 -11.347   7.223  1.00  0.00    -0.247 OA
HETATM   14  H   UNL     1      42.350 -11.636   7.456  1.00  0.00     0.164 HD
HETATM   15  O   UNL     1      42.835 -13.041   6.238  1.00  0.00    -0.271 OA
BRANCH  12  16
HETATM   16  C   UNL     1      41.416  -9.916   8.315  1.00  0.00     0.120 C 
HETATM   17  C   UNL     1      41.386 -10.115   9.819  1.00  0.00     0.026 C 
ENDBRANCH  12  16
ENDBRANCH   7   8
BRANCH   7  18
HETATM   18  C   UNL     1      42.129 -15.765   4.926  1.00  0.00    -0.035 A 
HETATM   19  C   UNL     1      41.240 -16.856   4.876  1.00  0.00     0.009 A 
HETATM   20  C   UNL     1      41.676 -18.150   5.162  1.00  0.00     0.001 A 
HETATM   21  C   UNL     1      43.007 -18.377   5.500  1.00  0.00     0.000 A 
HETATM   22  C   UNL     1      43.901 -17.311   5.552  1.00  0.00     0.001 A 
HETATM   23  C   UNL     1      43.467 -16.014   5.268  1.00  0.00     0.009 A 
ENDBRANCH   7  18
ENDBRANCH   6   7
ENDBRANCH   1   6
BRANCH   2  24
HETATM   24  C   UNL     1      41.775 -15.741   1.401  1.00  0.00     0.043 A 
HETATM   25  C   UNL     1      43.159 -15.850   1.594  1.00  0.00     0.033 A 
HETATM   26  C   UNL     1      43.750 -17.112   1.685  1.00  0.00     0.044 A 
HETATM   27  C   UNL     1      42.962 -18.251   1.575  1.00  0.00     0.116 A 
HETATM   28  F   UNL     1      43.531 -19.459   1.661  1.00  0.00    -0.206 F 
HETATM   29  C   UNL     1      41.590 -18.156   1.372  1.00  0.00     0.044 A 
HETATM   30  C   UNL     1      40.989 -16.898   1.283  1.00  0.00     0.033 A 
ENDBRANCH   2  24
BRANCH   3  31
HETATM   31  C   UNL     1      41.896 -13.781  -1.060  1.00  0.00     0.315 C 
BRANCH  31  32
HETATM   32  N   UNL     1      41.775 -12.538  -1.938  1.00  0.00    -0.064 N 
HETATM   33  H   UNL     1      40.993 -12.005  -1.517  1.00  0.00     0.280 HD
HETATM   34  C   UNL     1      42.993 -11.649  -1.839  1.00  0.00     0.235 C 
HETATM   35  C   UNL     1      42.751 -10.360  -2.610  1.00  0.00     0.028 C 
HETATM   36  C   UNL     1      42.365 -10.638  -4.057  1.00  0.00     0.003 C 
HETATM   37  C   UNL     1      41.166 -11.577  -4.135  1.00  0.00     0.028 C 
HETATM   38  C   UNL     1      41.404 -12.864  -3.358  1.00  0.00     0.235 C 
ENDBRANCH  31  32
ENDBRANCH   3  31
TORSDOF 8
ENDMDL
MODEL 7
REMARK VINA RESULT:      -7.9      4.202      8.401
REMARK  8 active torsions:
REMARK  status: ('A' for Active; 'I' for Inactive)
REMARK    1  A    between atoms: C_2  and  N_3 
REMARK       I    between atoms: N_3  and  C_4 
REMARK       I    between atoms: C_4  and  N_5 
REMARK       I    between atoms: N_5  and  C_6 
REMARK    2  A    between atoms: C_6  and  C_7 
REMARK    3  A    between atoms: C_7  and  S_8 
REMARK    4  A    between atoms: C_7  and  C_29 
REMARK    5  A    between atoms: S_8  and  C_9 
REMARK    6  A    between atoms: N_10  and  C_11 
REMARK    7  A    between atoms: C_18  and  C_19 
REMARK    8  A    between atoms: C_19  and  N_20 
ROOT
HETATM    1  C   UNL     1      40.254 -12.338   3.908  1.00  0.00     0.197 A 
HETATM    2  N   UNL     1      40.517 -12.902   5.144  1.00  0.00    -0.274 N 
HETATM    3  C   UNL     1      39.529 -12.370   5.964  1.00  0.00     0.161 A 
HETATM    4  N   UNL     1      38.734 -11.589   5.257  1.00  0.00    -0.132 NA
HETATM    5  N   UNL     1      39.180 -11.585   3.973  1.00  0.00    -0.122 NA
ENDROOT
BRANCH   1   6
HETATM    6  S   UNL     1      41.021 -12.757   2.414  1.00  0.00    -0.070 SA
BRANCH   6   7
HETATM    7  C   UNL     1      40.362 -14.433   2.064  1.00  0.00     0.180 C 
BRANCH   7   8
HETATM    8  C   UNL     1      39.598 -14.552   0.735  1.00  0.00     0.244 C 
HETATM    9  N   UNL     1      40.316 -14.957  -0.374  1.00  0.00    -0.278 N 
HETATM   10  C   UNL     1      40.020 -14.727  -1.690  1.00  0.00     0.322 C 
HETATM   11  H   UNL     1      41.302 -15.152  -0.258  1.00  0.00     0.173 HD
HETATM   12  N   UNL     1      38.728 -14.415  -1.970  1.00  0.00    -0.343 N 
HETATM   13  O   UNL     1      40.918 -14.777  -2.528  1.00  0.00    -0.247 OA
HETATM   14  H   UNL     1      38.064 -14.427  -1.198  1.00  0.00     0.164 HD
HETATM   15  O   UNL     1      38.374 -14.397   0.699  1.00  0.00    -0.271 OA
BRANCH  12  16
HETATM   16  C   UNL     1      38.258 -14.094  -3.300  1.00  0.00     0.120 C 
HETATM   17  C   UNL     1      37.213 -15.076  -3.796  1.00  0.00     0.026 C 
ENDBRANCH  12  16
ENDBRANCH   7   8
BRANCH   7  18
HETATM   18  C   UNL     1      41.373 -15.536   2.344  1.00  0.00    -0.035 A 
HETATM   19  C   UNL     1      42.747 -15.229   2.319  1.00  0.00     0.009 A 
HETATM   20  C   UNL     1      43.707 -16.218   2.535  1.00  0.00     0.001 A 
HETATM   21  C   UNL     1      43.311 -17.529   2.784  1.00  0.00     0.000 A 
HETATM   22  C   UNL     1      41.956 -17.850   2.816  1.00  0.00     0.001 A 
HETATM   23  C   UNL     1      40.993 -16.863   2.597  1.00  0.00     0.009 A 
ENDBRANCH   7  18
ENDBRANCH   6   7
ENDBRANCH   1   6
BRANCH   2  24
HETATM   24  C   UNL     1      41.552 -13.794   5.518  1.00  0.00     0.043 A 
HETATM   25  C   UNL     1      41.250 -15.120   5.854  1.00  0.00     0.033 A 
HETATM   26  C   UNL     1      42.275 -15.996   6.215  1.00  0.00     0.044 A 
HETATM   27  C   UNL     1      43.589 -15.544   6.247  1.00  0.00     0.116 A 
HETATM   28  F   UNL     1      44.570 -16.384   6.595  1.00  0.00    -0.206 F 
HETATM   29  C   UNL     1      43.899 -14.227   5.927  1.00  0.00     0.044 A 
HETATM   30  C   UNL     1      42.881 -13.344   5.562  1.00  0.00     0.033 A 
ENDBRANCH   2  24
BRANCH   3  31
HETATM   31  C   UNL     1      39.438 -12.478   7.444  1.00  0.00     0.315 C 
BRANCH  31  32
HETATM   32  N   UNL     1      39.877 -11.178   8.113  1.00  0.00    -0.064 N 
HETATM   33  H   UNL     1      39.291 -10.451   7.664  1.00  0.00     0.280 HD
HETATM   34  C   UNL     1      39.532 -11.148   9.584  1.00  0.00     0.235 C 
HETATM   35  C   UNL     1      39.851  -9.776  10.158  1.00  0.00     0.028 C 
HETATM   36  C   UNL     1      41.303  -9.388   9.906  1.00  0.00     0.003 C 
HETATM   37  C   UNL     1      41.644  -9.474   8.422  1.00  0.00     0.028 C 
HETATM   38  C   UNL     1      41.318 -10.844   7.845  1.00  0.00     0.235 C 
ENDBRANCH  31  32
ENDBRANCH   3  31
TORSDOF 8
ENDMDL
MODEL 8
REMARK VINA RESULT:      -7.8      3.706      5.993
REMARK  8 active torsions:
REMARK  status: ('A' for Active; 'I' for Inactive)
REMARK    1  A    between atoms: C_2  and  N_3 
REMARK       I    between atoms: N_3  and  C_4 
REMARK       I    between atoms: C_4  and  N_5 
REMARK       I    between atoms: N_5  and  C_6 
REMARK    2  A    between atoms: C_6  and  C_7 
REMARK    3  A    between atoms: C_7  and  S_8 
REMARK    4  A    between atoms: C_7  and  C_29 
REMARK    5  A    between atoms: S_8  and  C_9 
REMARK    6  A    between atoms: N_10  and  C_11 
REMARK    7  A    between atoms: C_18  and  C_19 
REMARK    8  A    between atoms: C_19  and  N_20 
ROOT
HETATM    1  C   UNL     1      41.148 -16.506   3.134  1.00  0.00     0.197 A 
HETATM    2  N   UNL     1      42.442 -16.627   3.610  1.00  0.00    -0.274 N 
HETATM    3  C   UNL     1      43.005 -17.594   2.786  1.00  0.00     0.161 A 
HETATM    4  N   UNL     1      42.124 -17.980   1.882  1.00  0.00    -0.132 NA
HETATM    5  N   UNL     1      40.974 -17.288   2.093  1.00  0.00    -0.122 NA
ENDROOT
BRANCH   1   6
HETATM    6  S   UNL     1      39.991 -15.315   3.620  1.00  0.00    -0.070 SA
BRANCH   6   7
HETATM    7  C   UNL     1      40.212 -13.988   2.373  1.00  0.00     0.180 C 
BRANCH   7   8
HETATM    8  C   UNL     1      39.399 -14.186   1.082  1.00  0.00     0.244 C 
HETATM    9  N   UNL     1      40.066 -14.700  -0.013  1.00  0.00    -0.278 N 
HETATM   10  C   UNL     1      39.731 -14.565  -1.334  1.00  0.00     0.322 C 
HETATM   11  H   UNL     1      41.048 -14.918   0.086  1.00  0.00     0.173 HD
HETATM   12  N   UNL     1      38.440 -14.233  -1.596  1.00  0.00    -0.343 N 
HETATM   13  O   UNL     1      40.597 -14.710  -2.193  1.00  0.00    -0.247 OA
HETATM   14  H   UNL     1      37.803 -14.163  -0.805  1.00  0.00     0.164 HD
HETATM   15  O   UNL     1      38.180 -13.993   1.073  1.00  0.00    -0.271 OA
BRANCH  12  16
HETATM   16  C   UNL     1      37.935 -14.002  -2.932  1.00  0.00     0.120 C 
HETATM   17  C   UNL     1      37.391 -15.267  -3.570  1.00  0.00     0.026 C 
ENDBRANCH  12  16
ENDBRANCH   7   8
BRANCH   7  18
HETATM   18  C   UNL     1      40.158 -12.593   2.978  1.00  0.00    -0.035 A 
HETATM   19  C   UNL     1      40.501 -11.485   2.179  1.00  0.00     0.009 A 
HETATM   20  C   UNL     1      40.498 -10.193   2.704  1.00  0.00     0.001 A 
HETATM   21  C   UNL     1      40.151  -9.985   4.036  1.00  0.00     0.000 A 
HETATM   22  C   UNL     1      39.807 -11.068   4.841  1.00  0.00     0.001 A 
HETATM   23  C   UNL     1      39.810 -12.363   4.318  1.00  0.00     0.009 A 
ENDBRANCH   7  18
ENDBRANCH   6   7
ENDBRANCH   1   6
BRANCH   2  24
HETATM   24  C   UNL     1      43.063 -15.954   4.690  1.00  0.00     0.043 A 
HETATM   25  C   UNL     1      43.498 -14.630   4.537  1.00  0.00     0.033 A 
HETATM   26  C   UNL     1      44.103 -13.970   5.608  1.00  0.00     0.044 A 
HETATM   27  C   UNL     1      44.280 -14.634   6.816  1.00  0.00     0.116 A 
HETATM   28  F   UNL     1      44.862 -13.999   7.840  1.00  0.00    -0.206 F 
HETATM   29  C   UNL     1      43.863 -15.950   6.976  1.00  0.00     0.044 A 
HETATM   30  C   UNL     1      43.254 -16.619   5.912  1.00  0.00     0.033 A 
ENDBRANCH   2  24
BRANCH   3  31
HETATM   31  C   UNL     1      44.322 -18.263   2.960  1.00  0.00     0.315 C 
BRANCH  31  32
HETATM   32  N   UNL     1      44.151 -19.651   3.573  1.00  0.00    -0.064 N 
HETATM   33  H   UNL     1      43.125 -19.768   3.653  1.00  0.00     0.280 HD
HETATM   34  C   UNL     1      44.630 -20.747   2.649  1.00  0.00     0.235 C 
HETATM   35  C   UNL     1      44.294 -22.104   3.246  1.00  0.00     0.028 C 
HETATM   36  C   UNL     1      44.865 -22.255   4.651  1.00  0.00     0.003 C 
HETATM   37  C   UNL     1      44.411 -21.112   5.553  1.00  0.00     0.028 C 
HETATM   38  C   UNL     1      44.740 -19.753   4.953  1.00  0.00     0.235 C 
ENDBRANCH  31  32
ENDBRANCH   3  31
TORSDOF 8
ENDMDL
MODEL 9
REMARK VINA RESULT:      -7.7      3.401      6.359
REMARK  8 active torsions:
REMARK  status: ('A' for Active; 'I' for Inactive)
REMARK    1  A    between atoms: C_2  and  N_3 
REMARK       I    between atoms: N_3  and  C_4 
REMARK       I    between atoms: C_4  and  N_5 
REMARK       I    between atoms: N_5  and  C_6 
REMARK    2  A    between atoms: C_6  and  C_7 
REMARK    3  A    between atoms: C_7  and  S_8 
REMARK    4  A    between atoms: C_7  and  C_29 
REMARK    5  A    between atoms: S_8  and  C_9 
REMARK    6  A    between atoms: N_10  and  C_11 
REMARK    7  A    between atoms: C_18  and  C_19 
REMARK    8  A    between atoms: C_19  and  N_20 
ROOT
HETATM    1  C   UNL     1      39.981 -14.444   2.476  1.00  0.00     0.197 A 
HETATM    2  N   UNL     1      40.827 -15.020   1.545  1.00  0.00    -0.274 N 
HETATM    3  C   UNL     1      40.553 -14.319   0.376  1.00  0.00     0.161 A 
HETATM    4  N   UNL     1      39.648 -13.389   0.614  1.00  0.00    -0.132 NA
HETATM    5  N   UNL     1      39.306 -13.460   1.928  1.00  0.00    -0.122 NA
ENDROOT
BRANCH   1   6
HETATM    6  S   UNL     1      39.984 -14.749   4.179  1.00  0.00    -0.070 SA
BRANCH   6   7
HETATM    7  C   UNL     1      41.488 -13.870   4.756  1.00  0.00     0.180 C 
BRANCH   7   8
HETATM    8  C   UNL     1      41.213 -12.527   5.453  1.00  0.00     0.244 C 
HETATM    9  N   UNL     1      40.556 -12.567   6.667  1.00  0.00    -0.278 N 
HETATM   10  C   UNL     1      39.824 -11.570   7.255  1.00  0.00     0.322 C 
HETATM   11  H   UNL     1      40.288 -13.470   7.036  1.00  0.00     0.173 HD
HETATM   12  N   UNL     1      40.065 -10.307   6.814  1.00  0.00    -0.343 N 
HETATM   13  O   UNL     1      38.981 -11.859   8.101  1.00  0.00    -0.247 OA
HETATM   14  H   UNL     1      40.804 -10.184   6.125  1.00  0.00     0.164 HD
HETATM   15  O   UNL     1      41.663 -11.475   4.988  1.00  0.00    -0.271 OA
BRANCH  12  16
HETATM   16  C   UNL     1      39.344  -9.148   7.291  1.00  0.00     0.120 C 
HETATM   17  C   UNL     1      40.016  -8.503   8.489  1.00  0.00     0.026 C 
ENDBRANCH  12  16
ENDBRANCH   7   8
BRANCH   7  18
HETATM   18  C   UNL     1      42.475 -14.788   5.462  1.00  0.00    -0.035 A 
HETATM   19  C   UNL     1      43.577 -14.224   6.132  1.00  0.00     0.009 A 
HETATM   20  C   UNL     1      44.524 -15.032   6.762  1.00  0.00     0.001 A 
HETATM   21  C   UNL     1      44.385 -16.416   6.735  1.00  0.00     0.000 A 
HETATM   22  C   UNL     1      43.300 -16.992   6.080  1.00  0.00     0.001 A 
HETATM   23  C   UNL     1      42.351 -16.186   5.446  1.00  0.00     0.009 A 
ENDBRANCH   7  18
ENDBRANCH   6   7
ENDBRANCH   1   6
BRANCH   2  24
HETATM   24  C   UNL     1      41.748 -16.084   1.710  1.00  0.00     0.043 A 
HETATM   25  C   UNL     1      41.300 -17.411   1.678  1.00  0.00     0.033 A 
HETATM   26  C   UNL     1      42.214 -18.456   1.834  1.00  0.00     0.044 A 
HETATM   27  C   UNL     1      43.560 -18.171   2.030  1.00  0.00     0.116 A 
HETATM   28  F   UNL     1      44.432 -19.174   2.181  1.00  0.00    -0.206 F 
HETATM   29  C   UNL     1      44.013 -16.858   2.075  1.00  0.00     0.044 A 
HETATM   30  C   UNL     1      43.108 -15.806   1.917  1.00  0.00     0.033 A 
ENDBRANCH   2  24
BRANCH   3  31
HETATM   31  C   UNL     1      41.032 -14.640  -0.995  1.00  0.00     0.315 C 
BRANCH  31  32
HETATM   32  N   UNL     1      41.184 -13.370  -1.829  1.00  0.00    -0.064 N 
HETATM   33  H   UNL     1      40.598 -12.672  -1.338  1.00  0.00     0.280 HD
HETATM   34  C   UNL     1      42.597 -12.832  -1.795  1.00  0.00     0.235 C 
HETATM   35  C   UNL     1      42.651 -11.491  -2.512  1.00  0.00     0.028 C 
HETATM   36  C   UNL     1      42.115 -11.595  -3.935  1.00  0.00     0.003 C 
HETATM   37  C   UNL     1      40.710 -12.187  -3.949  1.00  0.00     0.028 C 
HETATM   38  C   UNL     1      40.653 -13.525  -3.227  1.00  0.00     0.235 C 
ENDBRANCH  31  32
ENDBRANCH   3  31
TORSDOF 8
ENDMDL
MODEL 10
REMARK VINA RESULT:      -7.7      3.921      8.108
REMARK  8 active torsions:
REMARK  status: ('A' for Active; 'I' for Inactive)
REMARK    1  A    between atoms: C_2  and  N_3 
REMARK       I    between atoms: N_3  and  C_4 
REMARK       I    between atoms: C_4  and  N_5 
REMARK       I    between atoms: N_5  and  C_6 
REMARK    2  A    between atoms: C_6  and  C_7 
REMARK    3  A    between atoms: C_7  and  S_8 
REMARK    4  A    between atoms: C_7  and  C_29 
REMARK    5  A    between atoms: S_8  and  C_9 
REMARK    6  A    between atoms: N_10  and  C_11 
REMARK    7  A    between atoms: C_18  and  C_19 
REMARK    8  A    between atoms: C_19  and  N_20 
ROOT
HETATM    1  C   UNL     1      41.330 -13.053   3.542  1.00  0.00     0.197 A 
HETATM    2  N   UNL     1      40.924 -13.554   4.766  1.00  0.00    -0.274 N 
HETATM    3  C   UNL     1      39.900 -12.695   5.148  1.00  0.00     0.161 A 
HETATM    4  N   UNL     1      39.701 -11.790   4.208  1.00  0.00    -0.132 NA
HETATM    5  N   UNL     1      40.584 -12.027   3.202  1.00  0.00    -0.122 NA
ENDROOT
BRANCH   1   6
HETATM    6  S   UNL     1      42.450 -13.803   2.457  1.00  0.00    -0.070 SA
BRANCH   6   7
HETATM    7  C   UNL     1      41.490 -15.208   1.773  1.00  0.00     0.180 C 
BRANCH   7   8
HETATM    8  C   UNL     1      40.774 -14.904   0.447  1.00  0.00     0.244 C 
HETATM    9  N   UNL     1      39.793 -13.932   0.465  1.00  0.00    -0.278 N 
HETATM   10  C   UNL     1      38.747 -13.783  -0.406  1.00  0.00     0.322 C 
HETATM   11  H   UNL     1      39.594 -13.472   1.344  1.00  0.00     0.173 HD
HETATM   12  N   UNL     1      38.879 -14.392  -1.613  1.00  0.00    -0.343 N 
HETATM   13  O   UNL     1      37.752 -13.156  -0.051  1.00  0.00    -0.247 OA
HETATM   14  H   UNL     1      39.760 -14.865  -1.807  1.00  0.00     0.164 HD
HETATM   15  O   UNL     1      41.147 -15.435  -0.604  1.00  0.00    -0.271 OA
BRANCH  12  16
HETATM   16  C   UNL     1      37.848 -14.377  -2.627  1.00  0.00     0.120 C 
HETATM   17  C   UNL     1      37.939 -13.157  -3.526  1.00  0.00     0.026 C 
ENDBRANCH  12  16
ENDBRANCH   7   8
BRANCH   7  18
HETATM   18  C   UNL     1      42.251 -16.525   1.824  1.00  0.00    -0.035 A 
HETATM   19  C   UNL     1      43.620 -16.539   1.499  1.00  0.00     0.009 A 
HETATM   20  C   UNL     1      44.346 -17.730   1.499  1.00  0.00     0.001 A 
HETATM   21  C   UNL     1      43.717 -18.927   1.828  1.00  0.00     0.000 A 
HETATM   22  C   UNL     1      42.364 -18.933   2.155  1.00  0.00     0.001 A 
HETATM   23  C   UNL     1      41.634 -17.742   2.153  1.00  0.00     0.009 A 
ENDBRANCH   7  18
ENDBRANCH   6   7
ENDBRANCH   1   6
BRANCH   2  24
HETATM   24  C   UNL     1      41.427 -14.661   5.491  1.00  0.00     0.043 A 
HETATM   25  C   UNL     1      42.724 -14.623   6.022  1.00  0.00     0.033 A 
HETATM   26  C   UNL     1      43.212 -15.716   6.742  1.00  0.00     0.044 A 
HETATM   27  C   UNL     1      42.411 -16.838   6.919  1.00  0.00     0.116 A 
HETATM   28  F   UNL     1      42.881 -17.884   7.608  1.00  0.00    -0.206 F 
HETATM   29  C   UNL     1      41.128 -16.891   6.387  1.00  0.00     0.044 A 
HETATM   30  C   UNL     1      40.629 -15.803   5.668  1.00  0.00     0.033 A 
ENDBRANCH   2  24
BRANCH   3  31
HETATM   31  C   UNL     1      39.223 -12.638   6.471  1.00  0.00     0.315 C 
BRANCH  31  32
HETATM   32  N   UNL     1      40.124 -11.985   7.516  1.00  0.00    -0.064 N 
HETATM   33  H   UNL     1      40.681 -12.770   7.897  1.00  0.00     0.280 HD
HETATM   34  C   UNL     1      41.115 -11.027   6.895  1.00  0.00     0.235 C 
HETATM   35  C   UNL     1      42.081 -10.528   7.960  1.00  0.00     0.028 C 
HETATM   36  C   UNL     1      41.342  -9.900   9.135  1.00  0.00     0.003 C 
HETATM   37  C   UNL     1      40.312 -10.864   9.714  1.00  0.00     0.028 C 
HETATM   38  C   UNL     1      39.350 -11.370   8.649  1.00  0.00     0.235 C 
ENDBRANCH  31  32
ENDBRANCH   3  31
TORSDOF 8
ENDMDL
