MODEL 1
REMARK VINA RESULT:      -7.2      0.000      0.000
REMARK  7 active torsions:
REMARK  status: ('A' for Active; 'I' for Inactive)
REMARK    1  A    between atoms: O_2  and  C_3 
REMARK    2  A    between atoms: C_6  and  C_7 
REMARK    3  A    between atoms: C_7  and  N_8 
REMARK    4  A    between atoms: N_8  and  C_11 
REMARK    5  A    between atoms: C_11  and  C_12 
REMARK    6  A    between atoms: C_11  and  C_20 
REMARK       I    between atoms: C_12  and  N_13 
REMARK    7  A    between atoms: N_13  and  C_14 
ROOT
HETATM    1  C   UNL     1      44.153 -14.740   6.348  1.00  0.00     0.310 C 
ENDROOT
BRANCH   1   2
HETATM    2  N   UNL     1      42.755 -14.290   5.968  1.00  0.00    -0.054 N 
HETATM    3  H   UNL     1      42.535 -13.378   6.378  1.00  0.00     0.278 HD
HETATM    4  H   UNL     1      42.116 -14.979   6.394  1.00  0.00     0.278 HD
BRANCH   2   5
HETATM    5  C   UNL     1      42.420 -14.273   4.515  1.00  0.00     0.272 C 
BRANCH   5   6
HETATM    6  C   UNL     1      42.554 -15.648   3.923  1.00  0.00    -0.033 A 
HETATM    7  C   UNL     1      41.757 -16.705   4.384  1.00  0.00     0.011 A 
HETATM    8  C   UNL     1      41.893 -17.988   3.843  1.00  0.00     0.037 A 
HETATM    9  C   UNL     1      42.833 -18.233   2.844  1.00  0.00     0.068 A 
HETATM   10  C   UNL     1      43.639 -17.186   2.394  1.00  0.00     0.037 A 
HETATM   11  C   UNL     1      43.503 -15.900   2.923  1.00  0.00     0.011 A 
BRANCH   9  12
HETATM   12  O   UNL     1      43.066 -19.434   2.236  1.00  0.00    -0.356 OA
HETATM   13  C   UNL     1      44.186 -20.185   2.692  1.00  0.00     0.210 C 
ENDBRANCH   9  12
ENDBRANCH   5   6
ENDBRANCH   2   5
ENDBRANCH   1   2
BRANCH   1  14
HETATM   14  C   UNL     1      44.800 -13.723   7.315  1.00  0.00     0.259 C 
HETATM   15  N   UNL     1      44.064 -13.403   8.431  1.00  0.00    -0.304 N 
HETATM   16  H   UNL     1      43.153 -13.800   8.626  1.00  0.00     0.171 HD
HETATM   17  O   UNL     1      45.933 -13.324   7.031  1.00  0.00    -0.270 OA
BRANCH  15  18
HETATM   18  C   UNL     1      44.486 -12.448   9.316  1.00  0.00     0.172 A 
HETATM   19  S   UNL     1      43.518 -11.044   9.351  1.00  0.00    -0.062 SA
HETATM   20  C   UNL     1      44.572 -10.377  10.531  1.00  0.00     0.072 A 
HETATM   21  C   UNL     1      45.581 -11.278  10.807  1.00  0.00     0.126 A 
HETATM   22  N   UNL     1      45.530 -12.464  10.098  1.00  0.00    -0.236 NA
ENDBRANCH  15  18
ENDBRANCH   1  14
BRANCH   1  23
HETATM   23  C   UNL     1      44.198 -16.194   6.773  1.00  0.00    -0.019 A 
HETATM   24  C   UNL     1      45.080 -17.074   6.122  1.00  0.00     0.010 A 
HETATM   25  C   UNL     1      45.124 -18.424   6.472  1.00  0.00     0.001 A 
HETATM   26  C   UNL     1      44.284 -18.915   7.468  1.00  0.00     0.000 A 
HETATM   27  C   UNL     1      43.398 -18.059   8.116  1.00  0.00     0.001 A 
HETATM   28  C   UNL     1      43.350 -16.707   7.770  1.00  0.00     0.010 A 
ENDBRANCH   1  23
TORSDOF 7
ENDMDL
MODEL 2
REMARK VINA RESULT:      -7.1      3.803      6.847
REMARK  7 active torsions:
REMARK  status: ('A' for Active; 'I' for Inactive)
REMARK    1  A    between atoms: O_2  and  C_3 
REMARK    2  A    between atoms: C_6  and  C_7 
REMARK    3  A    between atoms: C_7  and  N_8 
REMARK    4  A    between atoms: N_8  and  C_11 
REMARK    5  A    between atoms: C_11  and  C_12 
REMARK    6  A    between atoms: C_11  and  C_20 
REMARK       I    between atoms: C_12  and  N_13 
REMARK    7  A    between atoms: N_13  and  C_14 
ROOT
HETATM    1  C   UNL     1      43.410 -18.194   3.684  1.00  0.00     0.310 C 
ENDROOT
BRANCH   1   2
HETATM    2  N   UNL     1      44.267 -17.656   4.815  1.00  0.00    -0.054 N 
HETATM    3  H   UNL     1      44.799 -16.834   4.517  1.00  0.00     0.278 HD
HETATM    4  H   UNL     1      44.949 -18.402   5.026  1.00  0.00     0.278 HD
BRANCH   2   5
HETATM    5  C   UNL     1      43.581 -17.361   6.105  1.00  0.00     0.272 C 
BRANCH   5   6
HETATM    6  C   UNL     1      42.679 -16.166   5.967  1.00  0.00    -0.033 A 
HETATM    7  C   UNL     1      41.285 -16.315   6.011  1.00  0.00     0.011 A 
HETATM    8  C   UNL     1      40.446 -15.205   5.866  1.00  0.00     0.037 A 
HETATM    9  C   UNL     1      40.987 -13.936   5.666  1.00  0.00     0.068 A 
HETATM   10  C   UNL     1      42.374 -13.788   5.607  1.00  0.00     0.037 A 
HETATM   11  C   UNL     1      43.219 -14.890   5.759  1.00  0.00     0.011 A 
BRANCH   9  12
HETATM   12  O   UNL     1      40.282 -12.777   5.510  1.00  0.00    -0.356 OA
HETATM   13  C   UNL     1      39.335 -12.453   6.522  1.00  0.00     0.210 C 
ENDBRANCH   9  12
ENDBRANCH   5   6
ENDBRANCH   2   5
ENDBRANCH   1   2
BRANCH   1  14
HETATM   14  C   UNL     1      43.317 -17.158   2.541  1.00  0.00     0.259 C 
HETATM   15  N   UNL     1      42.093 -16.554   2.376  1.00  0.00    -0.304 N 
HETATM   16  H   UNL     1      41.290 -16.760   2.959  1.00  0.00     0.171 HD
HETATM   17  O   UNL     1      44.352 -16.928   1.911  1.00  0.00    -0.270 OA
BRANCH  15  18
HETATM   18  C   UNL     1      41.858 -15.687   1.343  1.00  0.00     0.172 A 
HETATM   19  S   UNL     1      41.986 -14.040   1.766  1.00  0.00    -0.062 SA
HETATM   20  C   UNL     1      41.572 -13.621   0.152  1.00  0.00     0.072 A 
HETATM   21  C   UNL     1      41.369 -14.771  -0.583  1.00  0.00     0.126 A 
HETATM   22  N   UNL     1      41.527 -15.956   0.111  1.00  0.00    -0.236 NA
ENDBRANCH  15  18
ENDBRANCH   1  14
BRANCH   1  23
HETATM   23  C   UNL     1      43.796 -19.604   3.285  1.00  0.00    -0.019 A 
HETATM   24  C   UNL     1      43.371 -20.108   2.043  1.00  0.00     0.010 A 
HETATM   25  C   UNL     1      43.687 -21.412   1.660  1.00  0.00     0.001 A 
HETATM   26  C   UNL     1      44.422 -22.232   2.512  1.00  0.00     0.000 A 
HETATM   27  C   UNL     1      44.843 -21.751   3.749  1.00  0.00     0.001 A 
HETATM   28  C   UNL     1      44.529 -20.447   4.138  1.00  0.00     0.010 A 
ENDBRANCH   1  23
TORSDOF 7
ENDMDL
MODEL 3
REMARK VINA RESULT:      -7.0      3.840      7.485
REMARK  7 active torsions:
REMARK  status: ('A' for Active; 'I' for Inactive)
REMARK    1  A    between atoms: O_2  and  C_3 
REMARK    2  A    between atoms: C_6  and  C_7 
REMARK    3  A    between atoms: C_7  and  N_8 
REMARK    4  A    between atoms: N_8  and  C_11 
REMARK    5  A    between atoms: C_11  and  C_12 
REMARK    6  A    between atoms: C_11  and  C_20 
REMARK       I    between atoms: C_12  and  N_13 
REMARK    7  A    between atoms: N_13  and  C_14 
ROOT
HETATM    1  C   UNL     1      41.528 -17.733   2.152  1.00  0.00     0.310 C 
ENDROOT
BRANCH   1   2
HETATM    2  N   UNL     1      40.816 -17.061   3.312  1.00  0.00    -0.054 N 
HETATM    3  H   UNL     1      41.084 -17.482   4.205  1.00  0.00     0.278 HD
HETATM    4  H   UNL     1      39.812 -17.255   3.171  1.00  0.00     0.278 HD
BRANCH   2   5
HETATM    5  C   UNL     1      40.929 -15.577   3.409  1.00  0.00     0.272 C 
BRANCH   5   6
HETATM    6  C   UNL     1      42.017 -15.189   4.371  1.00  0.00    -0.033 A 
HETATM    7  C   UNL     1      43.016 -14.282   3.990  1.00  0.00     0.011 A 
HETATM    8  C   UNL     1      44.038 -13.933   4.881  1.00  0.00     0.037 A 
HETATM    9  C   UNL     1      44.079 -14.492   6.157  1.00  0.00     0.068 A 
HETATM   10  C   UNL     1      43.093 -15.407   6.533  1.00  0.00     0.037 A 
HETATM   11  C   UNL     1      42.066 -15.754   5.653  1.00  0.00     0.011 A 
BRANCH   9  12
HETATM   12  O   UNL     1      45.018 -14.238   7.116  1.00  0.00    -0.356 OA
HETATM   13  C   UNL     1      44.731 -13.196   8.043  1.00  0.00     0.210 C 
ENDBRANCH   9  12
ENDBRANCH   5   6
ENDBRANCH   2   5
ENDBRANCH   1   2
BRANCH   1  14
HETATM   14  C   UNL     1      41.882 -16.692   1.065  1.00  0.00     0.259 C 
HETATM   15  N   UNL     1      40.836 -16.259   0.285  1.00  0.00    -0.304 N 
HETATM   16  H   UNL     1      39.885 -16.588   0.401  1.00  0.00     0.171 HD
HETATM   17  O   UNL     1      43.053 -16.307   1.022  1.00  0.00    -0.270 OA
BRANCH  15  18
HETATM   18  C   UNL     1      41.035 -15.409  -0.769  1.00  0.00     0.172 A 
HETATM   19  S   UNL     1      41.194 -13.769  -0.328  1.00  0.00    -0.062 SA
HETATM   20  C   UNL     1      41.364 -13.366  -1.989  1.00  0.00     0.072 A 
HETATM   21  C   UNL     1      41.287 -14.515  -2.750  1.00  0.00     0.126 A 
HETATM   22  N   UNL     1      41.090 -15.686  -2.042  1.00  0.00    -0.236 NA
ENDBRANCH  15  18
ENDBRANCH   1  14
BRANCH   1  23
HETATM   23  C   UNL     1      42.653 -18.638   2.610  1.00  0.00    -0.019 A 
HETATM   24  C   UNL     1      43.017 -19.740   1.815  1.00  0.00     0.010 A 
HETATM   25  C   UNL     1      44.030 -20.607   2.224  1.00  0.00     0.001 A 
HETATM   26  C   UNL     1      44.688 -20.392   3.432  1.00  0.00     0.000 A 
HETATM   27  C   UNL     1      44.334 -19.312   4.235  1.00  0.00     0.001 A 
HETATM   28  C   UNL     1      43.320 -18.441   3.832  1.00  0.00     0.010 A 
ENDBRANCH   1  23
TORSDOF 7
ENDMDL
MODEL 4
REMARK VINA RESULT:      -7.0      5.091      7.748
REMARK  7 active torsions:
REMARK  status: ('A' for Active; 'I' for Inactive)
REMARK    1  A    between atoms: O_2  and  C_3 
REMARK    2  A    between atoms: C_6  and  C_7 
REMARK    3  A    between atoms: C_7  and  N_8 
REMARK    4  A    between atoms: N_8  and  C_11 
REMARK    5  A    between atoms: C_11  and  C_12 
REMARK    6  A    between atoms: C_11  and  C_20 
REMARK       I    between atoms: C_12  and  N_13 
REMARK    7  A    between atoms: N_13  and  C_14 
ROOT
HETATM    1  C   UNL     1      42.387 -15.594   1.442  1.00  0.00     0.310 C 
ENDROOT
BRANCH   1   2
HETATM    2  N   UNL     1      42.332 -17.088   1.180  1.00  0.00    -0.054 N 
HETATM    3  H   UNL     1      41.736 -17.300   0.375  1.00  0.00     0.278 HD
HETATM    4  H   UNL     1      41.882 -17.499   2.012  1.00  0.00     0.278 HD
BRANCH   2   5
HETATM    5  C   UNL     1      43.635 -17.798   1.034  1.00  0.00     0.272 C 
BRANCH   5   6
HETATM    6  C   UNL     1      43.912 -18.654   2.238  1.00  0.00    -0.033 A 
HETATM    7  C   UNL     1      43.994 -18.083   3.516  1.00  0.00     0.011 A 
HETATM    8  C   UNL     1      44.268 -18.878   4.634  1.00  0.00     0.037 A 
HETATM    9  C   UNL     1      44.473 -20.249   4.488  1.00  0.00     0.068 A 
HETATM   10  C   UNL     1      44.407 -20.817   3.215  1.00  0.00     0.037 A 
HETATM   11  C   UNL     1      44.126 -20.031   2.095  1.00  0.00     0.011 A 
BRANCH   9  12
HETATM   12  O   UNL     1      44.747 -21.132   5.494  1.00  0.00    -0.356 OA
HETATM   13  C   UNL     1      45.156 -22.441   5.113  1.00  0.00     0.210 C 
ENDBRANCH   9  12
ENDBRANCH   5   6
ENDBRANCH   2   5
ENDBRANCH   1   2
BRANCH   1  14
HETATM   14  C   UNL     1      41.538 -14.834   0.398  1.00  0.00     0.259 C 
HETATM   15  N   UNL     1      41.703 -15.226  -0.910  1.00  0.00    -0.304 N 
HETATM   16  H   UNL     1      42.336 -15.966  -1.191  1.00  0.00     0.171 HD
HETATM   17  O   UNL     1      40.756 -13.982   0.826  1.00  0.00    -0.270 OA
BRANCH  15  18
HETATM   18  C   UNL     1      41.077 -14.571  -1.936  1.00  0.00     0.172 A 
HETATM   19  S   UNL     1      41.970 -13.273  -2.589  1.00  0.00    -0.062 SA
HETATM   20  C   UNL     1      40.675 -12.964  -3.675  1.00  0.00     0.072 A 
HETATM   21  C   UNL     1      39.663 -13.876  -3.455  1.00  0.00     0.126 A 
HETATM   22  N   UNL     1      39.898 -14.793  -2.447  1.00  0.00    -0.236 NA
ENDBRANCH  15  18
ENDBRANCH   1  14
BRANCH   1  23
HETATM   23  C   UNL     1      42.130 -15.251   2.896  1.00  0.00    -0.019 A 
HETATM   24  C   UNL     1      43.001 -14.369   3.560  1.00  0.00     0.010 A 
HETATM   25  C   UNL     1      42.806 -14.057   4.905  1.00  0.00     0.001 A 
HETATM   26  C   UNL     1      41.747 -14.626   5.608  1.00  0.00     0.000 A 
HETATM   27  C   UNL     1      40.881 -15.508   4.968  1.00  0.00     0.001 A 
HETATM   28  C   UNL     1      41.072 -15.825   3.622  1.00  0.00     0.010 A 
ENDBRANCH   1  23
TORSDOF 7
ENDMDL
MODEL 5
REMARK VINA RESULT:      -6.9      1.438      3.185
REMARK  7 active torsions:
REMARK  status: ('A' for Active; 'I' for Inactive)
REMARK    1  A    between atoms: O_2  and  C_3 
REMARK    2  A    between atoms: C_6  and  C_7 
REMARK    3  A    between atoms: C_7  and  N_8 
REMARK    4  A    between atoms: N_8  and  C_11 
REMARK    5  A    between atoms: C_11  and  C_12 
REMARK    6  A    between atoms: C_11  and  C_20 
REMARK       I    between atoms: C_12  and  N_13 
REMARK    7  A    between atoms: N_13  and  C_14 
ROOT
HETATM    1  C   UNL     1      43.918 -15.077   6.641  1.00  0.00     0.310 C 
ENDROOT
BRANCH   1   2
HETATM    2  N   UNL     1      44.829 -16.240   6.293  1.00  0.00    -0.054 N 
HETATM    3  H   UNL     1      45.738 -16.149   6.755  1.00  0.00     0.278 HD
HETATM    4  H   UNL     1      44.993 -16.168   5.277  1.00  0.00     0.278 HD
BRANCH   2   5
HETATM    5  C   UNL     1      44.293 -17.612   6.520  1.00  0.00     0.272 C 
BRANCH   5   6
HETATM    6  C   UNL     1      44.157 -18.352   5.218  1.00  0.00    -0.033 A 
HETATM    7  C   UNL     1      43.464 -17.780   4.142  1.00  0.00     0.011 A 
HETATM    8  C   UNL     1      43.324 -18.476   2.936  1.00  0.00     0.037 A 
HETATM    9  C   UNL     1      43.864 -19.752   2.794  1.00  0.00     0.068 A 
HETATM   10  C   UNL     1      44.541 -20.330   3.870  1.00  0.00     0.037 A 
HETATM   11  C   UNL     1      44.693 -19.638   5.074  1.00  0.00     0.011 A 
BRANCH   9  12
HETATM   12  O   UNL     1      43.797 -20.534   1.676  1.00  0.00    -0.356 OA
HETATM   13  C   UNL     1      44.206 -21.891   1.808  1.00  0.00     0.210 C 
ENDBRANCH   9  12
ENDBRANCH   5   6
ENDBRANCH   2   5
ENDBRANCH   1   2
BRANCH   1  14
HETATM   14  C   UNL     1      44.716 -13.966   7.362  1.00  0.00     0.259 C 
HETATM   15  N   UNL     1      44.148 -13.468   8.510  1.00  0.00    -0.304 N 
HETATM   16  H   UNL     1      43.264 -13.796   8.879  1.00  0.00     0.171 HD
HETATM   17  O   UNL     1      45.808 -13.658   6.876  1.00  0.00    -0.270 OA
BRANCH  15  18
HETATM   18  C   UNL     1      44.711 -12.421   9.189  1.00  0.00     0.172 A 
HETATM   19  S   UNL     1      44.219 -12.293  10.817  1.00  0.00    -0.062 SA
HETATM   20  C   UNL     1      45.203 -10.894  10.977  1.00  0.00     0.072 A 
HETATM   21  C   UNL     1      45.831 -10.634   9.776  1.00  0.00     0.126 A 
HETATM   22  N   UNL     1      45.537 -11.512   8.749  1.00  0.00    -0.236 NA
ENDBRANCH  15  18
ENDBRANCH   1  14
BRANCH   1  23
HETATM   23  C   UNL     1      43.064 -14.639   5.469  1.00  0.00    -0.019 A 
HETATM   24  C   UNL     1      43.672 -13.992   4.378  1.00  0.00     0.010 A 
HETATM   25  C   UNL     1      42.907 -13.553   3.297  1.00  0.00     0.001 A 
HETATM   26  C   UNL     1      41.528 -13.744   3.293  1.00  0.00     0.000 A 
HETATM   27  C   UNL     1      40.910 -14.374   4.369  1.00  0.00     0.001 A 
HETATM   28  C   UNL     1      41.669 -14.815   5.454  1.00  0.00     0.010 A 
ENDBRANCH   1  23
TORSDOF 7
ENDMDL
MODEL 6
REMARK VINA RESULT:      -6.9      1.910      3.740
REMARK  7 active torsions:
REMARK  status: ('A' for Active; 'I' for Inactive)
REMARK    1  A    between atoms: O_2  and  C_3 
REMARK    2  A    between atoms: C_6  and  C_7 
REMARK    3  A    between atoms: C_7  and  N_8 
REMARK    4  A    between atoms: N_8  and  C_11 
REMARK    5  A    between atoms: C_11  and  C_12 
REMARK    6  A    between atoms: C_11  and  C_20 
REMARK       I    between atoms: C_12  and  N_13 
REMARK    7  A    between atoms: N_13  and  C_14 
ROOT
HETATM    1  C   UNL     1      42.864 -15.294   5.834  1.00  0.00     0.310 C 
ENDROOT
BRANCH   1   2
HETATM    2  N   UNL     1      43.636 -16.564   6.142  1.00  0.00    -0.054 N 
HETATM    3  H   UNL     1      44.159 -16.477   7.017  1.00  0.00     0.278 HD
HETATM    4  H   UNL     1      44.326 -16.661   5.381  1.00  0.00     0.278 HD
BRANCH   2   5
HETATM    5  C   UNL     1      42.865 -17.840   6.151  1.00  0.00     0.272 C 
BRANCH   5   6
HETATM    6  C   UNL     1      43.433 -18.812   5.155  1.00  0.00    -0.033 A 
HETATM    7  C   UNL     1      44.385 -19.763   5.548  1.00  0.00     0.011 A 
HETATM    8  C   UNL     1      44.925 -20.657   4.617  1.00  0.00     0.037 A 
HETATM    9  C   UNL     1      44.530 -20.605   3.282  1.00  0.00     0.068 A 
HETATM   10  C   UNL     1      43.594 -19.649   2.885  1.00  0.00     0.037 A 
HETATM   11  C   UNL     1      43.044 -18.758   3.810  1.00  0.00     0.011 A 
BRANCH   9  12
HETATM   12  O   UNL     1      44.979 -21.416   2.278  1.00  0.00    -0.356 OA
HETATM   13  C   UNL     1      44.006 -21.932   1.377  1.00  0.00     0.210 C 
ENDBRANCH   9  12
ENDBRANCH   5   6
ENDBRANCH   2   5
ENDBRANCH   1   2
BRANCH   1  14
HETATM   14  C   UNL     1      43.695 -14.052   6.232  1.00  0.00     0.259 C 
HETATM   15  N   UNL     1      44.613 -14.241   7.238  1.00  0.00    -0.304 N 
HETATM   16  H   UNL     1      44.752 -15.131   7.701  1.00  0.00     0.171 HD
HETATM   17  O   UNL     1      43.500 -13.020   5.586  1.00  0.00    -0.270 OA
BRANCH  15  18
HETATM   18  C   UNL     1      45.344 -13.200   7.742  1.00  0.00     0.172 A 
HETATM   19  S   UNL     1      44.632 -12.425   9.084  1.00  0.00    -0.062 SA
HETATM   20  C   UNL     1      45.960 -11.337   9.127  1.00  0.00     0.072 A 
HETATM   21  C   UNL     1      46.844 -11.650   8.114  1.00  0.00     0.126 A 
HETATM   22  N   UNL     1      46.480 -12.718   7.316  1.00  0.00    -0.236 NA
ENDBRANCH  15  18
ENDBRANCH   1  14
BRANCH   1  23
HETATM   23  C   UNL     1      42.282 -15.294   4.436  1.00  0.00    -0.019 A 
HETATM   24  C   UNL     1      40.885 -15.290   4.272  1.00  0.00     0.010 A 
HETATM   25  C   UNL     1      40.320 -15.318   2.997  1.00  0.00     0.001 A 
HETATM   26  C   UNL     1      41.137 -15.360   1.871  1.00  0.00     0.000 A 
HETATM   27  C   UNL     1      42.521 -15.374   2.016  1.00  0.00     0.001 A 
HETATM   28  C   UNL     1      43.093 -15.347   3.289  1.00  0.00     0.010 A 
ENDBRANCH   1  23
TORSDOF 7
ENDMDL
MODEL 7
REMARK VINA RESULT:      -6.8      4.787      7.890
REMARK  7 active torsions:
REMARK  status: ('A' for Active; 'I' for Inactive)
REMARK    1  A    between atoms: O_2  and  C_3 
REMARK    2  A    between atoms: C_6  and  C_7 
REMARK    3  A    between atoms: C_7  and  N_8 
REMARK    4  A    between atoms: N_8  and  C_11 
REMARK    5  A    between atoms: C_11  and  C_12 
REMARK    6  A    between atoms: C_11  and  C_20 
REMARK       I    between atoms: C_12  and  N_13 
REMARK    7  A    between atoms: N_13  and  C_14 
ROOT
HETATM    1  C   UNL     1      40.520 -16.095   1.702  1.00  0.00     0.310 C 
ENDROOT
BRANCH   1   2
HETATM    2  N   UNL     1      40.100 -15.500   3.033  1.00  0.00    -0.054 N 
HETATM    3  H   UNL     1      39.712 -16.216   3.653  1.00  0.00     0.278 HD
HETATM    4  H   UNL     1      39.339 -14.839   2.814  1.00  0.00     0.278 HD
BRANCH   2   5
HETATM    5  C   UNL     1      41.122 -14.706   3.773  1.00  0.00     0.272 C 
BRANCH   5   6
HETATM    6  C   UNL     1      41.738 -15.524   4.874  1.00  0.00    -0.033 A 
HETATM    7  C   UNL     1      43.130 -15.592   5.020  1.00  0.00     0.011 A 
HETATM    8  C   UNL     1      43.703 -16.367   6.035  1.00  0.00     0.037 A 
HETATM    9  C   UNL     1      42.893 -17.091   6.908  1.00  0.00     0.068 A 
HETATM   10  C   UNL     1      41.506 -17.038   6.754  1.00  0.00     0.037 A 
HETATM   11  C   UNL     1      40.927 -16.260   5.749  1.00  0.00     0.011 A 
BRANCH   9  12
HETATM   12  O   UNL     1      43.323 -17.882   7.935  1.00  0.00    -0.356 OA
HETATM   13  C   UNL     1      43.806 -19.178   7.596  1.00  0.00     0.210 C 
ENDBRANCH   9  12
ENDBRANCH   5   6
ENDBRANCH   2   5
ENDBRANCH   1   2
BRANCH   1  14
HETATM   14  C   UNL     1      40.499 -15.011   0.600  1.00  0.00     0.259 C 
HETATM   15  N   UNL     1      40.383 -15.470  -0.691  1.00  0.00    -0.304 N 
HETATM   16  H   UNL     1      40.311 -16.453  -0.926  1.00  0.00     0.171 HD
HETATM   17  O   UNL     1      40.540 -13.836   0.971  1.00  0.00    -0.270 OA
BRANCH  15  18
HETATM   18  C   UNL     1      40.444 -14.618  -1.760  1.00  0.00     0.172 A 
HETATM   19  S   UNL     1      38.929 -14.023  -2.272  1.00  0.00    -0.062 SA
HETATM   20  C   UNL     1      39.723 -13.153  -3.522  1.00  0.00     0.072 A 
HETATM   21  C   UNL     1      41.082 -13.383  -3.451  1.00  0.00     0.126 A 
HETATM   22  N   UNL     1      41.489 -14.234  -2.440  1.00  0.00    -0.236 NA
ENDBRANCH  15  18
ENDBRANCH   1  14
BRANCH   1  23
HETATM   23  C   UNL     1      41.785 -16.921   1.809  1.00  0.00    -0.019 A 
HETATM   24  C   UNL     1      41.746 -18.156   2.481  1.00  0.00     0.010 A 
HETATM   25  C   UNL     1      42.900 -18.926   2.620  1.00  0.00     0.001 A 
HETATM   26  C   UNL     1      44.110 -18.472   2.101  1.00  0.00     0.000 A 
HETATM   27  C   UNL     1      44.168 -17.248   1.441  1.00  0.00     0.001 A 
HETATM   28  C   UNL     1      43.016 -16.473   1.299  1.00  0.00     0.010 A 
ENDBRANCH   1  23
TORSDOF 7
ENDMDL
MODEL 8
REMARK VINA RESULT:      -6.8      3.802      5.104
REMARK  7 active torsions:
REMARK  status: ('A' for Active; 'I' for Inactive)
REMARK    1  A    between atoms: O_2  and  C_3 
REMARK    2  A    between atoms: C_6  and  C_7 
REMARK    3  A    between atoms: C_7  and  N_8 
REMARK    4  A    between atoms: N_8  and  C_11 
REMARK    5  A    between atoms: C_11  and  C_12 
REMARK    6  A    between atoms: C_11  and  C_20 
REMARK       I    between atoms: C_12  and  N_13 
REMARK    7  A    between atoms: N_13  and  C_14 
ROOT
HETATM    1  C   UNL     1      42.151 -15.288   3.721  1.00  0.00     0.310 C 
ENDROOT
BRANCH   1   2
HETATM    2  N   UNL     1      42.068 -16.432   2.727  1.00  0.00    -0.054 N 
HETATM    3  H   UNL     1      41.378 -16.238   1.996  1.00  0.00     0.278 HD
HETATM    4  H   UNL     1      41.723 -17.243   3.265  1.00  0.00     0.278 HD
BRANCH   2   5
HETATM    5  C   UNL     1      43.344 -16.879   2.098  1.00  0.00     0.272 C 
BRANCH   5   6
HETATM    6  C   UNL     1      43.702 -18.267   2.549  1.00  0.00    -0.033 A 
HETATM    7  C   UNL     1      44.267 -18.483   3.814  1.00  0.00     0.011 A 
HETATM    8  C   UNL     1      44.615 -19.774   4.227  1.00  0.00     0.037 A 
HETATM    9  C   UNL     1      44.412 -20.861   3.379  1.00  0.00     0.068 A 
HETATM   10  C   UNL     1      43.864 -20.647   2.114  1.00  0.00     0.037 A 
HETATM   11  C   UNL     1      43.506 -19.362   1.698  1.00  0.00     0.011 A 
BRANCH   9  12
HETATM   12  O   UNL     1      44.708 -22.166   3.660  1.00  0.00    -0.356 OA
HETATM   13  C   UNL     1      44.855 -22.516   5.031  1.00  0.00     0.210 C 
ENDBRANCH   9  12
ENDBRANCH   5   6
ENDBRANCH   2   5
ENDBRANCH   1   2
BRANCH   1  14
HETATM   14  C   UNL     1      40.895 -14.394   3.615  1.00  0.00     0.259 C 
HETATM   15  N   UNL     1      41.110 -13.041   3.730  1.00  0.00    -0.304 N 
HETATM   16  H   UNL     1      42.028 -12.636   3.874  1.00  0.00     0.171 HD
HETATM   17  O   UNL     1      39.822 -14.960   3.391  1.00  0.00    -0.270 OA
BRANCH  15  18
HETATM   18  C   UNL     1      40.071 -12.151   3.745  1.00  0.00     0.172 A 
HETATM   19  S   UNL     1      39.677 -11.505   2.216  1.00  0.00    -0.062 SA
HETATM   20  C   UNL     1      38.450 -10.560   2.960  1.00  0.00     0.072 A 
HETATM   21  C   UNL     1      38.436 -10.812   4.317  1.00  0.00     0.126 A 
HETATM   22  N   UNL     1      39.377 -11.722   4.763  1.00  0.00    -0.236 NA
ENDBRANCH  15  18
ENDBRANCH   1  14
BRANCH   1  23
HETATM   23  C   UNL     1      42.529 -15.756   5.111  1.00  0.00    -0.019 A 
HETATM   24  C   UNL     1      43.665 -15.209   5.736  1.00  0.00     0.010 A 
HETATM   25  C   UNL     1      44.054 -15.639   7.004  1.00  0.00     0.001 A 
HETATM   26  C   UNL     1      43.324 -16.625   7.662  1.00  0.00     0.000 A 
HETATM   27  C   UNL     1      42.203 -17.183   7.054  1.00  0.00     0.001 A 
HETATM   28  C   UNL     1      41.808 -16.757   5.785  1.00  0.00     0.010 A 
ENDBRANCH   1  23
TORSDOF 7
ENDMDL
MODEL 9
REMARK VINA RESULT:      -6.5      1.928      2.438
REMARK  7 active torsions:
REMARK  status: ('A' for Active; 'I' for Inactive)
REMARK    1  A    between atoms: O_2  and  C_3 
REMARK    2  A    between atoms: C_6  and  C_7 
REMARK    3  A    between atoms: C_7  and  N_8 
REMARK    4  A    between atoms: N_8  and  C_11 
REMARK    5  A    between atoms: C_11  and  C_12 
REMARK    6  A    between atoms: C_11  and  C_20 
REMARK       I    between atoms: C_12  and  N_13 
REMARK    7  A    between atoms: N_13  and  C_14 
ROOT
HETATM    1  C   UNL     1      43.623 -14.693   5.845  1.00  0.00     0.310 C 
ENDROOT
BRANCH   1   2
HETATM    2  N   UNL     1      42.146 -14.430   6.076  1.00  0.00    -0.054 N 
HETATM    3  H   UNL     1      41.971 -14.113   7.033  1.00  0.00     0.278 HD
HETATM    4  H   UNL     1      41.681 -15.345   5.967  1.00  0.00     0.278 HD
BRANCH   2   5
HETATM    5  C   UNL     1      41.463 -13.515   5.118  1.00  0.00     0.272 C 
BRANCH   5   6
HETATM    6  C   UNL     1      41.338 -14.157   3.764  1.00  0.00    -0.033 A 
HETATM    7  C   UNL     1      40.471 -15.241   3.565  1.00  0.00     0.011 A 
HETATM    8  C   UNL     1      40.368 -15.848   2.309  1.00  0.00     0.037 A 
HETATM    9  C   UNL     1      41.136 -15.388   1.241  1.00  0.00     0.068 A 
HETATM   10  C   UNL     1      42.012 -14.320   1.441  1.00  0.00     0.037 A 
HETATM   11  C   UNL     1      42.114 -13.702   2.689  1.00  0.00     0.011 A 
BRANCH   9  12
HETATM   12  O   UNL     1      41.130 -15.892  -0.029  1.00  0.00    -0.356 OA
HETATM   13  C   UNL     1      41.063 -14.954  -1.098  1.00  0.00     0.210 C 
ENDBRANCH   9  12
ENDBRANCH   5   6
ENDBRANCH   2   5
ENDBRANCH   1   2
BRANCH   1  14
HETATM   14  C   UNL     1      44.476 -13.837   6.808  1.00  0.00     0.259 C 
HETATM   15  N   UNL     1      43.838 -13.392   7.942  1.00  0.00    -0.304 N 
HETATM   16  H   UNL     1      42.870 -13.604   8.153  1.00  0.00     0.171 HD
HETATM   17  O   UNL     1      45.660 -13.666   6.504  1.00  0.00    -0.270 OA
BRANCH  15  18
HETATM   18  C   UNL     1      44.458 -12.552   8.827  1.00  0.00     0.172 A 
HETATM   19  S   UNL     1      43.576 -11.137   9.188  1.00  0.00    -0.062 SA
HETATM   20  C   UNL     1      44.857 -10.631  10.214  1.00  0.00     0.072 A 
HETATM   21  C   UNL     1      45.858 -11.581  10.202  1.00  0.00     0.126 A 
HETATM   22  N   UNL     1      45.625 -12.681   9.395  1.00  0.00    -0.236 NA
ENDBRANCH  15  18
ENDBRANCH   1  14
BRANCH   1  23
HETATM   23  C   UNL     1      43.947 -16.172   5.794  1.00  0.00    -0.019 A 
HETATM   24  C   UNL     1      43.525 -16.931   4.688  1.00  0.00     0.010 A 
HETATM   25  C   UNL     1      43.784 -18.300   4.625  1.00  0.00     0.001 A 
HETATM   26  C   UNL     1      44.459 -18.932   5.666  1.00  0.00     0.000 A 
HETATM   27  C   UNL     1      44.876 -18.197   6.772  1.00  0.00     0.001 A 
HETATM   28  C   UNL     1      44.618 -16.826   6.841  1.00  0.00     0.010 A 
ENDBRANCH   1  23
TORSDOF 7
ENDMDL
MODEL 10
REMARK VINA RESULT:      -6.4      4.169      7.316
REMARK  7 active torsions:
REMARK  status: ('A' for Active; 'I' for Inactive)
REMARK    1  A    between atoms: O_2  and  C_3 
REMARK    2  A    between atoms: C_6  and  C_7 
REMARK    3  A    between atoms: C_7  and  N_8 
REMARK    4  A    between atoms: N_8  and  C_11 
REMARK    5  A    between atoms: C_11  and  C_12 
REMARK    6  A    between atoms: C_11  and  C_20 
REMARK       I    between atoms: C_12  and  N_13 
REMARK    7  A    between atoms: N_13  and  C_14 
ROOT
HETATM    1  C   UNL     1      42.109 -17.689   3.771  1.00  0.00     0.310 C 
ENDROOT
BRANCH   1   2
HETATM    2  N   UNL     1      42.433 -17.141   5.148  1.00  0.00    -0.054 N 
HETATM    3  H   UNL     1      43.180 -16.443   5.102  1.00  0.00     0.278 HD
HETATM    4  H   UNL     1      42.796 -17.943   5.687  1.00  0.00     0.278 HD
BRANCH   2   5
HETATM    5  C   UNL     1      41.297 -16.599   5.947  1.00  0.00     0.272 C 
BRANCH   5   6
HETATM    6  C   UNL     1      41.213 -15.105   5.807  1.00  0.00    -0.033 A 
HETATM    7  C   UNL     1      42.373 -14.319   5.836  1.00  0.00     0.011 A 
HETATM    8  C   UNL     1      42.293 -12.927   5.721  1.00  0.00     0.037 A 
HETATM    9  C   UNL     1      41.054 -12.303   5.587  1.00  0.00     0.068 A 
HETATM   10  C   UNL     1      39.896 -13.083   5.574  1.00  0.00     0.037 A 
HETATM   11  C   UNL     1      39.969 -14.474   5.679  1.00  0.00     0.011 A 
BRANCH   9  12
HETATM   12  O   UNL     1      40.839 -10.959   5.468  1.00  0.00    -0.356 OA
HETATM   13  C   UNL     1      39.630 -10.445   6.017  1.00  0.00     0.210 C 
ENDBRANCH   9  12
ENDBRANCH   5   6
ENDBRANCH   2   5
ENDBRANCH   1   2
BRANCH   1  14
HETATM   14  C   UNL     1      42.006 -16.537   2.745  1.00  0.00     0.259 C 
HETATM   15  N   UNL     1      40.808 -16.433   2.077  1.00  0.00    -0.304 N 
HETATM   16  H   UNL     1      40.030 -17.062   2.235  1.00  0.00     0.171 HD
HETATM   17  O   UNL     1      42.980 -15.787   2.649  1.00  0.00    -0.270 OA
BRANCH  15  18
HETATM   18  C   UNL     1      40.624 -15.513   1.081  1.00  0.00     0.172 A 
HETATM   19  S   UNL     1      41.329 -15.942  -0.412  1.00  0.00    -0.062 SA
HETATM   20  C   UNL     1      40.769 -14.459  -1.073  1.00  0.00     0.072 A 
HETATM   21  C   UNL     1      40.088 -13.752  -0.103  1.00  0.00     0.126 A 
HETATM   22  N   UNL     1      40.015 -14.361   1.137  1.00  0.00    -0.236 NA
ENDBRANCH  15  18
ENDBRANCH   1  14
BRANCH   1  23
HETATM   23  C   UNL     1      42.997 -18.854   3.387  1.00  0.00    -0.019 A 
HETATM   24  C   UNL     1      43.978 -19.300   4.291  1.00  0.00     0.010 A 
HETATM   25  C   UNL     1      44.829 -20.352   3.954  1.00  0.00     0.001 A 
HETATM   26  C   UNL     1      44.721 -20.968   2.711  1.00  0.00     0.000 A 
HETATM   27  C   UNL     1      43.762 -20.533   1.800  1.00  0.00     0.001 A 
HETATM   28  C   UNL     1      42.907 -19.480   2.131  1.00  0.00     0.010 A 
ENDBRANCH   1  23
TORSDOF 7
ENDMDL
