MODEL 1
REMARK VINA RESULT:      -8.0      0.000      0.000
REMARK  6 active torsions:
REMARK  status: ('A' for Active; 'I' for Inactive)
REMARK    1  A    between atoms: C_7  and  S_8 
REMARK    2  A    between atoms: S_8  and  C_9 
REMARK    3  A    between atoms: C_9  and  C_10 
REMARK    4  A    between atoms: C_18  and  C_19 
REMARK    5  A    between atoms: C_26  and  C_27 
REMARK    6  A    between atoms: C_27  and  O_28 
ROOT
HETATM    1  C   UNL     1      41.306 -14.766  -3.523  1.00  0.00     0.070 C 
HETATM    2  C   UNL     1      41.186 -14.661  -2.023  1.00  0.00     0.037 A 
HETATM    3  N   UNL     1      41.161 -15.864  -1.324  1.00  0.00    -0.192 N 
HETATM    4  C   UNL     1      41.217 -15.932   0.020  1.00  0.00     0.726 A 
HETATM    5  N   UNL     1      41.157 -14.778   0.755  1.00  0.00    -0.082 N 
HETATM    6  N   UNL     1      41.285 -15.028   2.072  1.00  0.00    -0.128 NA
HETATM    7  C   UNL     1      41.389 -16.362   2.066  1.00  0.00     0.226 A 
HETATM    8  N   UNL     1      41.349 -16.953   0.826  1.00  0.00    -0.035 NA
HETATM    9  C   UNL     1      41.023 -13.434   0.173  1.00  0.00     0.204 A 
HETATM   10  C   UNL     1      41.146 -13.490  -1.343  1.00  0.00     0.070 A 
HETATM   11  H   UNL     1      41.260 -16.721  -1.861  1.00  0.00     0.184 HD
ENDROOT
BRANCH   7  12
HETATM   12  S   UNL     1      41.555 -17.257   3.549  1.00  0.00    -0.083 SA
BRANCH  12  13
HETATM   13  C   UNL     1      43.356 -17.472   3.577  1.00  0.00     0.123 C 
BRANCH  13  14
HETATM   14  C   UNL     1      43.752 -18.912   3.351  1.00  0.00    -0.027 A 
HETATM   15  C   UNL     1      44.443 -19.673   4.308  1.00  0.00     0.041 A 
HETATM   16 CL   UNL     1      44.922 -19.013   5.832  1.00  0.00    -0.084 Cl
HETATM   17  C   UNL     1      44.774 -21.008   4.050  1.00  0.00     0.024 A 
HETATM   18  C   UNL     1      44.417 -21.600   2.840  1.00  0.00     0.002 A 
HETATM   19  C   UNL     1      43.726 -20.862   1.885  1.00  0.00     0.001 A 
HETATM   20  C   UNL     1      43.392 -19.530   2.139  1.00  0.00     0.009 A 
ENDBRANCH  13  14
ENDBRANCH  12  13
ENDBRANCH   7  12
BRANCH   9  21
HETATM   21  C   UNL     1      39.704 -12.805   0.619  1.00  0.00    -0.006 A 
HETATM   22  C   UNL     1      39.648 -11.605   1.349  1.00  0.00     0.042 A 
HETATM   23 CL   UNL     1      41.065 -10.724   1.797  1.00  0.00    -0.084 Cl
HETATM   24  C   UNL     1      38.417 -11.059   1.735  1.00  0.00     0.024 A 
HETATM   25  C   UNL     1      37.225 -11.696   1.400  1.00  0.00     0.002 A 
HETATM   26  C   UNL     1      37.256 -12.881   0.672  1.00  0.00     0.001 A 
HETATM   27  C   UNL     1      38.480 -13.429   0.283  1.00  0.00     0.011 A 
ENDBRANCH   9  21
BRANCH  10  28
HETATM   28  C   UNL     1      41.213 -12.195  -2.044  1.00  0.00     0.293 C 
HETATM   29  O   UNL     1      40.262 -11.644  -2.571  1.00  0.00    -0.259 OA
BRANCH  28  30
HETATM   30  O   UNL     1      42.496 -11.761  -2.036  1.00  0.00    -0.323 OA
HETATM   31  C   UNL     1      42.634 -10.353  -1.846  1.00  0.00     0.213 C 
ENDBRANCH  28  30
ENDBRANCH  10  28
TORSDOF 6
ENDMDL
MODEL 2
REMARK VINA RESULT:      -8.0      1.994      3.595
REMARK  6 active torsions:
REMARK  status: ('A' for Active; 'I' for Inactive)
REMARK    1  A    between atoms: C_7  and  S_8 
REMARK    2  A    between atoms: S_8  and  C_9 
REMARK    3  A    between atoms: C_9  and  C_10 
REMARK    4  A    between atoms: C_18  and  C_19 
REMARK    5  A    between atoms: C_26  and  C_27 
REMARK    6  A    between atoms: C_27  and  O_28 
ROOT
HETATM    1  C   UNL     1      36.853 -13.555   0.614  1.00  0.00     0.070 C 
HETATM    2  C   UNL     1      38.314 -13.929   0.561  1.00  0.00     0.037 A 
HETATM    3  N   UNL     1      38.901 -14.280   1.773  1.00  0.00    -0.192 N 
HETATM    4  C   UNL     1      40.146 -14.787   1.864  1.00  0.00     0.726 A 
HETATM    5  N   UNL     1      40.935 -14.836   0.747  1.00  0.00    -0.082 N 
HETATM    6  N   UNL     1      42.119 -15.423   1.008  1.00  0.00    -0.128 NA
HETATM    7  C   UNL     1      41.990 -15.677   2.315  1.00  0.00     0.226 A 
HETATM    8  N   UNL     1      40.794 -15.299   2.877  1.00  0.00    -0.035 NA
HETATM    9  C   UNL     1      40.519 -14.358  -0.580  1.00  0.00     0.204 A 
HETATM   10  C   UNL     1      39.046 -13.977  -0.577  1.00  0.00     0.070 A 
HETATM   11  H   UNL     1      38.305 -14.297   2.596  1.00  0.00     0.184 HD
ENDROOT
BRANCH   7  12
HETATM   12  S   UNL     1      43.275 -16.432   3.214  1.00  0.00    -0.083 SA
BRANCH  12  13
HETATM   13  C   UNL     1      42.452 -17.977   3.688  1.00  0.00     0.123 C 
BRANCH  13  14
HETATM   14  C   UNL     1      43.273 -19.188   3.311  1.00  0.00    -0.027 A 
HETATM   15  C   UNL     1      44.327 -19.672   4.102  1.00  0.00     0.041 A 
HETATM   16 CL   UNL     1      44.792 -18.904   5.579  1.00  0.00    -0.084 Cl
HETATM   17  C   UNL     1      45.045 -20.807   3.711  1.00  0.00     0.024 A 
HETATM   18  C   UNL     1      44.721 -21.474   2.531  1.00  0.00     0.002 A 
HETATM   19  C   UNL     1      43.674 -21.010   1.739  1.00  0.00     0.001 A 
HETATM   20  C   UNL     1      42.953 -19.879   2.127  1.00  0.00     0.009 A 
ENDBRANCH  13  14
ENDBRANCH  12  13
ENDBRANCH   7  12
BRANCH   9  21
HETATM   21  C   UNL     1      41.412 -13.196  -1.015  1.00  0.00    -0.006 A 
HETATM   22  C   UNL     1      41.984 -13.122  -2.297  1.00  0.00     0.042 A 
HETATM   23 CL   UNL     1      41.720 -14.331  -3.503  1.00  0.00    -0.084 Cl
HETATM   24  C   UNL     1      42.793 -12.037  -2.657  1.00  0.00     0.024 A 
HETATM   25  C   UNL     1      43.044 -11.010  -1.751  1.00  0.00     0.002 A 
HETATM   26  C   UNL     1      42.482 -11.059  -0.480  1.00  0.00     0.001 A 
HETATM   27  C   UNL     1      41.674 -12.137  -0.116  1.00  0.00     0.011 A 
ENDBRANCH   9  21
BRANCH  10  28
HETATM   28  C   UNL     1      38.450 -13.652  -1.885  1.00  0.00     0.293 C 
HETATM   29  O   UNL     1      38.362 -12.526  -2.345  1.00  0.00    -0.259 OA
BRANCH  28  30
HETATM   30  O   UNL     1      37.988 -14.794  -2.449  1.00  0.00    -0.323 OA
HETATM   31  C   UNL     1      37.587 -14.651  -3.812  1.00  0.00     0.213 C 
ENDBRANCH  28  30
ENDBRANCH  10  28
TORSDOF 6
ENDMDL
MODEL 3
REMARK VINA RESULT:      -7.9      1.975      3.741
REMARK  6 active torsions:
REMARK  status: ('A' for Active; 'I' for Inactive)
REMARK    1  A    between atoms: C_7  and  S_8 
REMARK    2  A    between atoms: S_8  and  C_9 
REMARK    3  A    between atoms: C_9  and  C_10 
REMARK    4  A    between atoms: C_18  and  C_19 
REMARK    5  A    between atoms: C_26  and  C_27 
REMARK    6  A    between atoms: C_27  and  O_28 
ROOT
HETATM    1  C   UNL     1      39.043 -12.257   2.993  1.00  0.00     0.070 C 
HETATM    2  C   UNL     1      39.784 -13.156   2.034  1.00  0.00     0.037 A 
HETATM    3  N   UNL     1      40.788 -13.947   2.585  1.00  0.00    -0.192 N 
HETATM    4  C   UNL     1      41.426 -14.910   1.893  1.00  0.00     0.726 A 
HETATM    5  N   UNL     1      41.192 -15.039   0.550  1.00  0.00    -0.082 N 
HETATM    6  N   UNL     1      41.866 -16.083   0.033  1.00  0.00    -0.128 NA
HETATM    7  C   UNL     1      42.515 -16.525   1.117  1.00  0.00     0.226 A 
HETATM    8  N   UNL     1      42.272 -15.829   2.277  1.00  0.00    -0.035 NA
HETATM    9  C   UNL     1      40.278 -14.178  -0.216  1.00  0.00     0.204 A 
HETATM   10  C   UNL     1      39.500 -13.257   0.714  1.00  0.00     0.070 A 
HETATM   11  H   UNL     1      40.928 -13.893   3.591  1.00  0.00     0.184 HD
ENDROOT
BRANCH   7  12
HETATM   12  S   UNL     1      43.592 -17.889   1.025  1.00  0.00    -0.083 SA
BRANCH  12  13
HETATM   13  C   UNL     1      43.868 -18.181   2.794  1.00  0.00     0.123 C 
BRANCH  13  14
HETATM   14  C   UNL     1      44.141 -19.637   3.086  1.00  0.00    -0.027 A 
HETATM   15  C   UNL     1      44.594 -20.094   4.335  1.00  0.00     0.041 A 
HETATM   16 CL   UNL     1      44.899 -19.015   5.649  1.00  0.00    -0.084 Cl
HETATM   17  C   UNL     1      44.818 -21.458   4.554  1.00  0.00     0.024 A 
HETATM   18  C   UNL     1      44.591 -22.381   3.535  1.00  0.00     0.002 A 
HETATM   19  C   UNL     1      44.136 -21.945   2.294  1.00  0.00     0.001 A 
HETATM   20  C   UNL     1      43.909 -20.586   2.072  1.00  0.00     0.009 A 
ENDBRANCH  13  14
ENDBRANCH  12  13
ENDBRANCH   7  12
BRANCH   9  21
HETATM   21  C   UNL     1      41.062 -13.400  -1.272  1.00  0.00    -0.006 A 
HETATM   22  C   UNL     1      40.751 -13.462  -2.642  1.00  0.00     0.042 A 
HETATM   23 CL   UNL     1      39.446 -14.413  -3.255  1.00  0.00    -0.084 Cl
HETATM   24  C   UNL     1      41.493 -12.729  -3.577  1.00  0.00     0.024 A 
HETATM   25  C   UNL     1      42.551 -11.922  -3.165  1.00  0.00     0.002 A 
HETATM   26  C   UNL     1      42.872 -11.841  -1.814  1.00  0.00     0.001 A 
HETATM   27  C   UNL     1      42.135 -12.568  -0.877  1.00  0.00     0.011 A 
ENDBRANCH   9  21
BRANCH  10  28
HETATM   28  C   UNL     1      38.418 -12.467   0.100  1.00  0.00     0.293 C 
HETATM   29  O   UNL     1      37.310 -12.900  -0.164  1.00  0.00    -0.259 OA
BRANCH  28  30
HETATM   30  O   UNL     1      38.880 -11.219  -0.152  1.00  0.00    -0.323 OA
HETATM   31  C   UNL     1      37.930 -10.184   0.102  1.00  0.00     0.213 C 
ENDBRANCH  28  30
ENDBRANCH  10  28
TORSDOF 6
ENDMDL
MODEL 4
REMARK VINA RESULT:      -7.8      2.417      4.186
REMARK  6 active torsions:
REMARK  status: ('A' for Active; 'I' for Inactive)
REMARK    1  A    between atoms: C_7  and  S_8 
REMARK    2  A    between atoms: S_8  and  C_9 
REMARK    3  A    between atoms: C_9  and  C_10 
REMARK    4  A    between atoms: C_18  and  C_19 
REMARK    5  A    between atoms: C_26  and  C_27 
REMARK    6  A    between atoms: C_27  and  O_28 
ROOT
HETATM    1  C   UNL     1      41.257 -10.225   4.455  1.00  0.00     0.070 C 
HETATM    2  C   UNL     1      41.023 -11.629   3.955  1.00  0.00     0.037 A 
HETATM    3  N   UNL     1      41.879 -12.608   4.449  1.00  0.00    -0.192 N 
HETATM    4  C   UNL     1      41.699 -13.923   4.222  1.00  0.00     0.726 A 
HETATM    5  N   UNL     1      40.718 -14.326   3.356  1.00  0.00    -0.082 N 
HETATM    6  N   UNL     1      40.641 -15.669   3.294  1.00  0.00    -0.128 NA
HETATM    7  C   UNL     1      41.628 -16.017   4.127  1.00  0.00     0.226 A 
HETATM    8  N   UNL     1      42.302 -14.972   4.714  1.00  0.00    -0.035 NA
HETATM    9  C   UNL     1      39.827 -13.409   2.630  1.00  0.00     0.204 A 
HETATM   10  C   UNL     1      40.024 -11.977   3.109  1.00  0.00     0.070 A 
HETATM   11  H   UNL     1      42.575 -12.321   5.133  1.00  0.00     0.184 HD
ENDROOT
BRANCH   7  12
HETATM   12  S   UNL     1      42.011 -17.689   4.420  1.00  0.00    -0.083 SA
BRANCH  12  13
HETATM   13  C   UNL     1      43.370 -17.903   3.239  1.00  0.00     0.123 C 
BRANCH  13  14
HETATM   14  C   UNL     1      43.754 -19.356   3.082  1.00  0.00    -0.027 A 
HETATM   15  C   UNL     1      44.497 -20.058   4.045  1.00  0.00     0.041 A 
HETATM   16 CL   UNL     1      45.059 -19.306   5.496  1.00  0.00    -0.084 Cl
HETATM   17  C   UNL     1      44.813 -21.408   3.854  1.00  0.00     0.024 A 
HETATM   18  C   UNL     1      44.390 -22.074   2.705  1.00  0.00     0.002 A 
HETATM   19  C   UNL     1      43.646 -21.394   1.745  1.00  0.00     0.001 A 
HETATM   20  C   UNL     1      43.327 -20.048   1.932  1.00  0.00     0.009 A 
ENDBRANCH  13  14
ENDBRANCH  12  13
ENDBRANCH   7  12
BRANCH   9  21
HETATM   21  C   UNL     1      40.057 -13.547   1.125  1.00  0.00    -0.006 A 
HETATM   22  C   UNL     1      39.018 -13.849   0.227  1.00  0.00     0.042 A 
HETATM   23 CL   UNL     1      37.384 -14.077   0.741  1.00  0.00    -0.084 Cl
HETATM   24  C   UNL     1      39.270 -13.963  -1.145  1.00  0.00     0.024 A 
HETATM   25  C   UNL     1      40.556 -13.776  -1.647  1.00  0.00     0.002 A 
HETATM   26  C   UNL     1      41.598 -13.470  -0.778  1.00  0.00     0.001 A 
HETATM   27  C   UNL     1      41.352 -13.354   0.592  1.00  0.00     0.011 A 
ENDBRANCH   9  21
BRANCH  10  28
HETATM   28  C   UNL     1      39.071 -10.977   2.596  1.00  0.00     0.293 C 
HETATM   29  O   UNL     1      39.268 -10.268   1.625  1.00  0.00    -0.259 OA
BRANCH  28  30
HETATM   30  O   UNL     1      37.984 -10.958   3.404  1.00  0.00    -0.323 OA
HETATM   31  C   UNL     1      37.585  -9.650   3.814  1.00  0.00     0.213 C 
ENDBRANCH  28  30
ENDBRANCH  10  28
TORSDOF 6
ENDMDL
MODEL 5
REMARK VINA RESULT:      -7.7      3.852      8.217
REMARK  6 active torsions:
REMARK  status: ('A' for Active; 'I' for Inactive)
REMARK    1  A    between atoms: C_7  and  S_8 
REMARK    2  A    between atoms: S_8  and  C_9 
REMARK    3  A    between atoms: C_9  and  C_10 
REMARK    4  A    between atoms: C_18  and  C_19 
REMARK    5  A    between atoms: C_26  and  C_27 
REMARK    6  A    between atoms: C_27  and  O_28 
ROOT
HETATM    1  C   UNL     1      44.616 -20.022   2.784  1.00  0.00     0.070 C 
HETATM    2  C   UNL     1      43.672 -18.904   3.153  1.00  0.00     0.037 A 
HETATM    3  N   UNL     1      43.005 -18.290   2.098  1.00  0.00    -0.192 N 
HETATM    4  C   UNL     1      42.019 -17.390   2.278  1.00  0.00     0.726 A 
HETATM    5  N   UNL     1      41.740 -16.943   3.541  1.00  0.00    -0.082 N 
HETATM    6  N   UNL     1      40.693 -16.097   3.541  1.00  0.00    -0.128 NA
HETATM    7  C   UNL     1      40.404 -16.053   2.236  1.00  0.00     0.226 A 
HETATM    8  N   UNL     1      41.198 -16.832   1.428  1.00  0.00    -0.035 NA
HETATM    9  C   UNL     1      42.460 -17.375   4.749  1.00  0.00     0.204 A 
HETATM   10  C   UNL     1      43.421 -18.510   4.424  1.00  0.00     0.070 A 
HETATM   11  H   UNL     1      43.168 -18.655   1.163  1.00  0.00     0.184 HD
ENDROOT
BRANCH   7  12
HETATM   12  S   UNL     1      39.108 -15.059   1.635  1.00  0.00    -0.083 SA
BRANCH  12  13
HETATM   13  C   UNL     1      40.050 -13.942   0.561  1.00  0.00     0.123 C 
BRANCH  13  14
HETATM   14  C   UNL     1      39.902 -14.308  -0.897  1.00  0.00    -0.027 A 
HETATM   15  C   UNL     1      38.862 -13.821  -1.705  1.00  0.00     0.041 A 
HETATM   16 CL   UNL     1      37.640 -12.766  -1.088  1.00  0.00    -0.084 Cl
HETATM   17  C   UNL     1      38.781 -14.183  -3.054  1.00  0.00     0.024 A 
HETATM   18  C   UNL     1      39.736 -15.031  -3.614  1.00  0.00     0.002 A 
HETATM   19  C   UNL     1      40.776 -15.517  -2.828  1.00  0.00     0.001 A 
HETATM   20  C   UNL     1      40.862 -15.156  -1.482  1.00  0.00     0.009 A 
ENDBRANCH  13  14
ENDBRANCH  12  13
ENDBRANCH   7  12
BRANCH   9  21
HETATM   21  C   UNL     1      43.175 -16.180   5.380  1.00  0.00    -0.006 A 
HETATM   22  C   UNL     1      43.368 -16.063   6.768  1.00  0.00     0.042 A 
HETATM   23 CL   UNL     1      42.825 -17.264   7.885  1.00  0.00    -0.084 Cl
HETATM   24  C   UNL     1      44.033 -14.954   7.306  1.00  0.00     0.024 A 
HETATM   25  C   UNL     1      44.518 -13.948   6.474  1.00  0.00     0.002 A 
HETATM   26  C   UNL     1      44.345 -14.047   5.098  1.00  0.00     0.001 A 
HETATM   27  C   UNL     1      43.684 -15.151   4.555  1.00  0.00     0.011 A 
ENDBRANCH   9  21
BRANCH  10  28
HETATM   28  C   UNL     1      44.076 -19.163   5.572  1.00  0.00     0.293 C 
HETATM   29  O   UNL     1      45.210 -18.925   5.948  1.00  0.00    -0.259 OA
BRANCH  28  30
HETATM   30  O   UNL     1      43.228 -20.082   6.092  1.00  0.00    -0.323 OA
HETATM   31  C   UNL     1      43.865 -21.075   6.896  1.00  0.00     0.213 C 
ENDBRANCH  28  30
ENDBRANCH  10  28
TORSDOF 6
ENDMDL
MODEL 6
REMARK VINA RESULT:      -7.7      2.351      2.976
REMARK  6 active torsions:
REMARK  status: ('A' for Active; 'I' for Inactive)
REMARK    1  A    between atoms: C_7  and  S_8 
REMARK    2  A    between atoms: S_8  and  C_9 
REMARK    3  A    between atoms: C_9  and  C_10 
REMARK    4  A    between atoms: C_18  and  C_19 
REMARK    5  A    between atoms: C_26  and  C_27 
REMARK    6  A    between atoms: C_27  and  O_28 
ROOT
HETATM    1  C   UNL     1      37.969 -13.591  -0.614  1.00  0.00     0.070 C 
HETATM    2  C   UNL     1      39.177 -13.891   0.238  1.00  0.00     0.037 A 
HETATM    3  N   UNL     1      39.769 -15.135   0.047  1.00  0.00    -0.192 N 
HETATM    4  C   UNL     1      40.940 -15.485   0.614  1.00  0.00     0.726 A 
HETATM    5  N   UNL     1      41.518 -14.649   1.531  1.00  0.00    -0.082 N 
HETATM    6  N   UNL     1      42.705 -15.127   1.949  1.00  0.00    -0.128 NA
HETATM    7  C   UNL     1      42.770 -16.275   1.265  1.00  0.00     0.226 A 
HETATM    8  N   UNL     1      41.703 -16.531   0.437  1.00  0.00    -0.035 NA
HETATM    9  C   UNL     1      40.939 -13.368   1.962  1.00  0.00     0.204 A 
HETATM   10  C   UNL     1      39.719 -13.019   1.122  1.00  0.00     0.070 A 
HETATM   11  H   UNL     1      39.375 -15.737  -0.671  1.00  0.00     0.184 HD
ENDROOT
BRANCH   7  12
HETATM   12  S   UNL     1      44.126 -17.352   1.442  1.00  0.00    -0.083 SA
BRANCH  12  13
HETATM   13  C   UNL     1      43.741 -18.065   3.064  1.00  0.00     0.123 C 
BRANCH  13  14
HETATM   14  C   UNL     1      44.033 -19.547   3.108  1.00  0.00    -0.027 A 
HETATM   15  C   UNL     1      44.545 -20.190   4.247  1.00  0.00     0.041 A 
HETATM   16 CL   UNL     1      44.907 -19.330   5.701  1.00  0.00    -0.084 Cl
HETATM   17  C   UNL     1      44.785 -21.569   4.236  1.00  0.00     0.024 A 
HETATM   18  C   UNL     1      44.514 -22.322   3.095  1.00  0.00     0.002 A 
HETATM   19  C   UNL     1      44.000 -21.700   1.961  1.00  0.00     0.001 A 
HETATM   20  C   UNL     1      43.757 -20.325   1.968  1.00  0.00     0.009 A 
ENDBRANCH  13  14
ENDBRANCH  12  13
ENDBRANCH   7  12
BRANCH   9  21
HETATM   21  C   UNL     1      40.612 -13.423   3.454  1.00  0.00    -0.006 A 
HETATM   22  C   UNL     1      40.800 -12.323   4.310  1.00  0.00     0.042 A 
HETATM   23 CL   UNL     1      41.404 -10.805   3.750  1.00  0.00    -0.084 Cl
HETATM   24  C   UNL     1      40.483 -12.414   5.671  1.00  0.00     0.024 A 
HETATM   25  C   UNL     1      39.974 -13.597   6.201  1.00  0.00     0.002 A 
HETATM   26  C   UNL     1      39.773 -14.695   5.372  1.00  0.00     0.001 A 
HETATM   27  C   UNL     1      40.086 -14.610   4.014  1.00  0.00     0.011 A 
ENDBRANCH   9  21
BRANCH  10  28
HETATM   28  C   UNL     1      39.146 -11.677   1.323  1.00  0.00     0.293 C 
HETATM   29  O   UNL     1      38.112 -11.449   1.928  1.00  0.00    -0.259 OA
BRANCH  28  30
HETATM   30  O   UNL     1      39.930 -10.770   0.694  1.00  0.00    -0.323 OA
HETATM   31  C   UNL     1      39.379 -10.265  -0.523  1.00  0.00     0.213 C 
ENDBRANCH  28  30
ENDBRANCH  10  28
TORSDOF 6
ENDMDL
MODEL 7
REMARK VINA RESULT:      -7.6      2.767      3.609
REMARK  6 active torsions:
REMARK  status: ('A' for Active; 'I' for Inactive)
REMARK    1  A    between atoms: C_7  and  S_8 
REMARK    2  A    between atoms: S_8  and  C_9 
REMARK    3  A    between atoms: C_9  and  C_10 
REMARK    4  A    between atoms: C_18  and  C_19 
REMARK    5  A    between atoms: C_26  and  C_27 
REMARK    6  A    between atoms: C_27  and  O_28 
ROOT
HETATM    1  C   UNL     1      39.681 -14.021  -1.176  1.00  0.00     0.070 C 
HETATM    2  C   UNL     1      40.602 -14.528  -0.094  1.00  0.00     0.037 A 
HETATM    3  N   UNL     1      40.880 -15.891  -0.113  1.00  0.00    -0.192 N 
HETATM    4  C   UNL     1      41.803 -16.463   0.684  1.00  0.00     0.726 A 
HETATM    5  N   UNL     1      42.405 -15.713   1.658  1.00  0.00    -0.082 N 
HETATM    6  N   UNL     1      43.338 -16.426   2.318  1.00  0.00    -0.128 NA
HETATM    7  C   UNL     1      43.226 -17.612   1.709  1.00  0.00     0.226 A 
HETATM    8  N   UNL     1      42.292 -17.674   0.702  1.00  0.00    -0.035 NA
HETATM    9  C   UNL     1      42.108 -14.296   1.914  1.00  0.00     0.204 A 
HETATM   10  C   UNL     1      41.185 -13.738   0.839  1.00  0.00     0.070 A 
HETATM   11  H   UNL     1      40.478 -16.441  -0.868  1.00  0.00     0.184 HD
ENDROOT
BRANCH   7  12
HETATM   12  S   UNL     1      44.207 -18.966   2.191  1.00  0.00    -0.083 SA
BRANCH  12  13
HETATM   13  C   UNL     1      43.287 -19.506   3.657  1.00  0.00     0.123 C 
BRANCH  13  14
HETATM   14  C   UNL     1      43.603 -18.653   4.863  1.00  0.00    -0.027 A 
HETATM   15  C   UNL     1      42.673 -17.775   5.444  1.00  0.00     0.041 A 
HETATM   16 CL   UNL     1      41.078 -17.580   4.809  1.00  0.00    -0.084 Cl
HETATM   17  C   UNL     1      43.017 -17.019   6.570  1.00  0.00     0.024 A 
HETATM   18  C   UNL     1      44.288 -17.129   7.131  1.00  0.00     0.002 A 
HETATM   19  C   UNL     1      45.219 -18.000   6.572  1.00  0.00     0.001 A 
HETATM   20  C   UNL     1      44.879 -18.759   5.450  1.00  0.00     0.009 A 
ENDBRANCH  13  14
ENDBRANCH  12  13
ENDBRANCH   7  12
BRANCH   9  21
HETATM   21  C   UNL     1      41.520 -14.135   3.316  1.00  0.00    -0.006 A 
HETATM   22  C   UNL     1      42.317 -13.868   4.442  1.00  0.00     0.042 A 
HETATM   23 CL   UNL     1      44.033 -13.685   4.343  1.00  0.00    -0.084 Cl
HETATM   24  C   UNL     1      41.739 -13.722   5.709  1.00  0.00     0.024 A 
HETATM   25  C   UNL     1      40.361 -13.837   5.875  1.00  0.00     0.002 A 
HETATM   26  C   UNL     1      39.552 -14.094   4.773  1.00  0.00     0.001 A 
HETATM   27  C   UNL     1      40.124 -14.239   3.507  1.00  0.00     0.011 A 
ENDBRANCH   9  21
BRANCH  10  28
HETATM   28  C   UNL     1      40.949 -12.283   0.868  1.00  0.00     0.293 C 
HETATM   29  O   UNL     1      39.920 -11.757   1.254  1.00  0.00    -0.259 OA
BRANCH  28  30
HETATM   30  O   UNL     1      42.037 -11.656   0.360  1.00  0.00    -0.323 OA
HETATM   31  C   UNL     1      41.736 -10.693  -0.650  1.00  0.00     0.213 C 
ENDBRANCH  28  30
ENDBRANCH  10  28
TORSDOF 6
ENDMDL
MODEL 8
REMARK VINA RESULT:      -7.5      6.585      8.827
REMARK  6 active torsions:
REMARK  status: ('A' for Active; 'I' for Inactive)
REMARK    1  A    between atoms: C_7  and  S_8 
REMARK    2  A    between atoms: S_8  and  C_9 
REMARK    3  A    between atoms: C_9  and  C_10 
REMARK    4  A    between atoms: C_18  and  C_19 
REMARK    5  A    between atoms: C_26  and  C_27 
REMARK    6  A    between atoms: C_27  and  O_28 
ROOT
HETATM    1  C   UNL     1      41.595 -12.267   1.376  1.00  0.00     0.070 C 
HETATM    2  C   UNL     1      41.474 -12.313   2.879  1.00  0.00     0.037 A 
HETATM    3  N   UNL     1      41.613 -11.099   3.543  1.00  0.00    -0.192 N 
HETATM    4  C   UNL     1      41.374 -10.952   4.861  1.00  0.00     0.726 A 
HETATM    5  N   UNL     1      41.118 -12.059   5.624  1.00  0.00    -0.082 N 
HETATM    6  N   UNL     1      40.846 -11.723   6.899  1.00  0.00    -0.128 NA
HETATM    7  C   UNL     1      40.986 -10.394   6.844  1.00  0.00     0.226 A 
HETATM    8  N   UNL     1      41.312  -9.883   5.611  1.00  0.00    -0.035 NA
HETATM    9  C   UNL     1      41.091 -13.434   5.103  1.00  0.00     0.204 A 
HETATM   10  C   UNL     1      41.203 -13.436   3.585  1.00  0.00     0.070 A 
HETATM   11  H   UNL     1      41.750 -10.266   2.976  1.00  0.00     0.184 HD
ENDROOT
BRANCH   7  12
HETATM   12  S   UNL     1      40.769  -9.408   8.262  1.00  0.00    -0.083 SA
BRANCH  12  13
HETATM   13  C   UNL     1      40.748 -10.701   9.534  1.00  0.00     0.123 C 
BRANCH  13  14
HETATM   14  C   UNL     1      41.786 -10.452  10.603  1.00  0.00    -0.027 A 
HETATM   15  C   UNL     1      43.145 -10.762  10.435  1.00  0.00     0.041 A 
HETATM   16 CL   UNL     1      43.749 -11.480   8.984  1.00  0.00    -0.084 Cl
HETATM   17  C   UNL     1      44.066 -10.498  11.456  1.00  0.00     0.024 A 
HETATM   18  C   UNL     1      43.644  -9.920  12.652  1.00  0.00     0.002 A 
HETATM   19  C   UNL     1      42.301  -9.600  12.831  1.00  0.00     0.001 A 
HETATM   20  C   UNL     1      41.380  -9.861  11.815  1.00  0.00     0.009 A 
ENDBRANCH  13  14
ENDBRANCH  12  13
ENDBRANCH   7  12
BRANCH   9  21
HETATM   21  C   UNL     1      42.196 -14.259   5.761  1.00  0.00    -0.006 A 
HETATM   22  C   UNL     1      41.979 -15.560   6.250  1.00  0.00     0.042 A 
HETATM   23 CL   UNL     1      40.446 -16.349   6.138  1.00  0.00    -0.084 Cl
HETATM   24  C   UNL     1      43.020 -16.284   6.842  1.00  0.00     0.024 A 
HETATM   25  C   UNL     1      44.293 -15.729   6.956  1.00  0.00     0.002 A 
HETATM   26  C   UNL     1      44.532 -14.447   6.474  1.00  0.00     0.001 A 
HETATM   27  C   UNL     1      43.498 -13.721   5.880  1.00  0.00     0.011 A 
ENDBRANCH   9  21
BRANCH  10  28
HETATM   28  C   UNL     1      41.007 -14.734   2.915  1.00  0.00     0.293 C 
HETATM   29  O   UNL     1      41.893 -15.374   2.374  1.00  0.00    -0.259 OA
BRANCH  28  30
HETATM   30  O   UNL     1      39.693 -15.058   2.968  1.00  0.00    -0.323 OA
HETATM   31  C   UNL     1      39.015 -14.953   1.716  1.00  0.00     0.213 C 
ENDBRANCH  28  30
ENDBRANCH  10  28
TORSDOF 6
ENDMDL
MODEL 9
REMARK VINA RESULT:      -7.3      1.835      2.331
REMARK  6 active torsions:
REMARK  status: ('A' for Active; 'I' for Inactive)
REMARK    1  A    between atoms: C_7  and  S_8 
REMARK    2  A    between atoms: S_8  and  C_9 
REMARK    3  A    between atoms: C_9  and  C_10 
REMARK    4  A    between atoms: C_18  and  C_19 
REMARK    5  A    between atoms: C_26  and  C_27 
REMARK    6  A    between atoms: C_27  and  O_28 
ROOT
HETATM    1  C   UNL     1      40.644 -14.709  -1.954  1.00  0.00     0.070 C 
HETATM    2  C   UNL     1      40.902 -14.758  -0.468  1.00  0.00     0.037 A 
HETATM    3  N   UNL     1      40.711 -15.991   0.147  1.00  0.00    -0.192 N 
HETATM    4  C   UNL     1      41.051 -16.233   1.428  1.00  0.00     0.726 A 
HETATM    5  N   UNL     1      41.475 -15.197   2.217  1.00  0.00    -0.082 N 
HETATM    6  N   UNL     1      41.827 -15.627   3.443  1.00  0.00    -0.128 NA
HETATM    7  C   UNL     1      41.561 -16.934   3.337  1.00  0.00     0.226 A 
HETATM    8  N   UNL     1      41.081 -17.343   2.116  1.00  0.00    -0.035 NA
HETATM    9  C   UNL     1      41.582 -13.802   1.763  1.00  0.00     0.204 A 
HETATM   10  C   UNL     1      41.337 -13.705   0.263  1.00  0.00     0.070 A 
HETATM   11  H   UNL     1      40.449 -16.776  -0.444  1.00  0.00     0.184 HD
ENDROOT
BRANCH   7  12
HETATM   12  S   UNL     1      41.811 -18.013   4.679  1.00  0.00    -0.083 SA
BRANCH  12  13
HETATM   13  C   UNL     1      43.614 -18.197   4.593  1.00  0.00     0.123 C 
BRANCH  13  14
HETATM   14  C   UNL     1      44.021 -19.632   4.358  1.00  0.00    -0.027 A 
HETATM   15  C   UNL     1      44.110 -20.201   3.077  1.00  0.00     0.041 A 
HETATM   16 CL   UNL     1      43.738 -19.303   1.648  1.00  0.00    -0.084 Cl
HETATM   17  C   UNL     1      44.505 -21.534   2.917  1.00  0.00     0.024 A 
HETATM   18  C   UNL     1      44.820 -22.313   4.029  1.00  0.00     0.002 A 
HETATM   19  C   UNL     1      44.743 -21.762   5.305  1.00  0.00     0.001 A 
HETATM   20  C   UNL     1      44.351 -20.432   5.469  1.00  0.00     0.009 A 
ENDBRANCH  13  14
ENDBRANCH  12  13
ENDBRANCH   7  12
BRANCH   9  21
HETATM   21  C   UNL     1      40.620 -12.922   2.561  1.00  0.00    -0.006 A 
HETATM   22  C   UNL     1      40.976 -12.333   3.786  1.00  0.00     0.042 A 
HETATM   23 CL   UNL     1      42.538 -12.540   4.497  1.00  0.00    -0.084 Cl
HETATM   24  C   UNL     1      40.067 -11.530   4.484  1.00  0.00     0.024 A 
HETATM   25  C   UNL     1      38.792 -11.297   3.974  1.00  0.00     0.002 A 
HETATM   26  C   UNL     1      38.421 -11.863   2.759  1.00  0.00     0.001 A 
HETATM   27  C   UNL     1      39.324 -12.665   2.058  1.00  0.00     0.011 A 
ENDBRANCH   9  21
BRANCH  10  28
HETATM   28  C   UNL     1      41.591 -12.393  -0.359  1.00  0.00     0.293 C 
HETATM   29  O   UNL     1      42.678 -11.844  -0.396  1.00  0.00    -0.259 OA
BRANCH  28  30
HETATM   30  O   UNL     1      40.420 -11.901  -0.829  1.00  0.00    -0.323 OA
HETATM   31  C   UNL     1      40.319 -10.478  -0.768  1.00  0.00     0.213 C 
ENDBRANCH  28  30
ENDBRANCH  10  28
TORSDOF 6
ENDMDL
MODEL 10
REMARK VINA RESULT:      -7.2      5.927      8.326
REMARK  6 active torsions:
REMARK  status: ('A' for Active; 'I' for Inactive)
REMARK    1  A    between atoms: C_7  and  S_8 
REMARK    2  A    between atoms: S_8  and  C_9 
REMARK    3  A    between atoms: C_9  and  C_10 
REMARK    4  A    between atoms: C_18  and  C_19 
REMARK    5  A    between atoms: C_26  and  C_27 
REMARK    6  A    between atoms: C_27  and  O_28 
ROOT
HETATM    1  C   UNL     1      42.010 -13.090   1.284  1.00  0.00     0.070 C 
HETATM    2  C   UNL     1      41.683 -13.123   2.757  1.00  0.00     0.037 A 
HETATM    3  N   UNL     1      41.655 -11.894   3.407  1.00  0.00    -0.192 N 
HETATM    4  C   UNL     1      41.225 -11.745   4.675  1.00  0.00     0.726 A 
HETATM    5  N   UNL     1      40.932 -12.856   5.420  1.00  0.00    -0.082 N 
HETATM    6  N   UNL     1      40.465 -12.521   6.637  1.00  0.00    -0.128 NA
HETATM    7  C   UNL     1      40.531 -11.186   6.573  1.00  0.00     0.226 A 
HETATM    8  N   UNL     1      40.995 -10.673   5.386  1.00  0.00    -0.035 NA
HETATM    9  C   UNL     1      41.060 -14.237   4.930  1.00  0.00     0.204 A 
HETATM   10  C   UNL     1      41.383 -14.252   3.443  1.00  0.00     0.070 A 
HETATM   11  H   UNL     1      41.819 -11.062   2.847  1.00  0.00     0.184 HD
ENDROOT
BRANCH   7  12
HETATM   12  S   UNL     1      40.058 -10.197   7.925  1.00  0.00    -0.083 SA
BRANCH  12  13
HETATM   13  C   UNL     1      41.665  -9.471   8.350  1.00  0.00     0.123 C 
BRANCH  13  14
HETATM   14  C   UNL     1      42.466 -10.375   9.258  1.00  0.00    -0.027 A 
HETATM   15  C   UNL     1      42.243 -10.460  10.642  1.00  0.00     0.041 A 
HETATM   16 CL   UNL     1      41.035  -9.513  11.434  1.00  0.00    -0.084 Cl
HETATM   17  C   UNL     1      43.007 -11.325  11.433  1.00  0.00     0.024 A 
HETATM   18  C   UNL     1      43.999 -12.116  10.856  1.00  0.00     0.002 A 
HETATM   19  C   UNL     1      44.227 -12.049   9.484  1.00  0.00     0.001 A 
HETATM   20  C   UNL     1      43.466 -11.189   8.691  1.00  0.00     0.009 A 
ENDBRANCH  13  14
ENDBRANCH  12  13
ENDBRANCH   7  12
BRANCH   9  21
HETATM   21  C   UNL     1      42.110 -14.983   5.754  1.00  0.00    -0.006 A 
HETATM   22  C   UNL     1      41.841 -16.207   6.390  1.00  0.00     0.042 A 
HETATM   23 CL   UNL     1      40.303 -16.987   6.289  1.00  0.00    -0.084 Cl
HETATM   24  C   UNL     1      42.833 -16.861   7.132  1.00  0.00     0.024 A 
HETATM   25  C   UNL     1      44.106 -16.309   7.250  1.00  0.00     0.002 A 
HETATM   26  C   UNL     1      44.397 -15.103   6.623  1.00  0.00     0.001 A 
HETATM   27  C   UNL     1      43.412 -14.447   5.881  1.00  0.00     0.011 A 
ENDBRANCH   9  21
BRANCH  10  28
HETATM   28  C   UNL     1      41.362 -15.569   2.781  1.00  0.00     0.293 C 
HETATM   29  O   UNL     1      40.349 -16.185   2.499  1.00  0.00    -0.259 OA
BRANCH  28  30
HETATM   30  O   UNL     1      42.638 -15.979   2.586  1.00  0.00    -0.323 OA
HETATM   31  C   UNL     1      42.859 -16.623   1.331  1.00  0.00     0.213 C 
ENDBRANCH  28  30
ENDBRANCH  10  28
TORSDOF 6
ENDMDL
