MODEL 1
REMARK VINA RESULT:      -8.7      0.000      0.000
REMARK  6 active torsions:
REMARK  status: ('A' for Active; 'I' for Inactive)
REMARK    1  A    between atoms: N_4  and  C_5 
REMARK    2  A    between atoms: C_14  and  C_15 
REMARK       I    between atoms: C_15  and  N_16 
REMARK    3  A    between atoms: N_16  and  C_17 
REMARK    4  A    between atoms: C_17  and  C_18 
REMARK    5  A    between atoms: C_18  and  O_19 
REMARK    6  A    between atoms: C_18  and  C_20 
ROOT
HETATM    1  C   UNL     1      41.299 -14.547   0.260  1.00  0.00     0.255 C 
HETATM    2  N   UNL     1      42.103 -14.268  -0.823  1.00  0.00    -0.354 N 
HETATM    3  O   UNL     1      40.151 -14.122   0.344  1.00  0.00    -0.268 OA
HETATM    4  H   UNL     1      43.090 -14.436  -0.698  1.00  0.00     0.162 HD
ENDROOT
BRANCH   1   5
HETATM    5  C   UNL     1      41.911 -15.332   1.329  1.00  0.00     0.082 C 
HETATM    6  C   UNL     1      42.615 -14.800   2.441  1.00  0.00     0.069 C 
HETATM    7  C   UNL     1      42.884 -13.374   2.763  1.00  0.00     0.073 C 
HETATM    8  N   UNL     1      43.042 -15.754   3.266  1.00  0.00    -0.171 NA
HETATM    9  N   UNL     1      42.725 -16.924   2.662  1.00  0.00    -0.237 N 
HETATM   10  C   UNL     1      41.888 -16.708   1.567  1.00  0.00     0.050 C 
HETATM   11  C   UNL     1      41.074 -17.775   0.925  1.00  0.00     0.071 C 
BRANCH   9  12
HETATM   12  C   UNL     1      43.266 -18.135   3.195  1.00  0.00     0.058 A 
HETATM   13  C   UNL     1      43.215 -18.348   4.585  1.00  0.00     0.033 A 
HETATM   14  C   UNL     1      43.749 -19.508   5.150  1.00  0.00     0.021 A 
HETATM   15  C   UNL     1      44.357 -20.455   4.331  1.00  0.00     0.011 A 
HETATM   16 BR   UNL     1      45.093 -22.022   5.091  1.00  0.00    -0.051 Br
HETATM   17  C   UNL     1      44.439 -20.248   2.956  1.00  0.00     0.021 A 
HETATM   18  C   UNL     1      43.897 -19.088   2.387  1.00  0.00     0.033 A 
ENDBRANCH   9  12
ENDBRANCH   1   5
BRANCH   2  19
HETATM   19  C   UNL     1      41.750 -13.290  -1.852  1.00  0.00     0.159 C 
BRANCH  19  20
HETATM   20  C   UNL     1      41.492 -13.856  -3.270  1.00  0.00     0.169 C 
BRANCH  20  21
HETATM   21  O   UNL     1      42.200 -15.081  -3.465  1.00  0.00    -0.389 OA
HETATM   22  H   UNL     1      42.867 -14.896  -4.162  1.00  0.00     0.210 HD
ENDBRANCH  20  21
BRANCH  20  23
HETATM   23  C   UNL     1      40.021 -14.158  -3.483  1.00  0.00    -0.028 A 
HETATM   24  C   UNL     1      39.607 -15.455  -3.831  1.00  0.00     0.013 A 
HETATM   25  C   UNL     1      38.255 -15.736  -4.034  1.00  0.00     0.043 A 
HETATM   26  C   UNL     1      37.313 -14.723  -3.891  1.00  0.00     0.116 A 
HETATM   27  F   UNL     1      36.017 -14.996  -4.086  1.00  0.00    -0.206 F 
HETATM   28  C   UNL     1      37.697 -13.434  -3.546  1.00  0.00     0.043 A 
HETATM   29  C   UNL     1      39.047 -13.152  -3.341  1.00  0.00     0.013 A 
ENDBRANCH  20  23
ENDBRANCH  19  20
ENDBRANCH   2  19
TORSDOF 6
ENDMDL
MODEL 2
REMARK VINA RESULT:      -8.3      5.026      9.518
REMARK  6 active torsions:
REMARK  status: ('A' for Active; 'I' for Inactive)
REMARK    1  A    between atoms: N_4  and  C_5 
REMARK    2  A    between atoms: C_14  and  C_15 
REMARK       I    between atoms: C_15  and  N_16 
REMARK    3  A    between atoms: N_16  and  C_17 
REMARK    4  A    between atoms: C_17  and  C_18 
REMARK    5  A    between atoms: C_18  and  O_19 
REMARK    6  A    between atoms: C_18  and  C_20 
ROOT
HETATM    1  C   UNL     1      42.443 -16.264   5.193  1.00  0.00     0.255 C 
HETATM    2  N   UNL     1      42.051 -17.259   6.061  1.00  0.00    -0.354 N 
HETATM    3  O   UNL     1      43.317 -15.454   5.485  1.00  0.00    -0.268 OA
HETATM    4  H   UNL     1      41.173 -17.711   5.851  1.00  0.00     0.162 HD
ENDROOT
BRANCH   1   5
HETATM    5  C   UNL     1      41.720 -16.194   3.926  1.00  0.00     0.082 C 
HETATM    6  C   UNL     1      41.821 -17.136   2.869  1.00  0.00     0.069 C 
HETATM    7  C   UNL     1      42.657 -18.364   2.806  1.00  0.00     0.073 C 
HETATM    8  N   UNL     1      41.026 -16.827   1.845  1.00  0.00    -0.171 NA
HETATM    9  N   UNL     1      40.476 -15.631   2.163  1.00  0.00    -0.237 N 
HETATM   10  C   UNL     1      40.742 -15.298   3.491  1.00  0.00     0.050 C 
HETATM   11  C   UNL     1      39.992 -14.260   4.249  1.00  0.00     0.071 C 
BRANCH   9  12
HETATM   12  C   UNL     1      39.754 -14.923   1.153  1.00  0.00     0.058 A 
HETATM   13  C   UNL     1      40.423 -14.557  -0.030  1.00  0.00     0.033 A 
HETATM   14  C   UNL     1      39.761 -13.847  -1.035  1.00  0.00     0.021 A 
HETATM   15  C   UNL     1      38.431 -13.480  -0.856  1.00  0.00     0.011 A 
HETATM   16 BR   UNL     1      37.533 -12.509  -2.206  1.00  0.00    -0.051 Br
HETATM   17  C   UNL     1      37.761 -13.812   0.320  1.00  0.00     0.021 A 
HETATM   18  C   UNL     1      38.421 -14.531   1.325  1.00  0.00     0.033 A 
ENDBRANCH   9  12
ENDBRANCH   1   5
BRANCH   2  19
HETATM   19  C   UNL     1      42.477 -17.318   7.459  1.00  0.00     0.159 C 
BRANCH  19  20
HETATM   20  C   UNL     1      43.894 -17.886   7.717  1.00  0.00     0.169 C 
BRANCH  20  21
HETATM   21  O   UNL     1      44.044 -18.276   9.082  1.00  0.00    -0.389 OA
HETATM   22  H   UNL     1      44.038 -17.442   9.601  1.00  0.00     0.210 HD
ENDBRANCH  20  21
BRANCH  20  23
HETATM   23  C   UNL     1      44.154 -19.120   6.874  1.00  0.00    -0.028 A 
HETATM   24  C   UNL     1      44.882 -19.021   5.677  1.00  0.00     0.013 A 
HETATM   25  C   UNL     1      45.118 -20.153   4.895  1.00  0.00     0.043 A 
HETATM   26  C   UNL     1      44.628 -21.386   5.307  1.00  0.00     0.116 A 
HETATM   27  F   UNL     1      44.856 -22.471   4.555  1.00  0.00    -0.206 F 
HETATM   28  C   UNL     1      43.907 -21.511   6.488  1.00  0.00     0.043 A 
HETATM   29  C   UNL     1      43.673 -20.382   7.271  1.00  0.00     0.013 A 
ENDBRANCH  20  23
ENDBRANCH  19  20
ENDBRANCH   2  19
TORSDOF 6
ENDMDL
MODEL 3
REMARK VINA RESULT:      -8.1      4.816      9.257
REMARK  6 active torsions:
REMARK  status: ('A' for Active; 'I' for Inactive)
REMARK    1  A    between atoms: N_4  and  C_5 
REMARK    2  A    between atoms: C_14  and  C_15 
REMARK       I    between atoms: C_15  and  N_16 
REMARK    3  A    between atoms: N_16  and  C_17 
REMARK    4  A    between atoms: C_17  and  C_18 
REMARK    5  A    between atoms: C_18  and  O_19 
REMARK    6  A    between atoms: C_18  and  C_20 
ROOT
HETATM    1  C   UNL     1      41.452 -15.600   0.897  1.00  0.00     0.255 C 
HETATM    2  N   UNL     1      41.224 -16.938   1.135  1.00  0.00    -0.354 N 
HETATM    3  O   UNL     1      42.462 -15.031   1.297  1.00  0.00    -0.268 OA
HETATM    4  H   UNL     1      40.277 -17.258   0.998  1.00  0.00     0.162 HD
ENDROOT
BRANCH   1   5
HETATM    5  C   UNL     1      40.394 -14.884   0.189  1.00  0.00     0.082 C 
HETATM    6  C   UNL     1      39.408 -14.062   0.796  1.00  0.00     0.069 C 
HETATM    7  C   UNL     1      39.229 -13.752   2.239  1.00  0.00     0.073 C 
HETATM    8  N   UNL     1      38.587 -13.519  -0.101  1.00  0.00    -0.171 NA
HETATM    9  N   UNL     1      38.947 -14.055  -1.292  1.00  0.00    -0.237 N 
HETATM   10  C   UNL     1      40.147 -14.757  -1.180  1.00  0.00     0.050 C 
HETATM   11  C   UNL     1      40.992 -15.142  -2.342  1.00  0.00     0.071 C 
BRANCH   9  12
HETATM   12  C   UNL     1      38.095 -13.845  -2.420  1.00  0.00     0.058 A 
HETATM   13  C   UNL     1      37.708 -12.531  -2.743  1.00  0.00     0.033 A 
HETATM   14  C   UNL     1      36.860 -12.281  -3.825  1.00  0.00     0.021 A 
HETATM   15  C   UNL     1      36.377 -13.345  -4.580  1.00  0.00     0.011 A 
HETATM   16 BR   UNL     1      35.221 -13.015  -6.038  1.00  0.00    -0.051 Br
HETATM   17  C   UNL     1      36.730 -14.655  -4.258  1.00  0.00     0.021 A 
HETATM   18  C   UNL     1      37.585 -14.906  -3.178  1.00  0.00     0.033 A 
ENDBRANCH   9  12
ENDBRANCH   1   5
BRANCH   2  19
HETATM   19  C   UNL     1      42.042 -17.741   2.044  1.00  0.00     0.159 C 
BRANCH  19  20
HETATM   20  C   UNL     1      43.314 -18.379   1.433  1.00  0.00     0.169 C 
BRANCH  20  21
HETATM   21  O   UNL     1      44.389 -17.439   1.406  1.00  0.00    -0.389 OA
HETATM   22  H   UNL     1      44.922 -17.618   2.211  1.00  0.00     0.210 HD
ENDBRANCH  20  21
BRANCH  20  23
HETATM   23  C   UNL     1      43.784 -19.564   2.254  1.00  0.00    -0.028 A 
HETATM   24  C   UNL     1      44.258 -19.377   3.563  1.00  0.00     0.013 A 
HETATM   25  C   UNL     1      44.699 -20.465   4.319  1.00  0.00     0.043 A 
HETATM   26  C   UNL     1      44.667 -21.741   3.770  1.00  0.00     0.116 A 
HETATM   27  F   UNL     1      45.089 -22.783   4.498  1.00  0.00    -0.206 F 
HETATM   28  C   UNL     1      44.201 -21.953   2.479  1.00  0.00     0.043 A 
HETATM   29  C   UNL     1      43.758 -20.867   1.723  1.00  0.00     0.013 A 
ENDBRANCH  20  23
ENDBRANCH  19  20
ENDBRANCH   2  19
TORSDOF 6
ENDMDL
MODEL 4
REMARK VINA RESULT:      -8.0      6.131      9.229
REMARK  6 active torsions:
REMARK  status: ('A' for Active; 'I' for Inactive)
REMARK    1  A    between atoms: N_4  and  C_5 
REMARK    2  A    between atoms: C_14  and  C_15 
REMARK       I    between atoms: C_15  and  N_16 
REMARK    3  A    between atoms: N_16  and  C_17 
REMARK    4  A    between atoms: C_17  and  C_18 
REMARK    5  A    between atoms: C_18  and  O_19 
REMARK    6  A    between atoms: C_18  and  C_20 
ROOT
HETATM    1  C   UNL     1      42.213 -12.993   5.410  1.00  0.00     0.255 C 
HETATM    2  N   UNL     1      41.692 -12.626   6.631  1.00  0.00    -0.354 N 
HETATM    3  O   UNL     1      42.199 -12.239   4.443  1.00  0.00    -0.268 OA
HETATM    4  H   UNL     1      41.517 -13.376   7.283  1.00  0.00     0.162 HD
ENDROOT
BRANCH   1   5
HETATM    5  C   UNL     1      42.736 -14.354   5.318  1.00  0.00     0.082 C 
HETATM    6  C   UNL     1      43.774 -14.892   6.122  1.00  0.00     0.069 C 
HETATM    7  C   UNL     1      44.543 -14.222   7.203  1.00  0.00     0.073 C 
HETATM    8  N   UNL     1      44.023 -16.168   5.830  1.00  0.00    -0.171 NA
HETATM    9  N   UNL     1      43.238 -16.455   4.765  1.00  0.00    -0.237 N 
HETATM   10  C   UNL     1      42.320 -15.431   4.533  1.00  0.00     0.050 C 
HETATM   11  C   UNL     1      41.098 -15.589   3.697  1.00  0.00     0.071 C 
BRANCH   9  12
HETATM   12  C   UNL     1      43.454 -17.686   4.070  1.00  0.00     0.058 A 
HETATM   13  C   UNL     1      44.009 -18.772   4.771  1.00  0.00     0.033 A 
HETATM   14  C   UNL     1      44.256 -19.987   4.126  1.00  0.00     0.021 A 
HETATM   15  C   UNL     1      43.968 -20.118   2.771  1.00  0.00     0.011 A 
HETATM   16 BR   UNL     1      44.310 -21.754   1.890  1.00  0.00    -0.051 Br
HETATM   17  C   UNL     1      43.441 -19.043   2.056  1.00  0.00     0.021 A 
HETATM   18  C   UNL     1      43.187 -17.827   2.703  1.00  0.00     0.033 A 
ENDBRANCH   9  12
ENDBRANCH   1   5
BRANCH   2  19
HETATM   19  C   UNL     1      40.901 -11.411   6.831  1.00  0.00     0.159 C 
BRANCH  19  20
HETATM   20  C   UNL     1      41.621 -10.238   7.540  1.00  0.00     0.169 C 
BRANCH  20  21
HETATM   21  O   UNL     1      40.743  -9.122   7.694  1.00  0.00    -0.389 OA
HETATM   22  H   UNL     1      41.034  -8.663   8.513  1.00  0.00     0.210 HD
ENDBRANCH  20  21
BRANCH  20  23
HETATM   23  C   UNL     1      42.081 -10.633   8.930  1.00  0.00    -0.028 A 
HETATM   24  C   UNL     1      41.178 -10.619  10.007  1.00  0.00     0.013 A 
HETATM   25  C   UNL     1      41.600 -10.975  11.289  1.00  0.00     0.043 A 
HETATM   26  C   UNL     1      42.923 -11.345  11.499  1.00  0.00     0.116 A 
HETATM   27  F   UNL     1      43.324 -11.687  12.731  1.00  0.00    -0.206 F 
HETATM   28  C   UNL     1      43.834 -11.369  10.452  1.00  0.00     0.043 A 
HETATM   29  C   UNL     1      43.415 -11.016   9.169  1.00  0.00     0.013 A 
ENDBRANCH  20  23
ENDBRANCH  19  20
ENDBRANCH   2  19
TORSDOF 6
ENDMDL
MODEL 5
REMARK VINA RESULT:      -8.0      4.630      8.593
REMARK  6 active torsions:
REMARK  status: ('A' for Active; 'I' for Inactive)
REMARK    1  A    between atoms: N_4  and  C_5 
REMARK    2  A    between atoms: C_14  and  C_15 
REMARK       I    between atoms: C_15  and  N_16 
REMARK    3  A    between atoms: N_16  and  C_17 
REMARK    4  A    between atoms: C_17  and  C_18 
REMARK    5  A    between atoms: C_18  and  O_19 
REMARK    6  A    between atoms: C_18  and  C_20 
ROOT
HETATM    1  C   UNL     1      41.261 -16.389   4.976  1.00  0.00     0.255 C 
HETATM    2  N   UNL     1      42.490 -16.996   4.841  1.00  0.00    -0.354 N 
HETATM    3  O   UNL     1      40.519 -16.624   5.923  1.00  0.00    -0.268 OA
HETATM    4  H   UNL     1      42.914 -16.942   3.927  1.00  0.00     0.162 HD
ENDROOT
BRANCH   1   5
HETATM    5  C   UNL     1      40.868 -15.488   3.894  1.00  0.00     0.082 C 
HETATM    6  C   UNL     1      40.818 -14.072   3.981  1.00  0.00     0.069 C 
HETATM    7  C   UNL     1      41.140 -13.209   5.147  1.00  0.00     0.073 C 
HETATM    8  N   UNL     1      40.447 -13.513   2.830  1.00  0.00    -0.171 NA
HETATM    9  N   UNL     1      40.144 -14.545   2.008  1.00  0.00    -0.237 N 
HETATM   10  C   UNL     1      40.548 -15.760   2.563  1.00  0.00     0.050 C 
HETATM   11  C   UNL     1      40.700 -17.017   1.781  1.00  0.00     0.071 C 
BRANCH   9  12
HETATM   12  C   UNL     1      39.487 -14.262   0.770  1.00  0.00     0.058 A 
HETATM   13  C   UNL     1      40.259 -14.161  -0.401  1.00  0.00     0.033 A 
HETATM   14  C   UNL     1      39.661 -13.865  -1.629  1.00  0.00     0.021 A 
HETATM   15  C   UNL     1      38.288 -13.649  -1.691  1.00  0.00     0.011 A 
HETATM   16 BR   UNL     1      37.474 -13.237  -3.345  1.00  0.00    -0.051 Br
HETATM   17  C   UNL     1      37.512 -13.720  -0.535  1.00  0.00     0.021 A 
HETATM   18  C   UNL     1      38.109 -14.023   0.695  1.00  0.00     0.033 A 
ENDBRANCH   9  12
ENDBRANCH   1   5
BRANCH   2  19
HETATM   19  C   UNL     1      42.929 -18.110   5.682  1.00  0.00     0.159 C 
BRANCH  19  20
HETATM   20  C   UNL     1      44.318 -18.709   5.349  1.00  0.00     0.169 C 
BRANCH  20  21
HETATM   21  O   UNL     1      44.838 -19.436   6.463  1.00  0.00    -0.389 OA
HETATM   22  H   UNL     1      44.079 -19.570   7.072  1.00  0.00     0.210 HD
ENDBRANCH  20  21
BRANCH  20  23
HETATM   23  C   UNL     1      44.235 -19.680   4.188  1.00  0.00    -0.028 A 
HETATM   24  C   UNL     1      43.666 -19.280   2.967  1.00  0.00     0.013 A 
HETATM   25  C   UNL     1      43.582 -20.173   1.898  1.00  0.00     0.043 A 
HETATM   26  C   UNL     1      44.066 -21.468   2.045  1.00  0.00     0.116 A 
HETATM   27  F   UNL     1      43.985 -22.323   1.017  1.00  0.00    -0.206 F 
HETATM   28  C   UNL     1      44.635 -21.888   3.240  1.00  0.00     0.043 A 
HETATM   29  C   UNL     1      44.722 -20.996   4.309  1.00  0.00     0.013 A 
ENDBRANCH  20  23
ENDBRANCH  19  20
ENDBRANCH   2  19
TORSDOF 6
ENDMDL
MODEL 6
REMARK VINA RESULT:      -7.9      4.854      9.296
REMARK  6 active torsions:
REMARK  status: ('A' for Active; 'I' for Inactive)
REMARK    1  A    between atoms: N_4  and  C_5 
REMARK    2  A    between atoms: C_14  and  C_15 
REMARK       I    between atoms: C_15  and  N_16 
REMARK    3  A    between atoms: N_16  and  C_17 
REMARK    4  A    between atoms: C_17  and  C_18 
REMARK    5  A    between atoms: C_18  and  O_19 
REMARK    6  A    between atoms: C_18  and  C_20 
ROOT
HETATM    1  C   UNL     1      41.623 -15.906   0.684  1.00  0.00     0.255 C 
HETATM    2  N   UNL     1      42.866 -16.496   0.631  1.00  0.00    -0.354 N 
HETATM    3  O   UNL     1      40.679 -16.427   1.268  1.00  0.00    -0.268 OA
HETATM    4  H   UNL     1      43.500 -16.137  -0.066  1.00  0.00     0.162 HD
ENDROOT
BRANCH   1   5
HETATM    5  C   UNL     1      41.479 -14.648  -0.045  1.00  0.00     0.082 C 
HETATM    6  C   UNL     1      41.718 -13.355   0.491  1.00  0.00     0.069 C 
HETATM    7  C   UNL     1      42.153 -12.994   1.865  1.00  0.00     0.073 C 
HETATM    8  N   UNL     1      41.528 -12.396  -0.413  1.00  0.00    -0.171 NA
HETATM    9  N   UNL     1      41.059 -13.025  -1.517  1.00  0.00    -0.237 N 
HETATM   10  C   UNL     1      41.176 -14.410  -1.387  1.00  0.00     0.050 C 
HETATM   11  C   UNL     1      41.103 -15.357  -2.533  1.00  0.00     0.071 C 
BRANCH   9  12
HETATM   12  C   UNL     1      40.537 -12.232  -2.585  1.00  0.00     0.058 A 
HETATM   13  C   UNL     1      39.147 -12.037  -2.669  1.00  0.00     0.033 A 
HETATM   14  C   UNL     1      38.592 -11.285  -3.708  1.00  0.00     0.021 A 
HETATM   15  C   UNL     1      39.422 -10.740  -4.682  1.00  0.00     0.011 A 
HETATM   16 BR   UNL     1      38.678  -9.733  -6.097  1.00  0.00    -0.051 Br
HETATM   17  C   UNL     1      40.800 -10.945  -4.628  1.00  0.00     0.021 A 
HETATM   18  C   UNL     1      41.358 -11.692  -3.583  1.00  0.00     0.033 A 
ENDBRANCH   9  12
ENDBRANCH   1   5
BRANCH   2  19
HETATM   19  C   UNL     1      43.121 -17.867   1.076  1.00  0.00     0.159 C 
BRANCH  19  20
HETATM   20  C   UNL     1      43.604 -18.031   2.538  1.00  0.00     0.169 C 
BRANCH  20  21
HETATM   21  O   UNL     1      42.580 -17.645   3.457  1.00  0.00    -0.389 OA
HETATM   22  H   UNL     1      42.859 -17.996   4.331  1.00  0.00     0.210 HD
ENDBRANCH  20  21
BRANCH  20  23
HETATM   23  C   UNL     1      43.952 -19.474   2.846  1.00  0.00    -0.028 A 
HETATM   24  C   UNL     1      43.710 -20.480   1.895  1.00  0.00     0.013 A 
HETATM   25  C   UNL     1      44.023 -21.811   2.177  1.00  0.00     0.043 A 
HETATM   26  C   UNL     1      44.577 -22.141   3.408  1.00  0.00     0.116 A 
HETATM   27  F   UNL     1      44.876 -23.419   3.675  1.00  0.00    -0.206 F 
HETATM   28  C   UNL     1      44.828 -21.165   4.364  1.00  0.00     0.043 A 
HETATM   29  C   UNL     1      44.518 -19.834   4.083  1.00  0.00     0.013 A 
ENDBRANCH  20  23
ENDBRANCH  19  20
ENDBRANCH   2  19
TORSDOF 6
ENDMDL
MODEL 7
REMARK VINA RESULT:      -7.8      6.644      9.861
REMARK  6 active torsions:
REMARK  status: ('A' for Active; 'I' for Inactive)
REMARK    1  A    between atoms: N_4  and  C_5 
REMARK    2  A    between atoms: C_14  and  C_15 
REMARK       I    between atoms: C_15  and  N_16 
REMARK    3  A    between atoms: N_16  and  C_17 
REMARK    4  A    between atoms: C_17  and  C_18 
REMARK    5  A    between atoms: C_18  and  O_19 
REMARK    6  A    between atoms: C_18  and  C_20 
ROOT
HETATM    1  C   UNL     1      41.856 -12.226   5.612  1.00  0.00     0.255 C 
HETATM    2  N   UNL     1      42.102 -12.070   6.959  1.00  0.00    -0.354 N 
HETATM    3  O   UNL     1      41.696 -11.268   4.865  1.00  0.00    -0.268 OA
HETATM    4  H   UNL     1      41.969 -12.890   7.533  1.00  0.00     0.162 HD
ENDROOT
BRANCH   1   5
HETATM    5  C   UNL     1      41.740 -13.603   5.136  1.00  0.00     0.082 C 
HETATM    6  C   UNL     1      40.603 -14.437   5.300  1.00  0.00     0.069 C 
HETATM    7  C   UNL     1      39.316 -14.117   5.970  1.00  0.00     0.073 C 
HETATM    8  N   UNL     1      40.776 -15.634   4.743  1.00  0.00    -0.171 NA
HETATM    9  N   UNL     1      42.057 -15.647   4.303  1.00  0.00    -0.237 N 
HETATM   10  C   UNL     1      42.620 -14.373   4.373  1.00  0.00     0.050 C 
HETATM   11  C   UNL     1      43.852 -13.971   3.641  1.00  0.00     0.071 C 
BRANCH   9  12
HETATM   12  C   UNL     1      42.615 -16.888   3.865  1.00  0.00     0.058 A 
HETATM   13  C   UNL     1      42.223 -17.406   2.617  1.00  0.00     0.033 A 
HETATM   14  C   UNL     1      42.728 -18.626   2.159  1.00  0.00     0.021 A 
HETATM   15  C   UNL     1      43.615 -19.345   2.954  1.00  0.00     0.011 A 
HETATM   16 BR   UNL     1      44.294 -21.000   2.345  1.00  0.00    -0.051 Br
HETATM   17  C   UNL     1      43.995 -18.858   4.203  1.00  0.00     0.021 A 
HETATM   18  C   UNL     1      43.494 -17.632   4.661  1.00  0.00     0.033 A 
ENDBRANCH   9  12
ENDBRANCH   1   5
BRANCH   2  19
HETATM   19  C   UNL     1      41.991 -10.785   7.650  1.00  0.00     0.159 C 
BRANCH  19  20
HETATM   20  C   UNL     1      40.854 -10.670   8.695  1.00  0.00     0.169 C 
BRANCH  20  21
HETATM   21  O   UNL     1      39.917 -11.738   8.546  1.00  0.00    -0.389 OA
HETATM   22  H   UNL     1      40.419 -12.561   8.732  1.00  0.00     0.210 HD
ENDBRANCH  20  21
BRANCH  20  23
HETATM   23  C   UNL     1      41.395 -10.751  10.109  1.00  0.00    -0.028 A 
HETATM   24  C   UNL     1      40.524 -10.962  11.191  1.00  0.00     0.013 A 
HETATM   25  C   UNL     1      41.017 -11.030  12.495  1.00  0.00     0.043 A 
HETATM   26  C   UNL     1      42.381 -10.889  12.722  1.00  0.00     0.116 A 
HETATM   27  F   UNL     1      42.852 -10.956  13.974  1.00  0.00    -0.206 F 
HETATM   28  C   UNL     1      43.264 -10.682  11.669  1.00  0.00     0.043 A 
HETATM   29  C   UNL     1      42.773 -10.615  10.366  1.00  0.00     0.013 A 
ENDBRANCH  20  23
ENDBRANCH  19  20
ENDBRANCH   2  19
TORSDOF 6
ENDMDL
MODEL 8
REMARK VINA RESULT:      -7.5      4.788      9.103
REMARK  6 active torsions:
REMARK  status: ('A' for Active; 'I' for Inactive)
REMARK    1  A    between atoms: N_4  and  C_5 
REMARK    2  A    between atoms: C_14  and  C_15 
REMARK       I    between atoms: C_15  and  N_16 
REMARK    3  A    between atoms: N_16  and  C_17 
REMARK    4  A    between atoms: C_17  and  C_18 
REMARK    5  A    between atoms: C_18  and  O_19 
REMARK    6  A    between atoms: C_18  and  C_20 
ROOT
HETATM    1  C   UNL     1      42.482 -14.796   3.020  1.00  0.00     0.255 C 
HETATM    2  N   UNL     1      41.474 -14.937   3.949  1.00  0.00    -0.354 N 
HETATM    3  O   UNL     1      43.665 -14.785   3.340  1.00  0.00    -0.268 OA
HETATM    4  H   UNL     1      40.547 -14.685   3.641  1.00  0.00     0.162 HD
ENDROOT
BRANCH   1   5
HETATM    5  C   UNL     1      42.056 -14.605   1.636  1.00  0.00     0.082 C 
HETATM    6  C   UNL     1      41.730 -15.644   0.724  1.00  0.00     0.069 C 
HETATM    7  C   UNL     1      41.749 -17.111   0.957  1.00  0.00     0.073 C 
HETATM    8  N   UNL     1      41.352 -15.169  -0.461  1.00  0.00    -0.171 NA
HETATM    9  N   UNL     1      41.526 -13.828  -0.387  1.00  0.00    -0.237 N 
HETATM   10  C   UNL     1      41.790 -13.433   0.925  1.00  0.00     0.050 C 
HETATM   11  C   UNL     1      41.664 -12.031   1.408  1.00  0.00     0.071 C 
BRANCH   9  12
HETATM   12  C   UNL     1      41.427 -13.060  -1.588  1.00  0.00     0.058 A 
HETATM   13  C   UNL     1      42.606 -12.570  -2.179  1.00  0.00     0.033 A 
HETATM   14  C   UNL     1      42.555 -11.798  -3.343  1.00  0.00     0.021 A 
HETATM   15  C   UNL     1      41.322 -11.493  -3.912  1.00  0.00     0.011 A 
HETATM   16 BR   UNL     1      41.245 -10.439  -5.478  1.00  0.00    -0.051 Br
HETATM   17  C   UNL     1      40.143 -11.949  -3.324  1.00  0.00     0.021 A 
HETATM   18  C   UNL     1      40.194 -12.729  -2.162  1.00  0.00     0.033 A 
ENDBRANCH   9  12
ENDBRANCH   1   5
BRANCH   2  19
HETATM   19  C   UNL     1      41.702 -14.877   5.393  1.00  0.00     0.159 C 
BRANCH  19  20
HETATM   20  C   UNL     1      41.539 -16.209   6.165  1.00  0.00     0.169 C 
BRANCH  20  21
HETATM   21  O   UNL     1      40.290 -16.828   5.852  1.00  0.00    -0.389 OA
HETATM   22  H   UNL     1      39.984 -16.405   5.020  1.00  0.00     0.210 HD
ENDBRANCH  20  21
BRANCH  20  23
HETATM   23  C   UNL     1      42.627 -17.198   5.793  1.00  0.00    -0.028 A 
HETATM   24  C   UNL     1      42.406 -18.148   4.781  1.00  0.00     0.013 A 
HETATM   25  C   UNL     1      43.402 -19.064   4.440  1.00  0.00     0.043 A 
HETATM   26  C   UNL     1      44.620 -19.035   5.108  1.00  0.00     0.116 A 
HETATM   27  F   UNL     1      45.575 -19.915   4.779  1.00  0.00    -0.206 F 
HETATM   28  C   UNL     1      44.864 -18.105   6.111  1.00  0.00     0.043 A 
HETATM   29  C   UNL     1      43.871 -17.187   6.451  1.00  0.00     0.013 A 
ENDBRANCH  20  23
ENDBRANCH  19  20
ENDBRANCH   2  19
TORSDOF 6
ENDMDL
MODEL 9
REMARK VINA RESULT:      -7.5      5.067      9.038
REMARK  6 active torsions:
REMARK  status: ('A' for Active; 'I' for Inactive)
REMARK    1  A    between atoms: N_4  and  C_5 
REMARK    2  A    between atoms: C_14  and  C_15 
REMARK       I    between atoms: C_15  and  N_16 
REMARK    3  A    between atoms: N_16  and  C_17 
REMARK    4  A    between atoms: C_17  and  C_18 
REMARK    5  A    between atoms: C_18  and  O_19 
REMARK    6  A    between atoms: C_18  and  C_20 
ROOT
HETATM    1  C   UNL     1      41.449 -16.398   0.874  1.00  0.00     0.255 C 
HETATM    2  N   UNL     1      42.672 -16.015   1.380  1.00  0.00    -0.354 N 
HETATM    3  O   UNL     1      41.114 -17.576   0.804  1.00  0.00    -0.268 OA
HETATM    4  H   UNL     1      42.964 -15.072   1.170  1.00  0.00     0.162 HD
ENDROOT
BRANCH   1   5
HETATM    5  C   UNL     1      40.597 -15.323   0.374  1.00  0.00     0.082 C 
HETATM    6  C   UNL     1      40.456 -14.951  -0.989  1.00  0.00     0.069 C 
HETATM    7  C   UNL     1      41.120 -15.546  -2.179  1.00  0.00     0.073 C 
HETATM    8  N   UNL     1      39.591 -13.951  -1.149  1.00  0.00    -0.171 NA
HETATM    9  N   UNL     1      39.234 -13.578   0.103  1.00  0.00    -0.237 N 
HETATM   10  C   UNL     1      39.693 -14.498   1.046  1.00  0.00     0.050 C 
HETATM   11  C   UNL     1      39.171 -14.586   2.437  1.00  0.00     0.071 C 
BRANCH   9  12
HETATM   12  C   UNL     1      38.492 -12.368   0.268  1.00  0.00     0.058 A 
HETATM   13  C   UNL     1      39.186 -11.144   0.296  1.00  0.00     0.033 A 
HETATM   14  C   UNL     1      38.502  -9.938   0.475  1.00  0.00     0.021 A 
HETATM   15  C   UNL     1      37.122  -9.950   0.649  1.00  0.00     0.011 A 
HETATM   16 BR   UNL     1      36.192  -8.325   0.904  1.00  0.00    -0.051 Br
HETATM   17  C   UNL     1      36.422 -11.156   0.650  1.00  0.00     0.021 A 
HETATM   18  C   UNL     1      37.105 -12.364   0.463  1.00  0.00     0.033 A 
ENDBRANCH   9  12
ENDBRANCH   1   5
BRANCH   2  19
HETATM   19  C   UNL     1      43.747 -16.962   1.680  1.00  0.00     0.159 C 
BRANCH  19  20
HETATM   20  C   UNL     1      43.748 -17.561   3.108  1.00  0.00     0.169 C 
BRANCH  20  21
HETATM   21  O   UNL     1      42.485 -17.361   3.744  1.00  0.00    -0.389 OA
HETATM   22  H   UNL     1      41.963 -18.173   3.564  1.00  0.00     0.210 HD
ENDBRANCH  20  21
BRANCH  20  23
HETATM   23  C   UNL     1      43.995 -19.057   3.079  1.00  0.00    -0.028 A 
HETATM   24  C   UNL     1      44.599 -19.697   4.173  1.00  0.00     0.013 A 
HETATM   25  C   UNL     1      44.834 -21.073   4.147  1.00  0.00     0.043 A 
HETATM   26  C   UNL     1      44.468 -21.812   3.028  1.00  0.00     0.116 A 
HETATM   27  F   UNL     1      44.694 -23.132   3.006  1.00  0.00    -0.206 F 
HETATM   28  C   UNL     1      43.867 -21.202   1.934  1.00  0.00     0.043 A 
HETATM   29  C   UNL     1      43.629 -19.828   1.960  1.00  0.00     0.013 A 
ENDBRANCH  20  23
ENDBRANCH  19  20
ENDBRANCH   2  19
TORSDOF 6
ENDMDL
MODEL 10
REMARK VINA RESULT:      -7.5      3.216      4.063
REMARK  6 active torsions:
REMARK  status: ('A' for Active; 'I' for Inactive)
REMARK    1  A    between atoms: N_4  and  C_5 
REMARK    2  A    between atoms: C_14  and  C_15 
REMARK       I    between atoms: C_15  and  N_16 
REMARK    3  A    between atoms: N_16  and  C_17 
REMARK    4  A    between atoms: C_17  and  C_18 
REMARK    5  A    between atoms: C_18  and  O_19 
REMARK    6  A    between atoms: C_18  and  C_20 
ROOT
HETATM    1  C   UNL     1      41.456 -15.005  -0.104  1.00  0.00     0.255 C 
HETATM    2  N   UNL     1      41.628 -13.639  -0.165  1.00  0.00    -0.354 N 
HETATM    3  O   UNL     1      41.308 -15.687  -1.112  1.00  0.00    -0.268 OA
HETATM    4  H   UNL     1      41.490 -13.135   0.698  1.00  0.00     0.162 HD
ENDROOT
BRANCH   1   5
HETATM    5  C   UNL     1      41.406 -15.586   1.235  1.00  0.00     0.082 C 
HETATM    6  C   UNL     1      40.268 -15.599   2.084  1.00  0.00     0.069 C 
HETATM    7  C   UNL     1      38.915 -15.044   1.818  1.00  0.00     0.073 C 
HETATM    8  N   UNL     1      40.511 -16.219   3.238  1.00  0.00    -0.171 NA
HETATM    9  N   UNL     1      41.830 -16.524   3.214  1.00  0.00    -0.237 N 
HETATM   10  C   UNL     1      42.368 -16.307   1.945  1.00  0.00     0.050 C 
HETATM   11  C   UNL     1      43.664 -16.879   1.487  1.00  0.00     0.071 C 
BRANCH   9  12
HETATM   12  C   UNL     1      42.445 -16.989   4.418  1.00  0.00     0.058 A 
HETATM   13  C   UNL     1      42.563 -18.375   4.628  1.00  0.00     0.033 A 
HETATM   14  C   UNL     1      43.140 -18.873   5.800  1.00  0.00     0.021 A 
HETATM   15  C   UNL     1      43.583 -17.989   6.778  1.00  0.00     0.011 A 
HETATM   16 BR   UNL     1      44.353 -18.656   8.370  1.00  0.00    -0.051 Br
HETATM   17  C   UNL     1      43.450 -16.613   6.596  1.00  0.00     0.021 A 
HETATM   18  C   UNL     1      42.879 -16.112   5.419  1.00  0.00     0.033 A 
ENDBRANCH   9  12
ENDBRANCH   1   5
BRANCH   2  19
HETATM   19  C   UNL     1      41.443 -12.863  -1.392  1.00  0.00     0.159 C 
BRANCH  19  20
HETATM   20  C   UNL     1      42.722 -12.585  -2.221  1.00  0.00     0.169 C 
BRANCH  20  21
HETATM   21  O   UNL     1      42.981 -13.657  -3.128  1.00  0.00    -0.389 OA
HETATM   22  H   UNL     1      42.381 -13.513  -3.892  1.00  0.00     0.210 HD
ENDBRANCH  20  21
BRANCH  20  23
HETATM   23  C   UNL     1      42.575 -11.327  -3.055  1.00  0.00    -0.028 A 
HETATM   24  C   UNL     1      42.326 -11.416  -4.435  1.00  0.00     0.013 A 
HETATM   25  C   UNL     1      42.197 -10.260  -5.207  1.00  0.00     0.043 A 
HETATM   26  C   UNL     1      42.316  -9.014  -4.604  1.00  0.00     0.116 A 
HETATM   27  F   UNL     1      42.191  -7.907  -5.347  1.00  0.00    -0.206 F 
HETATM   28  C   UNL     1      42.559  -8.899  -3.241  1.00  0.00     0.043 A 
HETATM   29  C   UNL     1      42.686 -10.052  -2.467  1.00  0.00     0.013 A 
ENDBRANCH  20  23
ENDBRANCH  19  20
ENDBRANCH   2  19
TORSDOF 6
ENDMDL
