MODEL 1
REMARK VINA RESULT:      -9.8      0.000      0.000
REMARK  9 active torsions:
REMARK  status: ('A' for Active; 'I' for Inactive)
REMARK    1  A    between atoms: N_2  and  C_4 
REMARK    2  A    between atoms: N_2  and  C_35 
REMARK    3  A    between atoms: C_4  and  C_5 
REMARK    4  A    between atoms: N_8  and  C_9 
REMARK    5  A    between atoms: C_12  and  N_13 
REMARK       I    between atoms: N_13  and  C_14 
REMARK       I    between atoms: C_14  and  N_15 
REMARK    6  A    between atoms: N_15  and  C_16 
REMARK    7  A    between atoms: C_19  and  O_20 
REMARK    8  A    between atoms: O_20  and  C_21 
REMARK    9  A    between atoms: C_35  and  C_36 
ROOT
HETATM    1  C   UNL     1      40.460 -11.135   6.333  1.00  0.00     0.161 C 
HETATM    2  C   UNL     1      39.363 -12.068   5.833  1.00  0.00     0.179 C 
HETATM    3  C   UNL     1      40.099 -12.972   4.859  1.00  0.00     0.177 C 
HETATM    4  C   UNL     1      39.762 -12.422   3.476  1.00  0.00     0.141 C 
HETATM    5  C   UNL     1      38.736 -11.319   3.720  1.00  0.00     0.196 C 
HETATM    6  O   UNL     1      38.333 -11.393   5.098  1.00  0.00    -0.379 OA
HETATM    7  O   UNL     1      41.510 -12.856   5.112  1.00  0.00    -0.379 OA
HETATM    8  C   UNL     1      41.685 -12.031   6.271  1.00  0.00     0.198 C 
ENDROOT
BRANCH   4   9
HETATM    9  N   UNL     1      39.375 -13.452   2.521  1.00  0.00    -0.334 N 
HETATM   10  C   UNL     1      39.991 -14.563   2.044  1.00  0.00     0.321 C 
HETATM   11  N   UNL     1      41.103 -15.003   2.706  1.00  0.00    -0.309 N 
HETATM   12  O   UNL     1      39.476 -15.083   1.058  1.00  0.00    -0.247 OA
HETATM   13  H   UNL     1      41.269 -14.635   3.627  1.00  0.00     0.170 HD
HETATM   14  H   UNL     1      38.601 -13.217   1.906  1.00  0.00     0.164 HD
BRANCH  11  15
HETATM   15  C   UNL     1      41.848 -16.162   2.370  1.00  0.00     0.036 A 
HETATM   16  C   UNL     1      41.304 -17.448   2.353  1.00  0.00     0.032 A 
HETATM   17  C   UNL     1      42.108 -18.557   2.079  1.00  0.00     0.039 A 
HETATM   18  C   UNL     1      43.468 -18.402   1.808  1.00  0.00     0.076 A 
HETATM   19  C   UNL     1      44.017 -17.120   1.799  1.00  0.00     0.039 A 
HETATM   20  C   UNL     1      43.206 -16.005   2.061  1.00  0.00     0.032 A 
BRANCH  18  21
HETATM   21  O   UNL     1      44.159 -19.581   1.639  1.00  0.00    -0.311 OA
BRANCH  21  22
HETATM   22  C   UNL     1      44.316 -20.425   2.707  1.00  0.00     0.076 A 
HETATM   23  C   UNL     1      44.359 -21.795   2.449  1.00  0.00     0.037 A 
HETATM   24  C   UNL     1      44.611 -22.689   3.491  1.00  0.00     0.003 A 
HETATM   25  C   UNL     1      44.834 -22.207   4.782  1.00  0.00     0.000 A 
HETATM   26  C   UNL     1      44.811 -20.833   5.031  1.00  0.00     0.003 A 
HETATM   27  C   UNL     1      44.563 -19.938   3.991  1.00  0.00     0.037 A 
ENDBRANCH  21  22
ENDBRANCH  18  21
ENDBRANCH  11  15
ENDBRANCH   4   9
BRANCH   1  28
HETATM   28  N   UNL     1      40.227 -10.551   7.630  1.00  0.00    -0.274 N 
HETATM   29  N   UNL     1      39.239 -10.987   8.431  1.00  0.00     0.005 NA
HETATM   30  N   UNL     1      39.324 -10.335   9.580  1.00  0.00    -0.161 NA
HETATM   31  C   UNL     1      40.390  -9.479   9.505  1.00  0.00     0.095 A 
HETATM   32  C   UNL     1      40.983  -9.604   8.268  1.00  0.00     0.139 A 
BRANCH  31  33
HETATM   33  C   UNL     1      40.739  -8.628  10.671  1.00  0.00     0.296 C 
BRANCH  33  34
HETATM   34  N   UNL     1      40.801  -9.391  11.980  1.00  0.00    -0.066 N 
HETATM   35  C   UNL     1      39.726  -8.956  12.930  1.00  0.00     0.270 C 
HETATM   36  H   UNL     1      40.615 -10.372  11.728  1.00  0.00     0.280 HD
BRANCH  34  37
HETATM   37  C   UNL     1      42.187  -9.375  12.587  1.00  0.00     0.273 C 
BRANCH  37  38
HETATM   38  C   UNL     1      43.138 -10.363  11.966  1.00  0.00    -0.033 A 
HETATM   39  C   UNL     1      43.148 -11.705  12.378  1.00  0.00     0.009 A 
HETATM   40  C   UNL     1      44.056 -12.606  11.819  1.00  0.00     0.001 A 
HETATM   41  C   UNL     1      44.955 -12.182  10.844  1.00  0.00     0.000 A 
HETATM   42  C   UNL     1      44.948 -10.855  10.420  1.00  0.00     0.001 A 
HETATM   43  C   UNL     1      44.044  -9.949  10.976  1.00  0.00     0.009 A 
ENDBRANCH  37  38
ENDBRANCH  34  37
ENDBRANCH  33  34
ENDBRANCH  31  33
ENDBRANCH   1  28
TORSDOF 9
ENDMDL
MODEL 2
REMARK VINA RESULT:      -9.7      1.065      1.379
REMARK  9 active torsions:
REMARK  status: ('A' for Active; 'I' for Inactive)
REMARK    1  A    between atoms: N_2  and  C_4 
REMARK    2  A    between atoms: N_2  and  C_35 
REMARK    3  A    between atoms: C_4  and  C_5 
REMARK    4  A    between atoms: N_8  and  C_9 
REMARK    5  A    between atoms: C_12  and  N_13 
REMARK       I    between atoms: N_13  and  C_14 
REMARK       I    between atoms: C_14  and  N_15 
REMARK    6  A    between atoms: N_15  and  C_16 
REMARK    7  A    between atoms: C_19  and  O_20 
REMARK    8  A    between atoms: O_20  and  C_21 
REMARK    9  A    between atoms: C_35  and  C_36 
ROOT
HETATM    1  C   UNL     1      40.050 -11.251   5.891  1.00  0.00     0.161 C 
HETATM    2  C   UNL     1      39.054 -12.010   5.022  1.00  0.00     0.179 C 
HETATM    3  C   UNL     1      39.943 -12.943   4.217  1.00  0.00     0.177 C 
HETATM    4  C   UNL     1      40.080 -12.278   2.850  1.00  0.00     0.141 C 
HETATM    5  C   UNL     1      39.148 -11.071   2.894  1.00  0.00     0.196 C 
HETATM    6  O   UNL     1      38.357 -11.172   4.090  1.00  0.00    -0.379 OA
HETATM    7  O   UNL     1      41.225 -13.019   4.867  1.00  0.00    -0.379 OA
HETATM    8  C   UNL     1      41.140 -12.288   6.097  1.00  0.00     0.198 C 
ENDROOT
BRANCH   4   9
HETATM    9  N   UNL     1      39.883 -13.196   1.736  1.00  0.00    -0.334 N 
HETATM   10  C   UNL     1      40.499 -14.342   1.349  1.00  0.00     0.321 C 
HETATM   11  N   UNL     1      41.328 -14.950   2.250  1.00  0.00    -0.309 N 
HETATM   12  O   UNL     1      40.236 -14.738   0.217  1.00  0.00    -0.247 OA
HETATM   13  H   UNL     1      41.261 -14.659   3.211  1.00  0.00     0.170 HD
HETATM   14  H   UNL     1      39.342 -12.836   0.957  1.00  0.00     0.164 HD
BRANCH  11  15
HETATM   15  C   UNL     1      42.022 -16.166   2.029  1.00  0.00     0.036 A 
HETATM   16  C   UNL     1      41.399 -17.415   2.014  1.00  0.00     0.032 A 
HETATM   17  C   UNL     1      42.149 -18.584   1.858  1.00  0.00     0.039 A 
HETATM   18  C   UNL     1      43.535 -18.526   1.706  1.00  0.00     0.076 A 
HETATM   19  C   UNL     1      44.165 -17.281   1.695  1.00  0.00     0.039 A 
HETATM   20  C   UNL     1      43.410 -16.108   1.838  1.00  0.00     0.032 A 
BRANCH  18  21
HETATM   21  O   UNL     1      44.158 -19.751   1.647  1.00  0.00    -0.311 OA
BRANCH  21  22
HETATM   22  C   UNL     1      44.289 -20.493   2.791  1.00  0.00     0.076 A 
HETATM   23  C   UNL     1      44.382 -21.878   2.660  1.00  0.00     0.037 A 
HETATM   24  C   UNL     1      44.610 -22.668   3.787  1.00  0.00     0.003 A 
HETATM   25  C   UNL     1      44.759 -22.068   5.038  1.00  0.00     0.000 A 
HETATM   26  C   UNL     1      44.685 -20.679   5.163  1.00  0.00     0.003 A 
HETATM   27  C   UNL     1      44.461 -19.887   4.036  1.00  0.00     0.037 A 
ENDBRANCH  21  22
ENDBRANCH  18  21
ENDBRANCH  11  15
ENDBRANCH   4   9
BRANCH   1  28
HETATM   28  N   UNL     1      39.513 -10.716   7.118  1.00  0.00    -0.274 N 
HETATM   29  N   UNL     1      39.096 -11.519   8.113  1.00  0.00     0.005 NA
HETATM   30  N   UNL     1      38.745 -10.757   9.136  1.00  0.00    -0.161 NA
HETATM   31  C   UNL     1      38.952  -9.450   8.784  1.00  0.00     0.095 A 
HETATM   32  C   UNL     1      39.447  -9.403   7.499  1.00  0.00     0.139 A 
BRANCH  31  33
HETATM   33  C   UNL     1      38.662  -8.366   9.757  1.00  0.00     0.296 C 
BRANCH  33  34
HETATM   34  N   UNL     1      39.112  -8.685  11.169  1.00  0.00    -0.066 N 
HETATM   35  C   UNL     1      37.980  -8.589  12.149  1.00  0.00     0.270 C 
HETATM   36  H   UNL     1      39.415  -9.669  11.140  1.00  0.00     0.280 HD
BRANCH  34  37
HETATM   37  C   UNL     1      40.332  -7.888  11.575  1.00  0.00     0.273 C 
BRANCH  37  38
HETATM   38  C   UNL     1      41.565  -8.724  11.788  1.00  0.00    -0.033 A 
HETATM   39  C   UNL     1      42.107  -8.889  13.073  1.00  0.00     0.009 A 
HETATM   40  C   UNL     1      43.270  -9.640  13.256  1.00  0.00     0.001 A 
HETATM   41  C   UNL     1      43.898 -10.236  12.165  1.00  0.00     0.000 A 
HETATM   42  C   UNL     1      43.364 -10.088  10.887  1.00  0.00     0.001 A 
HETATM   43  C   UNL     1      42.204  -9.337  10.697  1.00  0.00     0.009 A 
ENDBRANCH  37  38
ENDBRANCH  34  37
ENDBRANCH  33  34
ENDBRANCH  31  33
ENDBRANCH   1  28
TORSDOF 9
ENDMDL
MODEL 3
REMARK VINA RESULT:      -9.6      1.936      2.571
REMARK  9 active torsions:
REMARK  status: ('A' for Active; 'I' for Inactive)
REMARK    1  A    between atoms: N_2  and  C_4 
REMARK    2  A    between atoms: N_2  and  C_35 
REMARK    3  A    between atoms: C_4  and  C_5 
REMARK    4  A    between atoms: N_8  and  C_9 
REMARK    5  A    between atoms: C_12  and  N_13 
REMARK       I    between atoms: N_13  and  C_14 
REMARK       I    between atoms: C_14  and  N_15 
REMARK    6  A    between atoms: N_15  and  C_16 
REMARK    7  A    between atoms: C_19  and  O_20 
REMARK    8  A    between atoms: O_20  and  C_21 
REMARK    9  A    between atoms: C_35  and  C_36 
ROOT
HETATM    1  C   UNL     1      40.113 -10.148   7.352  1.00  0.00     0.161 C 
HETATM    2  C   UNL     1      40.629 -11.557   7.085  1.00  0.00     0.179 C 
HETATM    3  C   UNL     1      41.206 -11.451   5.684  1.00  0.00     0.177 C 
HETATM    4  C   UNL     1      40.142 -12.056   4.771  1.00  0.00     0.141 C 
HETATM    5  C   UNL     1      39.073 -12.608   5.708  1.00  0.00     0.196 C 
HETATM    6  O   UNL     1      39.591 -12.546   7.049  1.00  0.00    -0.379 OA
HETATM    7  O   UNL     1      41.394 -10.058   5.376  1.00  0.00    -0.379 OA
HETATM    8  C   UNL     1      41.088  -9.301   6.554  1.00  0.00     0.198 C 
ENDROOT
BRANCH   4   9
HETATM    9  N   UNL     1      40.681 -12.996   3.796  1.00  0.00    -0.334 N 
HETATM   10  C   UNL     1      41.431 -14.123   3.900  1.00  0.00     0.321 C 
HETATM   11  N   UNL     1      41.557 -14.687   5.138  1.00  0.00    -0.309 N 
HETATM   12  O   UNL     1      41.918 -14.542   2.854  1.00  0.00    -0.247 OA
HETATM   13  H   UNL     1      40.915 -14.387   5.852  1.00  0.00     0.170 HD
HETATM   14  H   UNL     1      40.716 -12.666   2.837  1.00  0.00     0.164 HD
BRANCH  11  15
HETATM   15  C   UNL     1      42.269 -15.879   5.423  1.00  0.00     0.036 A 
HETATM   16  C   UNL     1      43.576 -15.895   5.915  1.00  0.00     0.032 A 
HETATM   17  C   UNL     1      44.249 -17.103   6.112  1.00  0.00     0.039 A 
HETATM   18  C   UNL     1      43.626 -18.319   5.830  1.00  0.00     0.076 A 
HETATM   19  C   UNL     1      42.312 -18.316   5.361  1.00  0.00     0.039 A 
HETATM   20  C   UNL     1      41.632 -17.103   5.177  1.00  0.00     0.032 A 
BRANCH  18  21
HETATM   21  O   UNL     1      44.428 -19.427   5.988  1.00  0.00    -0.311 OA
BRANCH  21  22
HETATM   22  C   UNL     1      44.536 -20.328   4.963  1.00  0.00     0.076 A 
HETATM   23  C   UNL     1      44.679 -21.675   5.295  1.00  0.00     0.037 A 
HETATM   24  C   UNL     1      44.699 -22.640   4.287  1.00  0.00     0.003 A 
HETATM   25  C   UNL     1      44.560 -22.255   2.954  1.00  0.00     0.000 A 
HETATM   26  C   UNL     1      44.395 -20.907   2.626  1.00  0.00     0.003 A 
HETATM   27  C   UNL     1      44.371 -19.942   3.632  1.00  0.00     0.037 A 
ENDBRANCH  21  22
ENDBRANCH  18  21
ENDBRANCH  11  15
ENDBRANCH   4   9
BRANCH   1  28
HETATM   28  N   UNL     1      40.021  -9.780   8.743  1.00  0.00    -0.274 N 
HETATM   29  N   UNL     1      39.603  -8.558   9.121  1.00  0.00     0.005 NA
HETATM   30  N   UNL     1      39.532  -8.539  10.443  1.00  0.00    -0.161 NA
HETATM   31  C   UNL     1      39.904  -9.773  10.906  1.00  0.00     0.095 A 
HETATM   32  C   UNL     1      40.216 -10.581   9.835  1.00  0.00     0.139 A 
BRANCH  31  33
HETATM   33  C   UNL     1      39.897 -10.048  12.365  1.00  0.00     0.296 C 
BRANCH  33  34
HETATM   34  N   UNL     1      41.275 -10.321  12.936  1.00  0.00    -0.066 N 
HETATM   35  C   UNL     1      41.316 -10.107  14.419  1.00  0.00     0.270 C 
HETATM   36  H   UNL     1      41.446 -11.321  12.761  1.00  0.00     0.280 HD
BRANCH  34  37
HETATM   37  C   UNL     1      42.362  -9.579  12.188  1.00  0.00     0.273 C 
BRANCH  37  38
HETATM   38  C   UNL     1      43.422 -10.473  11.604  1.00  0.00    -0.033 A 
HETATM   39  C   UNL     1      44.375  -9.965  10.707  1.00  0.00     0.009 A 
HETATM   40  C   UNL     1      45.334 -10.810  10.145  1.00  0.00     0.001 A 
HETATM   41  C   UNL     1      45.356 -12.163  10.475  1.00  0.00     0.000 A 
HETATM   42  C   UNL     1      44.422 -12.677  11.371  1.00  0.00     0.001 A 
HETATM   43  C   UNL     1      43.459 -11.838  11.934  1.00  0.00     0.009 A 
ENDBRANCH  37  38
ENDBRANCH  34  37
ENDBRANCH  33  34
ENDBRANCH  31  33
ENDBRANCH   1  28
TORSDOF 9
ENDMDL
MODEL 4
REMARK VINA RESULT:      -9.5      5.589     10.936
REMARK  9 active torsions:
REMARK  status: ('A' for Active; 'I' for Inactive)
REMARK    1  A    between atoms: N_2  and  C_4 
REMARK    2  A    between atoms: N_2  and  C_35 
REMARK    3  A    between atoms: C_4  and  C_5 
REMARK    4  A    between atoms: N_8  and  C_9 
REMARK    5  A    between atoms: C_12  and  N_13 
REMARK       I    between atoms: N_13  and  C_14 
REMARK       I    between atoms: C_14  and  N_15 
REMARK    6  A    between atoms: N_15  and  C_16 
REMARK    7  A    between atoms: C_19  and  O_20 
REMARK    8  A    between atoms: O_20  and  C_21 
REMARK    9  A    between atoms: C_35  and  C_36 
ROOT
HETATM    1  C   UNL     1      41.809 -15.655   3.188  1.00  0.00     0.161 C 
HETATM    2  C   UNL     1      42.616 -15.844   1.909  1.00  0.00     0.179 C 
HETATM    3  C   UNL     1      42.064 -14.766   0.992  1.00  0.00     0.177 C 
HETATM    4  C   UNL     1      41.097 -15.495   0.062  1.00  0.00     0.141 C 
HETATM    5  C   UNL     1      41.251 -16.974   0.399  1.00  0.00     0.196 C 
HETATM    6  O   UNL     1      42.385 -17.109   1.273  1.00  0.00    -0.379 OA
HETATM    7  O   UNL     1      41.355 -13.807   1.797  1.00  0.00    -0.379 OA
HETATM    8  C   UNL     1      41.546 -14.159   3.173  1.00  0.00     0.198 C 
ENDROOT
BRANCH   4   9
HETATM    9  N   UNL     1      41.264 -15.140  -1.341  1.00  0.00    -0.334 N 
HETATM   10  C   UNL     1      40.396 -14.813  -2.332  1.00  0.00     0.321 C 
HETATM   11  N   UNL     1      39.113 -14.509  -1.974  1.00  0.00    -0.309 N 
HETATM   12  O   UNL     1      40.857 -14.805  -3.470  1.00  0.00    -0.247 OA
HETATM   13  H   UNL     1      38.936 -14.315  -1.003  1.00  0.00     0.170 HD
HETATM   14  H   UNL     1      42.158 -15.385  -1.756  1.00  0.00     0.164 HD
BRANCH  11  15
HETATM   15  C   UNL     1      38.087 -14.113  -2.870  1.00  0.00     0.036 A 
HETATM   16  C   UNL     1      37.311 -15.016  -3.597  1.00  0.00     0.032 A 
HETATM   17  C   UNL     1      36.361 -14.561  -4.515  1.00  0.00     0.039 A 
HETATM   18  C   UNL     1      36.162 -13.195  -4.717  1.00  0.00     0.076 A 
HETATM   19  C   UNL     1      36.916 -12.284  -3.978  1.00  0.00     0.039 A 
HETATM   20  C   UNL     1      37.860 -12.741  -3.046  1.00  0.00     0.032 A 
BRANCH  18  21
HETATM   21  O   UNL     1      35.258 -12.886  -5.708  1.00  0.00    -0.311 OA
BRANCH  21  22
HETATM   22  C   UNL     1      34.038 -12.366  -5.364  1.00  0.00     0.076 A 
HETATM   23  C   UNL     1      33.397 -11.546  -6.293  1.00  0.00     0.037 A 
HETATM   24  C   UNL     1      32.113 -11.070  -6.027  1.00  0.00     0.003 A 
HETATM   25  C   UNL     1      31.470 -11.428  -4.841  1.00  0.00     0.000 A 
HETATM   26  C   UNL     1      32.107 -12.266  -3.923  1.00  0.00     0.003 A 
HETATM   27  C   UNL     1      33.390 -12.746  -4.189  1.00  0.00     0.037 A 
ENDBRANCH  21  22
ENDBRANCH  18  21
ENDBRANCH  11  15
ENDBRANCH   4   9
BRANCH   1  28
HETATM   28  N   UNL     1      42.446 -16.124   4.393  1.00  0.00    -0.274 N 
HETATM   29  N   UNL     1      43.052 -15.278   5.244  1.00  0.00     0.005 NA
HETATM   30  N   UNL     1      43.461 -15.973   6.294  1.00  0.00    -0.161 NA
HETATM   31  C   UNL     1      43.098 -17.280   6.105  1.00  0.00     0.095 A 
HETATM   32  C   UNL     1      42.445 -17.396   4.898  1.00  0.00     0.139 A 
BRANCH  31  33
HETATM   33  C   UNL     1      43.412 -18.292   7.145  1.00  0.00     0.296 C 
BRANCH  33  34
HETATM   34  N   UNL     1      43.645 -19.682   6.586  1.00  0.00    -0.066 N 
HETATM   35  C   UNL     1      43.694 -20.718   7.669  1.00  0.00     0.270 C 
HETATM   36  H   UNL     1      42.819 -19.880   6.003  1.00  0.00     0.280 HD
BRANCH  34  37
HETATM   37  C   UNL     1      44.833 -19.731   5.649  1.00  0.00     0.273 C 
BRANCH  37  38
HETATM   38  C   UNL     1      44.566 -20.463   4.362  1.00  0.00    -0.033 A 
HETATM   39  C   UNL     1      44.747 -21.852   4.276  1.00  0.00     0.009 A 
HETATM   40  C   UNL     1      44.529 -22.517   3.068  1.00  0.00     0.001 A 
HETATM   41  C   UNL     1      44.124 -21.808   1.940  1.00  0.00     0.000 A 
HETATM   42  C   UNL     1      43.932 -20.430   2.015  1.00  0.00     0.001 A 
HETATM   43  C   UNL     1      44.151 -19.759   3.219  1.00  0.00     0.009 A 
ENDBRANCH  37  38
ENDBRANCH  34  37
ENDBRANCH  33  34
ENDBRANCH  31  33
ENDBRANCH   1  28
TORSDOF 9
ENDMDL
MODEL 5
REMARK VINA RESULT:      -9.4      1.299      1.926
REMARK  9 active torsions:
REMARK  status: ('A' for Active; 'I' for Inactive)
REMARK    1  A    between atoms: N_2  and  C_4 
REMARK    2  A    between atoms: N_2  and  C_35 
REMARK    3  A    between atoms: C_4  and  C_5 
REMARK    4  A    between atoms: N_8  and  C_9 
REMARK    5  A    between atoms: C_12  and  N_13 
REMARK       I    between atoms: N_13  and  C_14 
REMARK       I    between atoms: C_14  and  N_15 
REMARK    6  A    between atoms: N_15  and  C_16 
REMARK    7  A    between atoms: C_19  and  O_20 
REMARK    8  A    between atoms: O_20  and  C_21 
REMARK    9  A    between atoms: C_35  and  C_36 
ROOT
HETATM    1  C   UNL     1      39.779 -11.029   6.737  1.00  0.00     0.161 C 
HETATM    2  C   UNL     1      40.783 -11.773   5.865  1.00  0.00     0.179 C 
HETATM    3  C   UNL     1      40.402 -11.341   4.459  1.00  0.00     0.177 C 
HETATM    4  C   UNL     1      39.593 -12.504   3.892  1.00  0.00     0.141 C 
HETATM    5  C   UNL     1      39.672 -13.602   4.948  1.00  0.00     0.196 C 
HETATM    6  O   UNL     1      40.645 -13.199   5.927  1.00  0.00    -0.379 OA
HETATM    7  O   UNL     1      39.583 -10.162   4.554  1.00  0.00    -0.379 OA
HETATM    8  C   UNL     1      39.540  -9.765   5.931  1.00  0.00     0.198 C 
ENDROOT
BRANCH   4   9
HETATM    9  N   UNL     1      39.993 -12.887   2.544  1.00  0.00    -0.334 N 
HETATM   10  C   UNL     1      40.760 -13.889   2.046  1.00  0.00     0.321 C 
HETATM   11  N   UNL     1      41.070 -14.924   2.883  1.00  0.00    -0.309 N 
HETATM   12  O   UNL     1      41.093 -13.778   0.870  1.00  0.00    -0.247 OA
HETATM   13  H   UNL     1      40.535 -15.010   3.731  1.00  0.00     0.170 HD
HETATM   14  H   UNL     1      39.885 -12.172   1.832  1.00  0.00     0.164 HD
BRANCH  11  15
HETATM   15  C   UNL     1      41.827 -16.067   2.523  1.00  0.00     0.036 A 
HETATM   16  C   UNL     1      41.253 -17.266   2.095  1.00  0.00     0.032 A 
HETATM   17  C   UNL     1      42.052 -18.379   1.819  1.00  0.00     0.039 A 
HETATM   18  C   UNL     1      43.438 -18.313   1.956  1.00  0.00     0.076 A 
HETATM   19  C   UNL     1      44.024 -17.113   2.359  1.00  0.00     0.039 A 
HETATM   20  C   UNL     1      43.223 -15.991   2.623  1.00  0.00     0.032 A 
BRANCH  18  21
HETATM   21  O   UNL     1      44.096 -19.502   1.734  1.00  0.00    -0.311 OA
BRANCH  21  22
HETATM   22  C   UNL     1      44.260 -20.381   2.772  1.00  0.00     0.076 A 
HETATM   23  C   UNL     1      44.368 -21.737   2.462  1.00  0.00     0.037 A 
HETATM   24  C   UNL     1      44.630 -22.660   3.475  1.00  0.00     0.003 A 
HETATM   25  C   UNL     1      44.797 -22.222   4.789  1.00  0.00     0.000 A 
HETATM   26  C   UNL     1      44.708 -20.862   5.092  1.00  0.00     0.003 A 
HETATM   27  C   UNL     1      44.450 -19.937   4.080  1.00  0.00     0.037 A 
ENDBRANCH  21  22
ENDBRANCH  18  21
ENDBRANCH  11  15
ENDBRANCH   4   9
BRANCH   1  28
HETATM   28  N   UNL     1      40.203 -10.786   8.093  1.00  0.00    -0.274 N 
HETATM   29  N   UNL     1      39.550 -11.320   9.141  1.00  0.00     0.005 NA
HETATM   30  N   UNL     1      40.213 -11.005  10.243  1.00  0.00    -0.161 NA
HETATM   31  C   UNL     1      41.308 -10.266   9.882  1.00  0.00     0.095 A 
HETATM   32  C   UNL     1      41.322 -10.119   8.513  1.00  0.00     0.139 A 
BRANCH  31  33
HETATM   33  C   UNL     1      42.254  -9.789  10.924  1.00  0.00     0.296 C 
BRANCH  33  34
HETATM   34  N   UNL     1      43.070 -10.901  11.554  1.00  0.00    -0.066 N 
HETATM   35  C   UNL     1      42.721 -11.098  12.998  1.00  0.00     0.270 C 
HETATM   36  H   UNL     1      42.798 -11.755  11.047  1.00  0.00     0.280 HD
BRANCH  34  37
HETATM   37  C   UNL     1      44.554 -10.730  11.308  1.00  0.00     0.273 C 
BRANCH  37  38
HETATM   38  C   UNL     1      45.049 -11.410  10.060  1.00  0.00    -0.033 A 
HETATM   39  C   UNL     1      44.347 -12.492   9.506  1.00  0.00     0.009 A 
HETATM   40  C   UNL     1      44.832 -13.137   8.366  1.00  0.00     0.001 A 
HETATM   41  C   UNL     1      46.013 -12.706   7.766  1.00  0.00     0.000 A 
HETATM   42  C   UNL     1      46.712 -11.627   8.301  1.00  0.00     0.001 A 
HETATM   43  C   UNL     1      46.234 -10.980   9.441  1.00  0.00     0.009 A 
ENDBRANCH  37  38
ENDBRANCH  34  37
ENDBRANCH  33  34
ENDBRANCH  31  33
ENDBRANCH   1  28
TORSDOF 9
ENDMDL
MODEL 6
REMARK VINA RESULT:      -9.4      1.460      2.331
REMARK  9 active torsions:
REMARK  status: ('A' for Active; 'I' for Inactive)
REMARK    1  A    between atoms: N_2  and  C_4 
REMARK    2  A    between atoms: N_2  and  C_35 
REMARK    3  A    between atoms: C_4  and  C_5 
REMARK    4  A    between atoms: N_8  and  C_9 
REMARK    5  A    between atoms: C_12  and  N_13 
REMARK       I    between atoms: N_13  and  C_14 
REMARK       I    between atoms: C_14  and  N_15 
REMARK    6  A    between atoms: N_15  and  C_16 
REMARK    7  A    between atoms: C_19  and  O_20 
REMARK    8  A    between atoms: O_20  and  C_21 
REMARK    9  A    between atoms: C_35  and  C_36 
ROOT
HETATM    1  C   UNL     1      40.234 -10.307   7.766  1.00  0.00     0.161 C 
HETATM    2  C   UNL     1      41.489 -10.290   6.900  1.00  0.00     0.179 C 
HETATM    3  C   UNL     1      40.933 -10.392   5.490  1.00  0.00     0.177 C 
HETATM    4  C   UNL     1      41.118 -11.855   5.097  1.00  0.00     0.141 C 
HETATM    5  C   UNL     1      41.898 -12.486   6.245  1.00  0.00     0.196 C 
HETATM    6  O   UNL     1      42.340 -11.425   7.110  1.00  0.00    -0.379 OA
HETATM    7  O   UNL     1      39.534 -10.058   5.529  1.00  0.00    -0.379 OA
HETATM    8  C   UNL     1      39.220  -9.630   6.861  1.00  0.00     0.198 C 
ENDROOT
BRANCH   4   9
HETATM    9  N   UNL     1      41.687 -12.031   3.767  1.00  0.00    -0.334 N 
HETATM   10  C   UNL     1      42.150 -13.108   3.083  1.00  0.00     0.321 C 
HETATM   11  N   UNL     1      41.850 -14.347   3.576  1.00  0.00    -0.309 N 
HETATM   12  O   UNL     1      42.790 -12.863   2.064  1.00  0.00    -0.247 OA
HETATM   13  H   UNL     1      41.122 -14.406   4.268  1.00  0.00     0.170 HD
HETATM   14  H   UNL     1      42.024 -11.186   3.315  1.00  0.00     0.164 HD
BRANCH  11  15
HETATM   15  C   UNL     1      42.220 -15.576   2.975  1.00  0.00     0.036 A 
HETATM   16  C   UNL     1      41.327 -16.630   2.766  1.00  0.00     0.032 A 
HETATM   17  C   UNL     1      41.769 -17.842   2.230  1.00  0.00     0.039 A 
HETATM   18  C   UNL     1      43.108 -18.022   1.884  1.00  0.00     0.076 A 
HETATM   19  C   UNL     1      44.004 -16.968   2.065  1.00  0.00     0.039 A 
HETATM   20  C   UNL     1      43.557 -15.746   2.591  1.00  0.00     0.032 A 
BRANCH  18  21
HETATM   21  O   UNL     1      43.424 -19.288   1.447  1.00  0.00    -0.311 OA
BRANCH  21  22
HETATM   22  C   UNL     1      43.956 -20.189   2.331  1.00  0.00     0.076 A 
HETATM   23  C   UNL     1      44.322 -19.721   3.593  1.00  0.00     0.037 A 
HETATM   24  C   UNL     1      44.780 -20.618   4.559  1.00  0.00     0.003 A 
HETATM   25  C   UNL     1      44.856 -21.979   4.264  1.00  0.00     0.000 A 
HETATM   26  C   UNL     1      44.468 -22.447   3.006  1.00  0.00     0.003 A 
HETATM   27  C   UNL     1      44.007 -21.553   2.040  1.00  0.00     0.037 A 
ENDBRANCH  21  22
ENDBRANCH  18  21
ENDBRANCH  11  15
ENDBRANCH   4   9
BRANCH   1  28
HETATM   28  N   UNL     1      40.371  -9.685   9.059  1.00  0.00    -0.274 N 
HETATM   29  N   UNL     1      40.457  -8.349   9.192  1.00  0.00     0.005 NA
HETATM   30  N   UNL     1      40.481  -8.065  10.484  1.00  0.00    -0.161 NA
HETATM   31  C   UNL     1      40.399  -9.242  11.179  1.00  0.00     0.095 A 
HETATM   32  C   UNL     1      40.323 -10.288  10.287  1.00  0.00     0.139 A 
BRANCH  31  33
HETATM   33  C   UNL     1      40.381  -9.224  12.664  1.00  0.00     0.296 C 
BRANCH  33  34
HETATM   34  N   UNL     1      41.557  -9.947  13.292  1.00  0.00    -0.066 N 
HETATM   35  C   UNL     1      41.465  -9.964  14.788  1.00  0.00     0.270 C 
HETATM   36  H   UNL     1      41.481 -10.920  12.964  1.00  0.00     0.280 HD
BRANCH  34  37
HETATM   37  C   UNL     1      42.884  -9.438  12.774  1.00  0.00     0.273 C 
BRANCH  37  38
HETATM   38  C   UNL     1      43.615 -10.420  11.898  1.00  0.00    -0.033 A 
HETATM   39  C   UNL     1      44.330  -9.983  10.771  1.00  0.00     0.009 A 
HETATM   40  C   UNL     1      44.977 -10.905   9.947  1.00  0.00     0.001 A 
HETATM   41  C   UNL     1      44.923 -12.266  10.239  1.00  0.00     0.000 A 
HETATM   42  C   UNL     1      44.226 -12.711  11.359  1.00  0.00     0.001 A 
HETATM   43  C   UNL     1      43.574 -11.794  12.186  1.00  0.00     0.009 A 
ENDBRANCH  37  38
ENDBRANCH  34  37
ENDBRANCH  33  34
ENDBRANCH  31  33
ENDBRANCH   1  28
TORSDOF 9
ENDMDL
MODEL 7
REMARK VINA RESULT:      -9.4      4.141      9.368
REMARK  9 active torsions:
REMARK  status: ('A' for Active; 'I' for Inactive)
REMARK    1  A    between atoms: N_2  and  C_4 
REMARK    2  A    between atoms: N_2  and  C_35 
REMARK    3  A    between atoms: C_4  and  C_5 
REMARK    4  A    between atoms: N_8  and  C_9 
REMARK    5  A    between atoms: C_12  and  N_13 
REMARK       I    between atoms: N_13  and  C_14 
REMARK       I    between atoms: C_14  and  N_15 
REMARK    6  A    between atoms: N_15  and  C_16 
REMARK    7  A    between atoms: C_19  and  O_20 
REMARK    8  A    between atoms: O_20  and  C_21 
REMARK    9  A    between atoms: C_35  and  C_36 
ROOT
HETATM    1  C   UNL     1      43.275 -16.178   6.506  1.00  0.00     0.161 C 
HETATM    2  C   UNL     1      42.767 -15.522   5.228  1.00  0.00     0.179 C 
HETATM    3  C   UNL     1      42.988 -14.042   5.492  1.00  0.00     0.177 C 
HETATM    4  C   UNL     1      41.617 -13.500   5.886  1.00  0.00     0.141 C 
HETATM    5  C   UNL     1      40.652 -14.665   5.691  1.00  0.00     0.196 C 
HETATM    6  O   UNL     1      41.362 -15.713   5.009  1.00  0.00    -0.379 OA
HETATM    7  O   UNL     1      43.912 -13.911   6.587  1.00  0.00    -0.379 OA
HETATM    8  C   UNL     1      44.374 -15.223   6.934  1.00  0.00     0.198 C 
ENDROOT
BRANCH   4   9
HETATM    9  N   UNL     1      41.266 -12.260   5.207  1.00  0.00    -0.334 N 
HETATM   10  C   UNL     1      41.076 -11.930   3.904  1.00  0.00     0.321 C 
HETATM   11  N   UNL     1      40.945 -12.952   3.005  1.00  0.00    -0.309 N 
HETATM   12  O   UNL     1      41.025 -10.729   3.656  1.00  0.00    -0.247 OA
HETATM   13  H   UNL     1      40.762 -13.870   3.372  1.00  0.00     0.170 HD
HETATM   14  H   UNL     1      41.393 -11.409   5.745  1.00  0.00     0.164 HD
BRANCH  11  15
HETATM   15  C   UNL     1      40.707 -12.792   1.617  1.00  0.00     0.036 A 
HETATM   16  C   UNL     1      39.431 -12.672   1.064  1.00  0.00     0.032 A 
HETATM   17  C   UNL     1      39.260 -12.585  -0.320  1.00  0.00     0.039 A 
HETATM   18  C   UNL     1      40.360 -12.606  -1.177  1.00  0.00     0.076 A 
HETATM   19  C   UNL     1      41.642 -12.701  -0.634  1.00  0.00     0.039 A 
HETATM   20  C   UNL     1      41.814 -12.775   0.756  1.00  0.00     0.032 A 
BRANCH  18  21
HETATM   21  O   UNL     1      40.046 -12.598  -2.517  1.00  0.00    -0.311 OA
BRANCH  21  22
HETATM   22  C   UNL     1      39.554 -13.737  -3.097  1.00  0.00     0.076 A 
HETATM   23  C   UNL     1      40.389 -14.853  -3.147  1.00  0.00     0.037 A 
HETATM   24  C   UNL     1      39.901 -16.063  -3.642  1.00  0.00     0.003 A 
HETATM   25  C   UNL     1      38.576 -16.155  -4.072  1.00  0.00     0.000 A 
HETATM   26  C   UNL     1      37.737 -15.040  -4.001  1.00  0.00     0.003 A 
HETATM   27  C   UNL     1      38.222 -13.831  -3.503  1.00  0.00     0.037 A 
ENDBRANCH  21  22
ENDBRANCH  18  21
ENDBRANCH  11  15
ENDBRANCH   4   9
BRANCH   1  28
HETATM   28  N   UNL     1      43.711 -17.545   6.364  1.00  0.00    -0.274 N 
HETATM   29  N   UNL     1      43.395 -18.483   7.276  1.00  0.00     0.005 NA
HETATM   30  N   UNL     1      43.847 -19.648   6.840  1.00  0.00    -0.161 NA
HETATM   31  C   UNL     1      44.450 -19.444   5.628  1.00  0.00     0.095 A 
HETATM   32  C   UNL     1      44.370 -18.107   5.304  1.00  0.00     0.139 A 
BRANCH  31  33
HETATM   33  C   UNL     1      45.034 -20.592   4.889  1.00  0.00     0.296 C 
BRANCH  33  34
HETATM   34  N   UNL     1      44.345 -20.874   3.568  1.00  0.00    -0.066 N 
HETATM   35  C   UNL     1      44.387 -22.332   3.218  1.00  0.00     0.270 C 
HETATM   36  H   UNL     1      43.358 -20.619   3.719  1.00  0.00     0.280 HD
BRANCH  34  37
HETATM   37  C   UNL     1      44.841 -19.972   2.459  1.00  0.00     0.273 C 
BRANCH  37  38
HETATM   38  C   UNL     1      43.862 -18.901   2.058  1.00  0.00    -0.033 A 
HETATM   39  C   UNL     1      42.479 -19.136   2.113  1.00  0.00     0.009 A 
HETATM   40  C   UNL     1      41.580 -18.148   1.708  1.00  0.00     0.001 A 
HETATM   41  C   UNL     1      42.049 -16.918   1.252  1.00  0.00     0.000 A 
HETATM   42  C   UNL     1      43.419 -16.670   1.203  1.00  0.00     0.001 A 
HETATM   43  C   UNL     1      44.322 -17.655   1.604  1.00  0.00     0.009 A 
ENDBRANCH  37  38
ENDBRANCH  34  37
ENDBRANCH  33  34
ENDBRANCH  31  33
ENDBRANCH   1  28
TORSDOF 9
ENDMDL
MODEL 8
REMARK VINA RESULT:      -9.1      6.947     11.777
REMARK  9 active torsions:
REMARK  status: ('A' for Active; 'I' for Inactive)
REMARK    1  A    between atoms: N_2  and  C_4 
REMARK    2  A    between atoms: N_2  and  C_35 
REMARK    3  A    between atoms: C_4  and  C_5 
REMARK    4  A    between atoms: N_8  and  C_9 
REMARK    5  A    between atoms: C_12  and  N_13 
REMARK       I    between atoms: N_13  and  C_14 
REMARK       I    between atoms: C_14  and  N_15 
REMARK    6  A    between atoms: N_15  and  C_16 
REMARK    7  A    between atoms: C_19  and  O_20 
REMARK    8  A    between atoms: O_20  and  C_21 
REMARK    9  A    between atoms: C_35  and  C_36 
ROOT
HETATM    1  C   UNL     1      37.414 -14.257  -3.505  1.00  0.00     0.161 C 
HETATM    2  C   UNL     1      38.278 -13.131  -2.951  1.00  0.00     0.179 C 
HETATM    3  C   UNL     1      39.502 -13.863  -2.428  1.00  0.00     0.177 C 
HETATM    4  C   UNL     1      39.293 -13.959  -0.919  1.00  0.00     0.141 C 
HETATM    5  C   UNL     1      38.029 -13.152  -0.636  1.00  0.00     0.196 C 
HETATM    6  O   UNL     1      37.680 -12.448  -1.840  1.00  0.00    -0.379 OA
HETATM    7  O   UNL     1      39.527 -15.177  -3.014  1.00  0.00    -0.379 OA
HETATM    8  C   UNL     1      38.460 -15.256  -3.967  1.00  0.00     0.198 C 
ENDROOT
BRANCH   4   9
HETATM    9  N   UNL     1      40.471 -13.591  -0.146  1.00  0.00    -0.334 N 
HETATM   10  C   UNL     1      41.257 -14.259   0.736  1.00  0.00     0.321 C 
HETATM   11  N   UNL     1      41.126 -15.618   0.796  1.00  0.00    -0.309 N 
HETATM   12  O   UNL     1      42.032 -13.572   1.394  1.00  0.00    -0.247 OA
HETATM   13  H   UNL     1      40.640 -16.070   0.040  1.00  0.00     0.170 HD
HETATM   14  H   UNL     1      40.641 -12.594  -0.046  1.00  0.00     0.164 HD
BRANCH  11  15
HETATM   15  C   UNL     1      41.886 -16.476   1.630  1.00  0.00     0.036 A 
HETATM   16  C   UNL     1      41.466 -16.890   2.895  1.00  0.00     0.032 A 
HETATM   17  C   UNL     1      42.292 -17.682   3.697  1.00  0.00     0.039 A 
HETATM   18  C   UNL     1      43.550 -18.082   3.247  1.00  0.00     0.076 A 
HETATM   19  C   UNL     1      43.970 -17.695   1.974  1.00  0.00     0.039 A 
HETATM   20  C   UNL     1      43.135 -16.911   1.164  1.00  0.00     0.032 A 
BRANCH  18  21
HETATM   21  O   UNL     1      44.293 -18.786   4.167  1.00  0.00    -0.311 OA
BRANCH  21  22
HETATM   22  C   UNL     1      44.493 -20.128   3.980  1.00  0.00     0.076 A 
HETATM   23  C   UNL     1      44.804 -20.900   5.100  1.00  0.00     0.037 A 
HETATM   24  C   UNL     1      44.925 -22.285   4.977  1.00  0.00     0.003 A 
HETATM   25  C   UNL     1      44.720 -22.892   3.738  1.00  0.00     0.000 A 
HETATM   26  C   UNL     1      44.388 -22.119   2.623  1.00  0.00     0.003 A 
HETATM   27  C   UNL     1      44.263 -20.735   2.745  1.00  0.00     0.037 A 
ENDBRANCH  21  22
ENDBRANCH  18  21
ENDBRANCH  11  15
ENDBRANCH   4   9
BRANCH   1  28
HETATM   28  N   UNL     1      36.482 -13.869  -4.534  1.00  0.00    -0.274 N 
HETATM   29  N   UNL     1      35.741 -14.778  -5.192  1.00  0.00     0.005 NA
HETATM   30  N   UNL     1      34.919 -14.130  -6.003  1.00  0.00    -0.161 NA
HETATM   31  C   UNL     1      35.141 -12.788  -5.847  1.00  0.00     0.095 A 
HETATM   32  C   UNL     1      36.132 -12.600  -4.910  1.00  0.00     0.139 A 
BRANCH  31  33
HETATM   33  C   UNL     1      34.336 -11.811  -6.624  1.00  0.00     0.296 C 
BRANCH  33  34
HETATM   34  N   UNL     1      32.951 -11.577  -6.054  1.00  0.00    -0.066 N 
HETATM   35  C   UNL     1      31.986 -11.117  -7.105  1.00  0.00     0.270 C 
HETATM   36  H   UNL     1      32.636 -12.501  -5.725  1.00  0.00     0.280 HD
BRANCH  34  37
HETATM   37  C   UNL     1      32.978 -10.690  -4.828  1.00  0.00     0.273 C 
BRANCH  37  38
HETATM   38  C   UNL     1      32.087 -11.162  -3.712  1.00  0.00    -0.033 A 
HETATM   39  C   UNL     1      31.821 -10.336  -2.608  1.00  0.00     0.009 A 
HETATM   40  C   UNL     1      31.019 -10.795  -1.562  1.00  0.00     0.001 A 
HETATM   41  C   UNL     1      30.471 -12.075  -1.608  1.00  0.00     0.000 A 
HETATM   42  C   UNL     1      30.719 -12.900  -2.702  1.00  0.00     0.001 A 
HETATM   43  C   UNL     1      31.523 -12.448  -3.750  1.00  0.00     0.009 A 
ENDBRANCH  37  38
ENDBRANCH  34  37
ENDBRANCH  33  34
ENDBRANCH  31  33
ENDBRANCH   1  28
TORSDOF 9
ENDMDL
MODEL 9
REMARK VINA RESULT:      -9.1      5.872     10.888
REMARK  9 active torsions:
REMARK  status: ('A' for Active; 'I' for Inactive)
REMARK    1  A    between atoms: N_2  and  C_4 
REMARK    2  A    between atoms: N_2  and  C_35 
REMARK    3  A    between atoms: C_4  and  C_5 
REMARK    4  A    between atoms: N_8  and  C_9 
REMARK    5  A    between atoms: C_12  and  N_13 
REMARK       I    between atoms: N_13  and  C_14 
REMARK       I    between atoms: C_14  and  N_15 
REMARK    6  A    between atoms: N_15  and  C_16 
REMARK    7  A    between atoms: C_19  and  O_20 
REMARK    8  A    between atoms: O_20  and  C_21 
REMARK    9  A    between atoms: C_35  and  C_36 
ROOT
HETATM    1  C   UNL     1      41.517 -15.666   3.110  1.00  0.00     0.161 C 
HETATM    2  C   UNL     1      42.424 -15.392   1.917  1.00  0.00     0.179 C 
HETATM    3  C   UNL     1      41.619 -14.400   1.095  1.00  0.00     0.177 C 
HETATM    4  C   UNL     1      40.998 -15.228  -0.027  1.00  0.00     0.141 C 
HETATM    5  C   UNL     1      41.592 -16.625   0.126  1.00  0.00     0.196 C 
HETATM    6  O   UNL     1      42.650 -16.547   1.096  1.00  0.00    -0.379 OA
HETATM    7  O   UNL     1      40.591 -13.845   1.935  1.00  0.00    -0.379 OA
HETATM    8  C   UNL     1      40.793 -14.340   3.265  1.00  0.00     0.198 C 
ENDROOT
BRANCH   4   9
HETATM    9  N   UNL     1      41.135 -14.617  -1.342  1.00  0.00    -0.334 N 
HETATM   10  C   UNL     1      40.252 -14.310  -2.327  1.00  0.00     0.321 C 
HETATM   11  N   UNL     1      38.922 -14.334  -2.014  1.00  0.00    -0.309 N 
HETATM   12  O   UNL     1      40.741 -14.020  -3.415  1.00  0.00    -0.247 OA
HETATM   13  H   UNL     1      38.676 -14.346  -1.039  1.00  0.00     0.170 HD
HETATM   14  H   UNL     1      42.074 -14.605  -1.729  1.00  0.00     0.164 HD
BRANCH  11  15
HETATM   15  C   UNL     1      37.868 -14.008  -2.904  1.00  0.00     0.036 A 
HETATM   16  C   UNL     1      37.239 -14.945  -3.726  1.00  0.00     0.032 A 
HETATM   17  C   UNL     1      36.251 -14.548  -4.632  1.00  0.00     0.039 A 
HETATM   18  C   UNL     1      35.868 -13.210  -4.727  1.00  0.00     0.076 A 
HETATM   19  C   UNL     1      36.473 -12.270  -3.893  1.00  0.00     0.039 A 
HETATM   20  C   UNL     1      37.455 -12.671  -2.975  1.00  0.00     0.032 A 
BRANCH  18  21
HETATM   21  O   UNL     1      34.948 -12.945  -5.716  1.00  0.00    -0.311 OA
BRANCH  21  22
HETATM   22  C   UNL     1      35.364 -12.882  -7.020  1.00  0.00     0.076 A 
HETATM   23  C   UNL     1      35.164 -14.008  -7.819  1.00  0.00     0.037 A 
HETATM   24  C   UNL     1      35.485 -13.960  -9.176  1.00  0.00     0.003 A 
HETATM   25  C   UNL     1      35.990 -12.783  -9.730  1.00  0.00     0.000 A 
HETATM   26  C   UNL     1      36.169 -11.652  -8.931  1.00  0.00     0.003 A 
HETATM   27  C   UNL     1      35.845 -11.696  -7.575  1.00  0.00     0.037 A 
ENDBRANCH  21  22
ENDBRANCH  18  21
ENDBRANCH  11  15
ENDBRANCH   4   9
BRANCH   1  28
HETATM   28  N   UNL     1      42.189 -16.108   4.307  1.00  0.00    -0.274 N 
HETATM   29  N   UNL     1      42.757 -15.235   5.158  1.00  0.00     0.005 NA
HETATM   30  N   UNL     1      43.213 -15.914   6.199  1.00  0.00    -0.161 NA
HETATM   31  C   UNL     1      42.919 -17.237   6.005  1.00  0.00     0.095 A 
HETATM   32  C   UNL     1      42.261 -17.381   4.804  1.00  0.00     0.139 A 
BRANCH  31  33
HETATM   33  C   UNL     1      43.296 -18.237   7.036  1.00  0.00     0.296 C 
BRANCH  33  34
HETATM   34  N   UNL     1      43.561 -19.619   6.471  1.00  0.00    -0.066 N 
HETATM   35  C   UNL     1      43.633 -20.658   7.549  1.00  0.00     0.270 C 
HETATM   36  H   UNL     1      42.739 -19.832   5.887  1.00  0.00     0.280 HD
BRANCH  34  37
HETATM   37  C   UNL     1      44.749 -19.636   5.534  1.00  0.00     0.273 C 
BRANCH  37  38
HETATM   38  C   UNL     1      44.511 -20.398   4.259  1.00  0.00    -0.033 A 
HETATM   39  C   UNL     1      44.777 -21.775   4.185  1.00  0.00     0.009 A 
HETATM   40  C   UNL     1      44.584 -22.467   2.988  1.00  0.00     0.001 A 
HETATM   41  C   UNL     1      44.121 -21.797   1.858  1.00  0.00     0.000 A 
HETATM   42  C   UNL     1      43.844 -20.433   1.921  1.00  0.00     0.001 A 
HETATM   43  C   UNL     1      44.037 -19.736   3.115  1.00  0.00     0.009 A 
ENDBRANCH  37  38
ENDBRANCH  34  37
ENDBRANCH  33  34
ENDBRANCH  31  33
ENDBRANCH   1  28
TORSDOF 9
ENDMDL
MODEL 10
REMARK VINA RESULT:      -8.8      4.194      9.956
REMARK  9 active torsions:
REMARK  status: ('A' for Active; 'I' for Inactive)
REMARK    1  A    between atoms: N_2  and  C_4 
REMARK    2  A    between atoms: N_2  and  C_35 
REMARK    3  A    between atoms: C_4  and  C_5 
REMARK    4  A    between atoms: N_8  and  C_9 
REMARK    5  A    between atoms: C_12  and  N_13 
REMARK       I    between atoms: N_13  and  C_14 
REMARK       I    between atoms: C_14  and  N_15 
REMARK    6  A    between atoms: N_15  and  C_16 
REMARK    7  A    between atoms: C_19  and  O_20 
REMARK    8  A    between atoms: O_20  and  C_21 
REMARK    9  A    between atoms: C_35  and  C_36 
ROOT
HETATM    1  C   UNL     1      43.203 -16.178   6.453  1.00  0.00     0.161 C 
HETATM    2  C   UNL     1      42.710 -15.495   5.183  1.00  0.00     0.179 C 
HETATM    3  C   UNL     1      42.904 -14.019   5.490  1.00  0.00     0.177 C 
HETATM    4  C   UNL     1      41.517 -13.509   5.872  1.00  0.00     0.141 C 
HETATM    5  C   UNL     1      40.574 -14.683   5.628  1.00  0.00     0.196 C 
HETATM    6  O   UNL     1      41.313 -15.701   4.932  1.00  0.00    -0.379 OA
HETATM    7  O   UNL     1      43.804 -13.904   6.606  1.00  0.00    -0.379 OA
HETATM    8  C   UNL     1      44.280 -15.217   6.927  1.00  0.00     0.198 C 
ENDROOT
BRANCH   4   9
HETATM    9  N   UNL     1      41.159 -12.257   5.219  1.00  0.00    -0.334 N 
HETATM   10  C   UNL     1      41.051 -11.878   3.920  1.00  0.00     0.321 C 
HETATM   11  N   UNL     1      41.034 -12.864   2.973  1.00  0.00    -0.309 N 
HETATM   12  O   UNL     1      40.962 -10.671   3.718  1.00  0.00    -0.247 OA
HETATM   13  H   UNL     1      40.867 -13.805   3.287  1.00  0.00     0.170 HD
HETATM   14  H   UNL     1      41.207 -11.426   5.800  1.00  0.00     0.164 HD
BRANCH  11  15
HETATM   15  C   UNL     1      40.892 -12.654   1.578  1.00  0.00     0.036 A 
HETATM   16  C   UNL     1      39.656 -12.596   0.931  1.00  0.00     0.032 A 
HETATM   17  C   UNL     1      39.585 -12.454  -0.457  1.00  0.00     0.039 A 
HETATM   18  C   UNL     1      40.747 -12.357  -1.224  1.00  0.00     0.076 A 
HETATM   19  C   UNL     1      41.987 -12.389  -0.585  1.00  0.00     0.039 A 
HETATM   20  C   UNL     1      42.057 -12.518   0.811  1.00  0.00     0.032 A 
BRANCH  18  21
HETATM   21  O   UNL     1      40.537 -12.306  -2.583  1.00  0.00    -0.311 OA
BRANCH  21  22
HETATM   22  C   UNL     1      41.046 -11.256  -3.301  1.00  0.00     0.076 A 
HETATM   23  C   UNL     1      40.637  -9.970  -2.949  1.00  0.00     0.037 A 
HETATM   24  C   UNL     1      41.200  -8.864  -3.589  1.00  0.00     0.003 A 
HETATM   25  C   UNL     1      42.178  -9.050  -4.566  1.00  0.00     0.000 A 
HETATM   26  C   UNL     1      42.600 -10.339  -4.900  1.00  0.00     0.003 A 
HETATM   27  C   UNL     1      42.042 -11.445  -4.260  1.00  0.00     0.037 A 
ENDBRANCH  21  22
ENDBRANCH  18  21
ENDBRANCH  11  15
ENDBRANCH   4   9
BRANCH   1  28
HETATM   28  N   UNL     1      43.663 -17.534   6.283  1.00  0.00    -0.274 N 
HETATM   29  N   UNL     1      43.318 -18.506   7.146  1.00  0.00     0.005 NA
HETATM   30  N   UNL     1      43.804 -19.651   6.691  1.00  0.00    -0.161 NA
HETATM   31  C   UNL     1      44.460 -19.396   5.516  1.00  0.00     0.095 A 
HETATM   32  C   UNL     1      44.377 -18.050   5.236  1.00  0.00     0.139 A 
BRANCH  31  33
HETATM   33  C   UNL     1      45.092 -20.511   4.765  1.00  0.00     0.296 C 
BRANCH  33  34
HETATM   34  N   UNL     1      44.359 -20.871   3.487  1.00  0.00    -0.066 N 
HETATM   35  C   UNL     1      44.412 -22.344   3.211  1.00  0.00     0.270 C 
HETATM   36  H   UNL     1      43.375 -20.622   3.662  1.00  0.00     0.280 HD
BRANCH  34  37
HETATM   37  C   UNL     1      44.799 -20.020   2.316  1.00  0.00     0.273 C 
BRANCH  37  38
HETATM   38  C   UNL     1      43.835 -18.920   1.964  1.00  0.00    -0.033 A 
HETATM   39  C   UNL     1      44.301 -17.655   1.572  1.00  0.00     0.009 A 
HETATM   40  C   UNL     1      43.399 -16.631   1.278  1.00  0.00     0.001 A 
HETATM   41  C   UNL     1      42.027 -16.859   1.366  1.00  0.00     0.000 A 
HETATM   42  C   UNL     1      41.552 -18.112   1.744  1.00  0.00     0.001 A 
HETATM   43  C   UNL     1      42.450 -19.139   2.041  1.00  0.00     0.009 A 
ENDBRANCH  37  38
ENDBRANCH  34  37
ENDBRANCH  33  34
ENDBRANCH  31  33
ENDBRANCH   1  28
TORSDOF 9
ENDMDL
