MODEL 1
REMARK VINA RESULT:      -9.1      0.000      0.000
REMARK  7 active torsions:
REMARK  status: ('A' for Active; 'I' for Inactive)
REMARK    1  A    between atoms: C_2  and  N_3 
REMARK    2  A    between atoms: C_5  and  C_6 
REMARK    3  A    between atoms: C_6  and  N_7 
REMARK       I    between atoms: N_7  and  C_8 
REMARK    4  A    between atoms: C_8  and  C_9 
REMARK    5  A    between atoms: N_15  and  C_16 
REMARK    6  A    between atoms: C_16  and  C_17 
REMARK       I    between atoms: C_17  and  N_18 
REMARK    7  A    between atoms: N_18  and  C_19 
ROOT
HETATM    1  C   UNL     1      40.336 -12.206   6.100  1.00  0.00     0.081 A 
HETATM    2  S   UNL     1      39.082 -12.091   4.933  1.00  0.00    -0.063 SA
HETATM    3  C   UNL     1      39.993 -12.898   3.754  1.00  0.00     0.116 A 
HETATM    4  C   UNL     1      41.247 -13.236   4.211  1.00  0.00     0.075 A 
HETATM    5  C   UNL     1      42.100 -14.003   3.308  1.00  0.00     0.262 A 
HETATM    6  O   UNL     1      43.230 -14.373   3.612  1.00  0.00    -0.267 OA
HETATM    7  N   UNL     1      41.510 -14.297   2.081  1.00  0.00    -0.299 N 
HETATM    8  C   UNL     1      40.229 -13.880   1.772  1.00  0.00     0.214 A 
HETATM    9  N   UNL     1      39.462 -13.175   2.539  1.00  0.00    -0.235 NA
HETATM   10  C   UNL     1      41.487 -12.781   5.564  1.00  0.00    -0.021 A 
HETATM   11  C   UNL     1      42.768 -12.975   6.316  1.00  0.00     0.051 C 
ENDROOT
BRANCH   1  12
HETATM   12  C   UNL     1      40.108 -11.719   7.457  1.00  0.00     0.259 C 
HETATM   13  N   UNL     1      41.192 -11.113   8.065  1.00  0.00    -0.354 N 
HETATM   14  H   UNL     1      42.011 -11.011   7.469  1.00  0.00     0.162 HD
HETATM   15  O   UNL     1      39.041 -11.833   8.061  1.00  0.00    -0.267 OA
BRANCH  13  16
HETATM   16  C   UNL     1      41.181 -10.310   9.285  1.00  0.00     0.156 C 
BRANCH  16  17
HETATM   17  C   UNL     1      41.664 -10.959  10.593  1.00  0.00     0.206 C 
HETATM   18  N   UNL     1      43.022 -11.646  10.531  1.00  0.00    -0.066 N 
HETATM   19  H   UNL     1      42.808 -12.553  10.064  1.00  0.00     0.280 HD
HETATM   20  C   UNL     1      43.388 -11.882  11.982  1.00  0.00     0.235 C 
HETATM   21  C   UNL     1      42.580 -10.861  12.781  1.00  0.00     0.030 C 
HETATM   22  C   UNL     1      41.839 -10.008  11.762  1.00  0.00     0.036 C 
BRANCH  18  23
HETATM   23  C   UNL     1      44.112 -10.973   9.737  1.00  0.00     0.231 C 
HETATM   24  C   UNL     1      45.465 -11.253  10.368  1.00  0.00     0.034 C 
ENDBRANCH  18  23
ENDBRANCH  16  17
ENDBRANCH  13  16
ENDBRANCH   1  12
BRANCH   7  25
HETATM   25  C   UNL     1      42.194 -15.229   1.198  1.00  0.00     0.236 C 
BRANCH  25  26
HETATM   26  C   UNL     1      42.214 -16.617   1.855  1.00  0.00     0.240 C 
HETATM   27  N   UNL     1      43.497 -17.040   2.174  1.00  0.00    -0.326 N 
HETATM   28  H   UNL     1      44.268 -16.435   1.915  1.00  0.00     0.169 HD
HETATM   29  O   UNL     1      41.184 -17.266   2.009  1.00  0.00    -0.271 OA
BRANCH  27  30
HETATM   30  C   UNL     1      43.859 -18.252   2.804  1.00  0.00     0.036 A 
HETATM   31  C   UNL     1      44.015 -19.466   2.133  1.00  0.00     0.053 A 
HETATM   32  C   UNL     1      44.369 -20.627   2.834  1.00  0.00     0.042 A 
HETATM   33 CL   UNL     1      44.522 -22.095   1.934  1.00  0.00    -0.084 Cl
HETATM   34  C   UNL     1      44.581 -20.595   4.219  1.00  0.00    -0.040 A 
HETATM   35  C   UNL     1      44.958 -21.825   4.996  1.00  0.00     0.050 C 
HETATM   36  C   UNL     1      44.418 -19.375   4.888  1.00  0.00     0.011 A 
HETATM   37  C   UNL     1      44.057 -18.219   4.189  1.00  0.00     0.030 A 
ENDBRANCH  27  30
ENDBRANCH  25  26
ENDBRANCH   7  25
TORSDOF 7
ENDMDL
MODEL 2
REMARK VINA RESULT:      -9.0      1.600      2.003
REMARK  7 active torsions:
REMARK  status: ('A' for Active; 'I' for Inactive)
REMARK    1  A    between atoms: C_2  and  N_3 
REMARK    2  A    between atoms: C_5  and  C_6 
REMARK    3  A    between atoms: C_6  and  N_7 
REMARK       I    between atoms: N_7  and  C_8 
REMARK    4  A    between atoms: C_8  and  C_9 
REMARK    5  A    between atoms: N_15  and  C_16 
REMARK    6  A    between atoms: C_16  and  C_17 
REMARK       I    between atoms: C_17  and  N_18 
REMARK    7  A    between atoms: N_18  and  C_19 
ROOT
HETATM    1  C   UNL     1      40.660 -12.039   6.591  1.00  0.00     0.081 A 
HETATM    2  S   UNL     1      42.374 -11.961   6.534  1.00  0.00    -0.063 SA
HETATM    3  C   UNL     1      42.463 -13.063   5.249  1.00  0.00     0.116 A 
HETATM    4  C   UNL     1      41.220 -13.518   4.871  1.00  0.00     0.075 A 
HETATM    5  C   UNL     1      41.161 -14.417   3.724  1.00  0.00     0.262 A 
HETATM    6  O   UNL     1      40.109 -14.874   3.286  1.00  0.00    -0.267 OA
HETATM    7  N   UNL     1      42.402 -14.694   3.153  1.00  0.00    -0.299 N 
HETATM    8  C   UNL     1      43.569 -14.153   3.657  1.00  0.00     0.214 A 
HETATM    9  N   UNL     1      43.656 -13.379   4.690  1.00  0.00    -0.235 NA
HETATM   10  C   UNL     1      40.157 -12.976   5.690  1.00  0.00    -0.021 A 
HETATM   11  C   UNL     1      38.704 -13.309   5.536  1.00  0.00     0.051 C 
ENDROOT
BRANCH   1  12
HETATM   12  C   UNL     1      39.928 -11.183   7.520  1.00  0.00     0.259 C 
HETATM   13  N   UNL     1      40.118 -11.455   8.862  1.00  0.00    -0.354 N 
HETATM   14  H   UNL     1      40.805 -12.182   9.054  1.00  0.00     0.162 HD
HETATM   15  O   UNL     1      39.170 -10.276   7.171  1.00  0.00    -0.267 OA
BRANCH  13  16
HETATM   16  C   UNL     1      39.738 -10.613   9.993  1.00  0.00     0.156 C 
BRANCH  16  17
HETATM   17  C   UNL     1      40.310 -10.948  11.381  1.00  0.00     0.206 C 
HETATM   18  N   UNL     1      41.786 -11.323  11.416  1.00  0.00    -0.066 N 
HETATM   19  H   UNL     1      41.788 -12.312  11.087  1.00  0.00     0.280 HD
HETATM   20  C   UNL     1      42.151 -11.266  12.885  1.00  0.00     0.235 C 
HETATM   21  C   UNL     1      41.118 -10.343  13.530  1.00  0.00     0.030 C 
HETATM   22  C   UNL     1      40.240  -9.827  12.399  1.00  0.00     0.036 C 
BRANCH  18  23
HETATM   23  C   UNL     1      42.728 -10.548  10.531  1.00  0.00     0.231 C 
HETATM   24  C   UNL     1      44.125 -10.549  11.129  1.00  0.00     0.034 C 
ENDBRANCH  18  23
ENDBRANCH  16  17
ENDBRANCH  13  16
ENDBRANCH   1  12
BRANCH   7  25
HETATM   25  C   UNL     1      42.429 -15.408   1.886  1.00  0.00     0.236 C 
BRANCH  25  26
HETATM   26  C   UNL     1      43.328 -16.645   2.028  1.00  0.00     0.240 C 
HETATM   27  N   UNL     1      42.927 -17.483   3.059  1.00  0.00    -0.326 N 
HETATM   28  H   UNL     1      42.137 -17.189   3.622  1.00  0.00     0.169 HD
HETATM   29  O   UNL     1      44.316 -16.802   1.318  1.00  0.00    -0.271 OA
BRANCH  27  30
HETATM   30  C   UNL     1      43.522 -18.707   3.437  1.00  0.00     0.036 A 
HETATM   31  C   UNL     1      43.733 -19.777   2.565  1.00  0.00     0.053 A 
HETATM   32  C   UNL     1      44.324 -20.963   3.021  1.00  0.00     0.042 A 
HETATM   33 CL   UNL     1      44.533 -22.248   1.882  1.00  0.00    -0.084 Cl
HETATM   34  C   UNL     1      44.722 -21.101   4.358  1.00  0.00    -0.040 A 
HETATM   35  C   UNL     1      45.354 -22.362   4.874  1.00  0.00     0.050 C 
HETATM   36  C   UNL     1      44.503 -20.027   5.230  1.00  0.00     0.011 A 
HETATM   37  C   UNL     1      43.906 -18.846   4.775  1.00  0.00     0.030 A 
ENDBRANCH  27  30
ENDBRANCH  25  26
ENDBRANCH   7  25
TORSDOF 7
ENDMDL
MODEL 3
REMARK VINA RESULT:      -8.9      0.678      1.445
REMARK  7 active torsions:
REMARK  status: ('A' for Active; 'I' for Inactive)
REMARK    1  A    between atoms: C_2  and  N_3 
REMARK    2  A    between atoms: C_5  and  C_6 
REMARK    3  A    between atoms: C_6  and  N_7 
REMARK       I    between atoms: N_7  and  C_8 
REMARK    4  A    between atoms: C_8  and  C_9 
REMARK    5  A    between atoms: N_15  and  C_16 
REMARK    6  A    between atoms: C_16  and  C_17 
REMARK       I    between atoms: C_17  and  N_18 
REMARK    7  A    between atoms: N_18  and  C_19 
ROOT
HETATM    1  C   UNL     1      40.321 -12.195   5.944  1.00  0.00     0.081 A 
HETATM    2  S   UNL     1      39.065 -12.021   4.787  1.00  0.00    -0.063 SA
HETATM    3  C   UNL     1      39.934 -12.860   3.597  1.00  0.00     0.116 A 
HETATM    4  C   UNL     1      41.176 -13.251   4.043  1.00  0.00     0.075 A 
HETATM    5  C   UNL     1      41.989 -14.048   3.130  1.00  0.00     0.262 A 
HETATM    6  O   UNL     1      43.106 -14.467   3.423  1.00  0.00    -0.267 OA
HETATM    7  N   UNL     1      41.379 -14.311   1.905  1.00  0.00    -0.299 N 
HETATM    8  C   UNL     1      40.115 -13.839   1.608  1.00  0.00     0.214 A 
HETATM    9  N   UNL     1      39.383 -13.107   2.384  1.00  0.00    -0.235 NA
HETATM   10  C   UNL     1      41.444 -12.814   5.396  1.00  0.00    -0.021 A 
HETATM   11  C   UNL     1      42.721 -13.066   6.139  1.00  0.00     0.051 C 
ENDROOT
BRANCH   1  12
HETATM   12  C   UNL     1      40.124 -11.706   7.305  1.00  0.00     0.259 C 
HETATM   13  N   UNL     1      41.189 -11.016   7.854  1.00  0.00    -0.354 N 
HETATM   14  H   UNL     1      41.969 -10.864   7.217  1.00  0.00     0.162 HD
HETATM   15  O   UNL     1      39.097 -11.888   7.961  1.00  0.00    -0.267 OA
BRANCH  13  16
HETATM   16  C   UNL     1      41.177 -10.199   9.064  1.00  0.00     0.156 C 
BRANCH  16  17
HETATM   17  C   UNL     1      42.493 -10.022   9.841  1.00  0.00     0.206 C 
HETATM   18  N   UNL     1      42.392 -10.148  11.355  1.00  0.00    -0.066 N 
HETATM   19  H   UNL     1      42.002  -9.225  11.645  1.00  0.00     0.280 HD
HETATM   20  C   UNL     1      43.829 -10.272  11.817  1.00  0.00     0.235 C 
HETATM   21  C   UNL     1      44.607 -10.785  10.606  1.00  0.00     0.030 C 
HETATM   22  C   UNL     1      43.581 -11.025   9.508  1.00  0.00     0.036 C 
BRANCH  18  23
HETATM   23  C   UNL     1      41.486 -11.217  11.910  1.00  0.00     0.231 C 
HETATM   24  C   UNL     1      40.345 -10.582  12.687  1.00  0.00     0.034 C 
ENDBRANCH  18  23
ENDBRANCH  16  17
ENDBRANCH  13  16
ENDBRANCH   1  12
BRANCH   7  25
HETATM   25  C   UNL     1      42.018 -15.266   1.013  1.00  0.00     0.236 C 
BRANCH  25  26
HETATM   26  C   UNL     1      42.079 -16.635   1.706  1.00  0.00     0.240 C 
HETATM   27  N   UNL     1      43.377 -17.040   1.979  1.00  0.00    -0.326 N 
HETATM   28  H   UNL     1      44.131 -16.436   1.670  1.00  0.00     0.169 HD
HETATM   29  O   UNL     1      41.061 -17.287   1.923  1.00  0.00    -0.271 OA
BRANCH  27  30
HETATM   30  C   UNL     1      43.776 -18.231   2.625  1.00  0.00     0.036 A 
HETATM   31  C   UNL     1      43.970 -19.449   1.971  1.00  0.00     0.053 A 
HETATM   32  C   UNL     1      44.360 -20.589   2.687  1.00  0.00     0.042 A 
HETATM   33 CL   UNL     1      44.559 -22.064   1.806  1.00  0.00    -0.084 Cl
HETATM   34  C   UNL     1      44.571 -20.532   4.072  1.00  0.00    -0.040 A 
HETATM   35  C   UNL     1      44.986 -21.739   4.864  1.00  0.00     0.050 C 
HETATM   36  C   UNL     1      44.370 -19.308   4.723  1.00  0.00     0.011 A 
HETATM   37  C   UNL     1      43.974 -18.173   4.009  1.00  0.00     0.030 A 
ENDBRANCH  27  30
ENDBRANCH  25  26
ENDBRANCH   7  25
TORSDOF 7
ENDMDL
MODEL 4
REMARK VINA RESULT:      -8.8      4.933      7.429
REMARK  7 active torsions:
REMARK  status: ('A' for Active; 'I' for Inactive)
REMARK    1  A    between atoms: C_2  and  N_3 
REMARK    2  A    between atoms: C_5  and  C_6 
REMARK    3  A    between atoms: C_6  and  N_7 
REMARK       I    between atoms: N_7  and  C_8 
REMARK    4  A    between atoms: C_8  and  C_9 
REMARK    5  A    between atoms: N_15  and  C_16 
REMARK    6  A    between atoms: C_16  and  C_17 
REMARK       I    between atoms: C_17  and  N_18 
REMARK    7  A    between atoms: N_18  and  C_19 
ROOT
HETATM    1  C   UNL     1      37.813 -11.377   1.730  1.00  0.00     0.081 A 
HETATM    2  S   UNL     1      38.703 -11.534   3.189  1.00  0.00    -0.063 SA
HETATM    3  C   UNL     1      39.663 -12.785   2.565  1.00  0.00     0.116 A 
HETATM    4  C   UNL     1      39.309 -13.113   1.275  1.00  0.00     0.075 A 
HETATM    5  C   UNL     1      40.115 -14.127   0.603  1.00  0.00     0.262 A 
HETATM    6  O   UNL     1      39.904 -14.489  -0.551  1.00  0.00    -0.267 OA
HETATM    7  N   UNL     1      41.157 -14.633   1.378  1.00  0.00    -0.299 N 
HETATM    8  C   UNL     1      41.379 -14.195   2.669  1.00  0.00     0.214 A 
HETATM    9  N   UNL     1      40.665 -13.321   3.301  1.00  0.00    -0.235 NA
HETATM   10  C   UNL     1      38.185 -12.340   0.793  1.00  0.00    -0.021 A 
HETATM   11  C   UNL     1      37.559 -12.493  -0.560  1.00  0.00     0.051 C 
ENDROOT
BRANCH   1  12
HETATM   12  C   UNL     1      36.807 -10.326   1.606  1.00  0.00     0.259 C 
HETATM   13  N   UNL     1      35.492 -10.753   1.609  1.00  0.00    -0.354 N 
HETATM   14  H   UNL     1      35.370 -11.751   1.769  1.00  0.00     0.162 HD
HETATM   15  O   UNL     1      37.071  -9.129   1.490  1.00  0.00    -0.267 OA
BRANCH  13  16
HETATM   16  C   UNL     1      34.299  -9.926   1.769  1.00  0.00     0.156 C 
BRANCH  16  17
HETATM   17  C   UNL     1      32.933 -10.624   1.879  1.00  0.00     0.206 C 
HETATM   18  N   UNL     1      32.312 -10.653   3.269  1.00  0.00    -0.066 N 
HETATM   19  H   UNL     1      32.833 -11.418   3.747  1.00  0.00     0.280 HD
HETATM   20  C   UNL     1      30.877 -11.074   3.029  1.00  0.00     0.235 C 
HETATM   21  C   UNL     1      30.580 -10.712   1.574  1.00  0.00     0.030 C 
HETATM   22  C   UNL     1      31.824 -10.013   1.044  1.00  0.00     0.036 C 
BRANCH  18  23
HETATM   23  C   UNL     1      32.442  -9.415   4.120  1.00  0.00     0.231 C 
HETATM   24  C   UNL     1      32.806  -9.799   5.544  1.00  0.00     0.034 C 
ENDBRANCH  18  23
ENDBRANCH  16  17
ENDBRANCH  13  16
ENDBRANCH   1  12
BRANCH   7  25
HETATM   25  C   UNL     1      42.137 -15.490   0.731  1.00  0.00     0.236 C 
BRANCH  25  26
HETATM   26  C   UNL     1      42.176 -16.843   1.457  1.00  0.00     0.240 C 
HETATM   27  N   UNL     1      43.445 -17.171   1.911  1.00  0.00    -0.326 N 
HETATM   28  H   UNL     1      44.201 -16.532   1.692  1.00  0.00     0.169 HD
HETATM   29  O   UNL     1      41.174 -17.546   1.551  1.00  0.00    -0.271 OA
BRANCH  27  30
HETATM   30  C   UNL     1      43.815 -18.327   2.633  1.00  0.00     0.036 A 
HETATM   31  C   UNL     1      44.017 -19.581   2.052  1.00  0.00     0.053 A 
HETATM   32  C   UNL     1      44.377 -20.682   2.840  1.00  0.00     0.042 A 
HETATM   33 CL   UNL     1      44.589 -22.204   2.047  1.00  0.00    -0.084 Cl
HETATM   34  C   UNL     1      44.549 -20.551   4.225  1.00  0.00    -0.040 A 
HETATM   35  C   UNL     1      44.930 -21.715   5.094  1.00  0.00     0.050 C 
HETATM   36  C   UNL     1      44.339 -19.292   4.803  1.00  0.00     0.011 A 
HETATM   37  C   UNL     1      43.973 -18.195   4.017  1.00  0.00     0.030 A 
ENDBRANCH  27  30
ENDBRANCH  25  26
ENDBRANCH   7  25
TORSDOF 7
ENDMDL
MODEL 5
REMARK VINA RESULT:      -8.7      4.812      7.538
REMARK  7 active torsions:
REMARK  status: ('A' for Active; 'I' for Inactive)
REMARK    1  A    between atoms: C_2  and  N_3 
REMARK    2  A    between atoms: C_5  and  C_6 
REMARK    3  A    between atoms: C_6  and  N_7 
REMARK       I    between atoms: N_7  and  C_8 
REMARK    4  A    between atoms: C_8  and  C_9 
REMARK    5  A    between atoms: N_15  and  C_16 
REMARK    6  A    between atoms: C_16  and  C_17 
REMARK       I    between atoms: C_17  and  N_18 
REMARK    7  A    between atoms: N_18  and  C_19 
ROOT
HETATM    1  C   UNL     1      37.534 -12.163   1.212  1.00  0.00     0.081 A 
HETATM    2  S   UNL     1      37.799 -13.678   0.450  1.00  0.00    -0.063 SA
HETATM    3  C   UNL     1      38.937 -14.156   1.612  1.00  0.00     0.116 A 
HETATM    4  C   UNL     1      39.148 -13.181   2.561  1.00  0.00     0.075 A 
HETATM    5  C   UNL     1      40.053 -13.507   3.658  1.00  0.00     0.262 A 
HETATM    6  O   UNL     1      40.305 -12.724   4.570  1.00  0.00    -0.267 OA
HETATM    7  N   UNL     1      40.588 -14.792   3.593  1.00  0.00    -0.299 N 
HETATM    8  C   UNL     1      40.274 -15.657   2.563  1.00  0.00     0.214 A 
HETATM    9  N   UNL     1      39.500 -15.387   1.562  1.00  0.00    -0.235 NA
HETATM   10  C   UNL     1      38.380 -11.981   2.305  1.00  0.00    -0.021 A 
HETATM   11  C   UNL     1      38.424 -10.744   3.148  1.00  0.00     0.051 C 
ENDROOT
BRANCH   1  12
HETATM   12  C   UNL     1      36.521 -11.254   0.684  1.00  0.00     0.259 C 
HETATM   13  N   UNL     1      35.348 -11.177   1.411  1.00  0.00    -0.354 N 
HETATM   14  H   UNL     1      35.350 -11.713   2.277  1.00  0.00     0.162 HD
HETATM   15  O   UNL     1      36.658 -10.593  -0.347  1.00  0.00    -0.267 OA
BRANCH  13  16
HETATM   16  C   UNL     1      34.294 -10.175   1.276  1.00  0.00     0.156 C 
BRANCH  16  17
HETATM   17  C   UNL     1      32.863 -10.558   1.692  1.00  0.00     0.206 C 
HETATM   18  N   UNL     1      32.597 -10.604   3.191  1.00  0.00    -0.066 N 
HETATM   19  H   UNL     1      33.012 -11.517   3.477  1.00  0.00     0.280 HD
HETATM   20  C   UNL     1      31.088 -10.663   3.301  1.00  0.00     0.235 C 
HETATM   21  C   UNL     1      30.557 -10.080   1.992  1.00  0.00     0.030 C 
HETATM   22  C   UNL     1      31.774  -9.622   1.202  1.00  0.00     0.036 C 
BRANCH  18  23
HETATM   23  C   UNL     1      33.223  -9.533   4.047  1.00  0.00     0.231 C 
HETATM   24  C   UNL     1      32.584  -9.528   5.425  1.00  0.00     0.034 C 
ENDBRANCH  18  23
ENDBRANCH  16  17
ENDBRANCH  13  16
ENDBRANCH   1  12
BRANCH   7  25
HETATM   25  C   UNL     1      41.332 -15.282   4.743  1.00  0.00     0.236 C 
BRANCH  25  26
HETATM   26  C   UNL     1      41.592 -16.786   4.566  1.00  0.00     0.240 C 
HETATM   27  N   UNL     1      42.682 -17.048   3.749  1.00  0.00    -0.326 N 
HETATM   28  H   UNL     1      43.157 -16.256   3.331  1.00  0.00     0.169 HD
HETATM   29  O   UNL     1      40.851 -17.625   5.070  1.00  0.00    -0.271 OA
BRANCH  27  30
HETATM   30  C   UNL     1      43.198 -18.318   3.405  1.00  0.00     0.036 A 
HETATM   31  C   UNL     1      43.894 -19.145   4.288  1.00  0.00     0.053 A 
HETATM   32  C   UNL     1      44.381 -20.389   3.865  1.00  0.00     0.042 A 
HETATM   33 CL   UNL     1      45.251 -21.345   5.014  1.00  0.00    -0.084 Cl
HETATM   34  C   UNL     1      44.174 -20.835   2.552  1.00  0.00    -0.040 A 
HETATM   35  C   UNL     1      44.688 -22.163   2.072  1.00  0.00     0.050 C 
HETATM   36  C   UNL     1      43.479 -19.999   1.669  1.00  0.00     0.011 A 
HETATM   37  C   UNL     1      43.001 -18.754   2.090  1.00  0.00     0.030 A 
ENDBRANCH  27  30
ENDBRANCH  25  26
ENDBRANCH   7  25
TORSDOF 7
ENDMDL
MODEL 6
REMARK VINA RESULT:      -8.5      1.914      2.772
REMARK  7 active torsions:
REMARK  status: ('A' for Active; 'I' for Inactive)
REMARK    1  A    between atoms: C_2  and  N_3 
REMARK    2  A    between atoms: C_5  and  C_6 
REMARK    3  A    between atoms: C_6  and  N_7 
REMARK       I    between atoms: N_7  and  C_8 
REMARK    4  A    between atoms: C_8  and  C_9 
REMARK    5  A    between atoms: N_15  and  C_16 
REMARK    6  A    between atoms: C_16  and  C_17 
REMARK       I    between atoms: C_17  and  N_18 
REMARK    7  A    between atoms: N_18  and  C_19 
ROOT
HETATM    1  C   UNL     1      43.120 -12.000   7.725  1.00  0.00     0.081 A 
HETATM    2  S   UNL     1      41.645 -11.379   7.106  1.00  0.00    -0.063 SA
HETATM    3  C   UNL     1      41.669 -12.425   5.772  1.00  0.00     0.116 A 
HETATM    4  C   UNL     1      42.789 -13.225   5.763  1.00  0.00     0.075 A 
HETATM    5  C   UNL     1      42.886 -14.221   4.702  1.00  0.00     0.262 A 
HETATM    6  O   UNL     1      43.830 -15.000   4.601  1.00  0.00    -0.267 OA
HETATM    7  N   UNL     1      41.803 -14.226   3.825  1.00  0.00    -0.299 N 
HETATM    8  C   UNL     1      40.746 -13.348   3.971  1.00  0.00     0.214 A 
HETATM    9  N   UNL     1      40.647 -12.435   4.883  1.00  0.00    -0.235 NA
HETATM   10  C   UNL     1      43.682 -12.944   6.867  1.00  0.00    -0.021 A 
HETATM   11  C   UNL     1      44.991 -13.634   7.104  1.00  0.00     0.051 C 
ENDROOT
BRANCH   1  12
HETATM   12  C   UNL     1      43.630 -11.514   9.004  1.00  0.00     0.259 C 
HETATM   13  N   UNL     1      42.745 -11.580  10.065  1.00  0.00    -0.354 N 
HETATM   14  H   UNL     1      41.856 -12.028   9.848  1.00  0.00     0.162 HD
HETATM   15  O   UNL     1      44.761 -11.055   9.167  1.00  0.00    -0.267 OA
BRANCH  13  16
HETATM   16  C   UNL     1      43.058 -11.423  11.483  1.00  0.00     0.156 C 
BRANCH  16  17
HETATM   17  C   UNL     1      42.909 -10.029  12.115  1.00  0.00     0.206 C 
HETATM   18  N   UNL     1      41.517  -9.416  12.049  1.00  0.00    -0.066 N 
HETATM   19  H   UNL     1      41.457  -9.067  11.069  1.00  0.00     0.280 HD
HETATM   20  C   UNL     1      41.576  -8.249  13.012  1.00  0.00     0.235 C 
HETATM   21  C   UNL     1      42.716  -8.570  13.977  1.00  0.00     0.030 C 
HETATM   22  C   UNL     1      43.223  -9.953  13.597  1.00  0.00     0.036 C 
BRANCH  18  23
HETATM   23  C   UNL     1      40.338 -10.328  12.279  1.00  0.00     0.231 C 
HETATM   24  C   UNL     1      39.046  -9.530  12.232  1.00  0.00     0.034 C 
ENDBRANCH  18  23
ENDBRANCH  16  17
ENDBRANCH  13  16
ENDBRANCH   1  12
BRANCH   7  25
HETATM   25  C   UNL     1      41.706 -15.313   2.863  1.00  0.00     0.236 C 
BRANCH  25  26
HETATM   26  C   UNL     1      41.978 -16.643   3.582  1.00  0.00     0.240 C 
HETATM   27  N   UNL     1      43.057 -17.330   3.046  1.00  0.00    -0.326 N 
HETATM   28  H   UNL     1      43.517 -16.924   2.239  1.00  0.00     0.169 HD
HETATM   29  O   UNL     1      41.254 -17.038   4.491  1.00  0.00    -0.271 OA
BRANCH  27  30
HETATM   30  C   UNL     1      43.580 -18.566   3.488  1.00  0.00     0.036 A 
HETATM   31  C   UNL     1      43.836 -19.652   2.649  1.00  0.00     0.053 A 
HETATM   32  C   UNL     1      44.349 -20.848   3.168  1.00  0.00     0.042 A 
HETATM   33 CL   UNL     1      44.620 -22.153   2.066  1.00  0.00    -0.084 Cl
HETATM   34  C   UNL     1      44.624 -20.980   4.536  1.00  0.00    -0.040 A 
HETATM   35  C   UNL     1      45.172 -22.252   5.120  1.00  0.00     0.050 C 
HETATM   36  C   UNL     1      44.361 -19.889   5.374  1.00  0.00     0.011 A 
HETATM   37  C   UNL     1      43.841 -18.698   4.856  1.00  0.00     0.030 A 
ENDBRANCH  27  30
ENDBRANCH  25  26
ENDBRANCH   7  25
TORSDOF 7
ENDMDL
MODEL 7
REMARK VINA RESULT:      -8.3      1.773      2.195
REMARK  7 active torsions:
REMARK  status: ('A' for Active; 'I' for Inactive)
REMARK    1  A    between atoms: C_2  and  N_3 
REMARK    2  A    between atoms: C_5  and  C_6 
REMARK    3  A    between atoms: C_6  and  N_7 
REMARK       I    between atoms: N_7  and  C_8 
REMARK    4  A    between atoms: C_8  and  C_9 
REMARK    5  A    between atoms: N_15  and  C_16 
REMARK    6  A    between atoms: C_16  and  C_17 
REMARK       I    between atoms: C_17  and  N_18 
REMARK    7  A    between atoms: N_18  and  C_19 
ROOT
HETATM    1  C   UNL     1      40.021 -10.882   6.129  1.00  0.00     0.081 A 
HETATM    2  S   UNL     1      40.702  -9.950   4.858  1.00  0.00    -0.063 SA
HETATM    3  C   UNL     1      40.685 -11.258   3.780  1.00  0.00     0.116 A 
HETATM    4  C   UNL     1      40.198 -12.405   4.366  1.00  0.00     0.075 A 
HETATM    5  C   UNL     1      40.065 -13.582   3.514  1.00  0.00     0.262 A 
HETATM    6  O   UNL     1      39.628 -14.655   3.921  1.00  0.00    -0.267 OA
HETATM    7  N   UNL     1      40.455 -13.375   2.192  1.00  0.00    -0.299 N 
HETATM    8  C   UNL     1      40.929 -12.152   1.758  1.00  0.00     0.214 A 
HETATM    9  N   UNL     1      41.086 -11.101   2.495  1.00  0.00    -0.235 NA
HETATM   10  C   UNL     1      39.864 -12.217   5.761  1.00  0.00    -0.021 A 
HETATM   11  C   UNL     1      39.339 -13.290   6.666  1.00  0.00     0.051 C 
ENDROOT
BRANCH   1  12
HETATM   12  C   UNL     1      39.696 -10.243   7.401  1.00  0.00     0.259 C 
HETATM   13  N   UNL     1      40.543 -10.537   8.452  1.00  0.00    -0.354 N 
HETATM   14  H   UNL     1      41.344 -11.114   8.204  1.00  0.00     0.162 HD
HETATM   15  O   UNL     1      38.731  -9.496   7.570  1.00  0.00    -0.267 OA
BRANCH  13  16
HETATM   16  C   UNL     1      40.621  -9.848   9.738  1.00  0.00     0.156 C 
BRANCH  16  17
HETATM   17  C   UNL     1      41.061 -10.652  10.974  1.00  0.00     0.206 C 
HETATM   18  N   UNL     1      42.425 -11.323  10.877  1.00  0.00    -0.066 N 
HETATM   19  H   UNL     1      42.234 -12.167  10.295  1.00  0.00     0.280 HD
HETATM   20  C   UNL     1      42.741 -11.735  12.300  1.00  0.00     0.235 C 
HETATM   21  C   UNL     1      41.898 -10.822  13.189  1.00  0.00     0.030 C 
HETATM   22  C   UNL     1      41.188  -9.852  12.256  1.00  0.00     0.036 C 
BRANCH  18  23
HETATM   23  C   UNL     1      43.538 -10.555  10.211  1.00  0.00     0.231 C 
HETATM   24  C   UNL     1      44.877 -10.959  10.804  1.00  0.00     0.034 C 
ENDBRANCH  18  23
ENDBRANCH  16  17
ENDBRANCH  13  16
ENDBRANCH   1  12
BRANCH   7  25
HETATM   25  C   UNL     1      40.166 -14.419   1.222  1.00  0.00     0.236 C 
BRANCH  25  26
HETATM   26  C   UNL     1      41.318 -15.435   1.222  1.00  0.00     0.240 C 
HETATM   27  N   UNL     1      41.273 -16.296   2.308  1.00  0.00    -0.326 N 
HETATM   28  H   UNL     1      40.537 -16.151   2.991  1.00  0.00     0.169 HD
HETATM   29  O   UNL     1      42.193 -15.410   0.360  1.00  0.00    -0.271 OA
BRANCH  27  30
HETATM   30  C   UNL     1      42.166 -17.354   2.591  1.00  0.00     0.036 A 
HETATM   31  C   UNL     1      42.969 -17.416   3.731  1.00  0.00     0.053 A 
HETATM   32  C   UNL     1      43.836 -18.498   3.934  1.00  0.00     0.042 A 
HETATM   33 CL   UNL     1      44.812 -18.491   5.362  1.00  0.00    -0.084 Cl
HETATM   34  C   UNL     1      43.913 -19.544   3.003  1.00  0.00    -0.040 A 
HETATM   35  C   UNL     1      44.836 -20.713   3.194  1.00  0.00     0.050 C 
HETATM   36  C   UNL     1      43.109 -19.473   1.859  1.00  0.00     0.011 A 
HETATM   37  C   UNL     1      42.250 -18.389   1.653  1.00  0.00     0.030 A 
ENDBRANCH  27  30
ENDBRANCH  25  26
ENDBRANCH   7  25
TORSDOF 7
ENDMDL
MODEL 8
REMARK VINA RESULT:      -8.2      4.084      8.929
REMARK  7 active torsions:
REMARK  status: ('A' for Active; 'I' for Inactive)
REMARK    1  A    between atoms: C_2  and  N_3 
REMARK    2  A    between atoms: C_5  and  C_6 
REMARK    3  A    between atoms: C_6  and  N_7 
REMARK       I    between atoms: N_7  and  C_8 
REMARK    4  A    between atoms: C_8  and  C_9 
REMARK    5  A    between atoms: N_15  and  C_16 
REMARK    6  A    between atoms: C_16  and  C_17 
REMARK       I    between atoms: C_17  and  N_18 
REMARK    7  A    between atoms: N_18  and  C_19 
ROOT
HETATM    1  C   UNL     1      40.442 -13.746  -0.016  1.00  0.00     0.081 A 
HETATM    2  S   UNL     1      42.071 -13.237   0.169  1.00  0.00    -0.063 SA
HETATM    3  C   UNL     1      42.050 -13.503   1.843  1.00  0.00     0.116 A 
HETATM    4  C   UNL     1      40.822 -13.946   2.281  1.00  0.00     0.075 A 
HETATM    5  C   UNL     1      40.702 -14.282   3.696  1.00  0.00     0.262 A 
HETATM    6  O   UNL     1      39.662 -14.701   4.196  1.00  0.00    -0.267 OA
HETATM    7  N   UNL     1      41.876 -14.105   4.424  1.00  0.00    -0.299 N 
HETATM    8  C   UNL     1      43.037 -13.646   3.831  1.00  0.00     0.214 A 
HETATM    9  N   UNL     1      43.165 -13.312   2.588  1.00  0.00    -0.235 NA
HETATM   10  C   UNL     1      39.849 -14.034   1.212  1.00  0.00    -0.021 A 
HETATM   11  C   UNL     1      38.423 -14.458   1.388  1.00  0.00     0.051 C 
ENDROOT
BRANCH   1  12
HETATM   12  C   UNL     1      39.855 -13.822  -1.351  1.00  0.00     0.259 C 
HETATM   13  N   UNL     1      39.569 -12.608  -1.948  1.00  0.00    -0.354 N 
HETATM   14  H   UNL     1      39.866 -11.793  -1.416  1.00  0.00     0.162 HD
HETATM   15  O   UNL     1      39.602 -14.876  -1.934  1.00  0.00    -0.267 OA
BRANCH  13  16
HETATM   16  C   UNL     1      39.238 -12.375  -3.352  1.00  0.00     0.156 C 
BRANCH  16  17
HETATM   17  C   UNL     1      37.953 -11.596  -3.681  1.00  0.00     0.206 C 
HETATM   18  N   UNL     1      36.948 -12.319  -4.568  1.00  0.00    -0.066 N 
HETATM   19  H   UNL     1      37.354 -12.213  -5.522  1.00  0.00     0.280 HD
HETATM   20  C   UNL     1      35.683 -11.494  -4.448  1.00  0.00     0.235 C 
HETATM   21  C   UNL     1      35.812 -10.734  -3.130  1.00  0.00     0.030 C 
HETATM   22  C   UNL     1      37.105 -11.209  -2.485  1.00  0.00     0.036 C 
BRANCH  18  23
HETATM   23  C   UNL     1      36.732 -13.791  -4.327  1.00  0.00     0.231 C 
HETATM   24  C   UNL     1      35.376 -14.214  -4.867  1.00  0.00     0.034 C 
ENDBRANCH  18  23
ENDBRANCH  16  17
ENDBRANCH  13  16
ENDBRANCH   1  12
BRANCH   7  25
HETATM   25  C   UNL     1      41.917 -14.606   5.789  1.00  0.00     0.236 C 
BRANCH  25  26
HETATM   26  C   UNL     1      42.920 -15.766   5.867  1.00  0.00     0.240 C 
HETATM   27  N   UNL     1      42.432 -16.935   5.301  1.00  0.00    -0.326 N 
HETATM   28  H   UNL     1      41.484 -16.923   4.943  1.00  0.00     0.169 HD
HETATM   29  O   UNL     1      44.004 -15.637   6.429  1.00  0.00    -0.271 OA
BRANCH  27  30
HETATM   30  C   UNL     1      43.109 -18.171   5.190  1.00  0.00     0.036 A 
HETATM   31  C   UNL     1      43.555 -18.713   3.983  1.00  0.00     0.053 A 
HETATM   32  C   UNL     1      44.213 -19.950   3.957  1.00  0.00     0.042 A 
HETATM   33 CL   UNL     1      44.717 -20.561   2.420  1.00  0.00    -0.084 Cl
HETATM   34  C   UNL     1      44.444 -20.667   5.139  1.00  0.00    -0.040 A 
HETATM   35  C   UNL     1      45.144 -21.997   5.139  1.00  0.00     0.050 C 
HETATM   36  C   UNL     1      43.990 -20.121   6.346  1.00  0.00     0.011 A 
HETATM   37  C   UNL     1      43.326 -18.890   6.370  1.00  0.00     0.030 A 
ENDBRANCH  27  30
ENDBRANCH  25  26
ENDBRANCH   7  25
TORSDOF 7
ENDMDL
MODEL 9
REMARK VINA RESULT:      -8.1      4.175      8.649
REMARK  7 active torsions:
REMARK  status: ('A' for Active; 'I' for Inactive)
REMARK    1  A    between atoms: C_2  and  N_3 
REMARK    2  A    between atoms: C_5  and  C_6 
REMARK    3  A    between atoms: C_6  and  N_7 
REMARK       I    between atoms: N_7  and  C_8 
REMARK    4  A    between atoms: C_8  and  C_9 
REMARK    5  A    between atoms: N_15  and  C_16 
REMARK    6  A    between atoms: C_16  and  C_17 
REMARK       I    between atoms: C_17  and  N_18 
REMARK    7  A    between atoms: N_18  and  C_19 
ROOT
HETATM    1  C   UNL     1      40.473 -13.498   0.475  1.00  0.00     0.081 A 
HETATM    2  S   UNL     1      41.998 -12.742   0.695  1.00  0.00    -0.063 SA
HETATM    3  C   UNL     1      42.173 -13.365   2.262  1.00  0.00     0.116 A 
HETATM    4  C   UNL     1      41.085 -14.117   2.643  1.00  0.00     0.075 A 
HETATM    5  C   UNL     1      41.152 -14.769   3.947  1.00  0.00     0.262 A 
HETATM    6  O   UNL     1      40.250 -15.477   4.386  1.00  0.00    -0.267 OA
HETATM    7  N   UNL     1      42.338 -14.536   4.640  1.00  0.00    -0.299 N 
HETATM    8  C   UNL     1      43.343 -13.747   4.114  1.00  0.00     0.214 A 
HETATM    9  N   UNL     1      43.300 -13.133   2.976  1.00  0.00    -0.235 NA
HETATM   10  C   UNL     1      40.051 -14.153   1.631  1.00  0.00    -0.021 A 
HETATM   11  C   UNL     1      38.742 -14.867   1.772  1.00  0.00     0.051 C 
ENDROOT
BRANCH   1  12
HETATM   12  C   UNL     1      39.791 -13.391  -0.812  1.00  0.00     0.259 C 
HETATM   13  N   UNL     1      40.595 -13.071  -1.890  1.00  0.00    -0.354 N 
HETATM   14  H   UNL     1      41.589 -13.014  -1.676  1.00  0.00     0.162 HD
HETATM   15  O   UNL     1      38.580 -13.554  -0.966  1.00  0.00    -0.267 OA
BRANCH  13  16
HETATM   16  C   UNL     1      40.245 -13.161  -3.305  1.00  0.00     0.156 C 
BRANCH  16  17
HETATM   17  C   UNL     1      40.337 -11.889  -4.165  1.00  0.00     0.206 C 
HETATM   18  N   UNL     1      39.009 -11.299  -4.622  1.00  0.00    -0.066 N 
HETATM   19  H   UNL     1      38.737 -11.915  -5.418  1.00  0.00     0.280 HD
HETATM   20  C   UNL     1      39.369  -9.920  -5.134  1.00  0.00     0.235 C 
HETATM   21  C   UNL     1      40.685  -9.558  -4.448  1.00  0.00     0.030 C 
HETATM   22  C   UNL     1      41.001 -10.701  -3.495  1.00  0.00     0.036 C 
BRANCH  18  23
HETATM   23  C   UNL     1      37.868 -11.298  -3.638  1.00  0.00     0.231 C 
HETATM   24  C   UNL     1      36.736 -12.173  -4.151  1.00  0.00     0.034 C 
ENDBRANCH  18  23
ENDBRANCH  16  17
ENDBRANCH  13  16
ENDBRANCH   1  12
BRANCH   7  25
HETATM   25  C   UNL     1      42.586 -15.305   5.849  1.00  0.00     0.236 C 
BRANCH  25  26
HETATM   26  C   UNL     1      43.401 -16.556   5.488  1.00  0.00     0.240 C 
HETATM   27  N   UNL     1      42.782 -17.339   4.525  1.00  0.00    -0.326 N 
HETATM   28  H   UNL     1      41.870 -17.044   4.197  1.00  0.00     0.169 HD
HETATM   29  O   UNL     1      44.456 -16.819   6.060  1.00  0.00    -0.271 OA
BRANCH  27  30
HETATM   30  C   UNL     1      43.275 -18.537   3.960  1.00  0.00     0.036 A 
HETATM   31  C   UNL     1      43.940 -19.528   4.685  1.00  0.00     0.053 A 
HETATM   32  C   UNL     1      44.405 -20.686   4.047  1.00  0.00     0.042 A 
HETATM   33 CL   UNL     1      45.237 -21.856   5.011  1.00  0.00    -0.084 Cl
HETATM   34  C   UNL     1      44.208 -20.880   2.673  1.00  0.00    -0.040 A 
HETATM   35  C   UNL     1      44.699 -22.109   1.963  1.00  0.00     0.050 C 
HETATM   36  C   UNL     1      43.545 -19.880   1.950  1.00  0.00     0.011 A 
HETATM   37  C   UNL     1      43.088 -18.721   2.586  1.00  0.00     0.030 A 
ENDBRANCH  27  30
ENDBRANCH  25  26
ENDBRANCH   7  25
TORSDOF 7
ENDMDL
MODEL 10
REMARK VINA RESULT:      -8.0      3.716     10.078
REMARK  7 active torsions:
REMARK  status: ('A' for Active; 'I' for Inactive)
REMARK    1  A    between atoms: C_2  and  N_3 
REMARK    2  A    between atoms: C_5  and  C_6 
REMARK    3  A    between atoms: C_6  and  N_7 
REMARK       I    between atoms: N_7  and  C_8 
REMARK    4  A    between atoms: C_8  and  C_9 
REMARK    5  A    between atoms: N_15  and  C_16 
REMARK    6  A    between atoms: C_16  and  C_17 
REMARK       I    between atoms: C_17  and  N_18 
REMARK    7  A    between atoms: N_18  and  C_19 
ROOT
HETATM    1  C   UNL     1      42.000 -14.795   3.015  1.00  0.00     0.081 A 
HETATM    2  S   UNL     1      43.266 -14.304   4.064  1.00  0.00    -0.063 SA
HETATM    3  C   UNL     1      42.247 -13.276   4.947  1.00  0.00     0.116 A 
HETATM    4  C   UNL     1      40.963 -13.271   4.450  1.00  0.00     0.075 A 
HETATM    5  C   UNL     1      39.973 -12.479   5.174  1.00  0.00     0.262 A 
HETATM    6  O   UNL     1      38.795 -12.411   4.835  1.00  0.00    -0.267 OA
HETATM    7  N   UNL     1      40.478 -11.826   6.297  1.00  0.00    -0.299 N 
HETATM    8  C   UNL     1      41.806 -11.933   6.664  1.00  0.00     0.214 A 
HETATM    9  N   UNL     1      42.711 -12.602   6.026  1.00  0.00    -0.235 NA
HETATM   10  C   UNL     1      40.816 -14.108   3.278  1.00  0.00    -0.021 A 
HETATM   11  C   UNL     1      39.545 -14.279   2.504  1.00  0.00     0.051 C 
ENDROOT
BRANCH   1  12
HETATM   12  C   UNL     1      42.254 -15.815   2.001  1.00  0.00     0.259 C 
HETATM   13  N   UNL     1      42.573 -17.071   2.483  1.00  0.00    -0.354 N 
HETATM   14  H   UNL     1      42.526 -17.162   3.497  1.00  0.00     0.162 HD
HETATM   15  O   UNL     1      42.212 -15.608   0.788  1.00  0.00    -0.267 OA
BRANCH  13  16
HETATM   16  C   UNL     1      42.611 -18.320   1.727  1.00  0.00     0.156 C 
BRANCH  16  17
HETATM   17  C   UNL     1      43.717 -19.339   2.049  1.00  0.00     0.206 C 
HETATM   18  N   UNL     1      44.263 -19.297   3.471  1.00  0.00    -0.066 N 
HETATM   19  H   UNL     1      44.908 -18.479   3.454  1.00  0.00     0.280 HD
HETATM   20  C   UNL     1      45.057 -20.581   3.603  1.00  0.00     0.235 C 
HETATM   21  C   UNL     1      44.486 -21.528   2.550  1.00  0.00     0.030 C 
HETATM   22  C   UNL     1      43.322 -20.795   1.900  1.00  0.00     0.036 C 
BRANCH  18  23
HETATM   23  C   UNL     1      43.280 -19.078   4.592  1.00  0.00     0.231 C 
HETATM   24  C   UNL     1      43.852 -19.607   5.897  1.00  0.00     0.034 C 
ENDBRANCH  18  23
ENDBRANCH  16  17
ENDBRANCH  13  16
ENDBRANCH   1  12
BRANCH   7  25
HETATM   25  C   UNL     1      39.533 -11.184   7.197  1.00  0.00     0.236 C 
BRANCH  25  26
HETATM   26  C   UNL     1      40.311 -10.371   8.243  1.00  0.00     0.240 C 
HETATM   27  N   UNL     1      40.442 -11.039   9.452  1.00  0.00    -0.326 N 
HETATM   28  H   UNL     1      39.994 -11.945   9.538  1.00  0.00     0.169 HD
HETATM   29  O   UNL     1      40.706  -9.234   8.003  1.00  0.00    -0.271 OA
BRANCH  27  30
HETATM   30  C   UNL     1      41.117 -10.581  10.605  1.00  0.00     0.036 A 
HETATM   31  C   UNL     1      40.498  -9.898  11.654  1.00  0.00     0.053 A 
HETATM   32  C   UNL     1      41.242  -9.470  12.762  1.00  0.00     0.042 A 
HETATM   33 CL   UNL     1      40.405  -8.614  14.010  1.00  0.00    -0.084 Cl
HETATM   34  C   UNL     1      42.618  -9.723  12.847  1.00  0.00    -0.040 A 
HETATM   35  C   UNL     1      43.439  -9.272  14.022  1.00  0.00     0.050 C 
HETATM   36  C   UNL     1      43.234 -10.403  11.789  1.00  0.00     0.011 A 
HETATM   37  C   UNL     1      42.493 -10.823  10.680  1.00  0.00     0.030 A 
ENDBRANCH  27  30
ENDBRANCH  25  26
ENDBRANCH   7  25
TORSDOF 7
ENDMDL
