MODEL 1
REMARK VINA RESULT:      -7.8      0.000      0.000
REMARK  3 active torsions:
REMARK  status: ('A' for Active; 'I' for Inactive)
REMARK       I    between atoms: C_2  and  N_3 
REMARK    1  A    between atoms: C_2  and  C_16 
REMARK    2  A    between atoms: N_3  and  C_4 
REMARK    3  A    between atoms: C_7  and  C_10 
ROOT
HETATM    1  O   UNL     1      41.024 -16.359   4.983  1.00  0.00    -0.270 OA
HETATM    2  C   UNL     1      41.747 -15.381   4.872  1.00  0.00     0.255 C 
HETATM    3  N   UNL     1      43.152 -15.584   4.823  1.00  0.00    -0.305 N 
HETATM    4  H   UNL     1      43.802 -14.823   4.680  1.00  0.00     0.171 HD
ENDROOT
BRANCH   3   5
HETATM    5  C   UNL     1      43.702 -16.756   5.072  1.00  0.00     0.151 A 
HETATM    6  N   UNL     1      43.763 -17.790   4.232  1.00  0.00    -0.335 N 
HETATM    7  H   UNL     1      43.377 -17.683   3.291  1.00  0.00     0.168 HD
HETATM    8  C   UNL     1      44.321 -18.933   4.774  1.00  0.00     0.051 A 
HETATM    9  C   UNL     1      44.757 -18.724   6.067  1.00  0.00     0.083 A 
HETATM   10  S   UNL     1      44.412 -17.122   6.602  1.00  0.00    -0.063 SA
BRANCH   8  11
HETATM   11  C   UNL     1      44.412 -20.197   4.051  1.00  0.00    -0.006 A 
HETATM   12  C   UNL     1      44.146 -20.246   2.678  1.00  0.00     0.033 A 
HETATM   13  C   UNL     1      44.206 -21.471   2.031  1.00  0.00     0.117 A 
HETATM   14  N   UNL     1      44.511 -22.625   2.652  1.00  0.00    -0.273 NA
HETATM   15  C   UNL     1      44.771 -22.566   3.972  1.00  0.00     0.117 A 
HETATM   16  C   UNL     1      44.733 -21.393   4.707  1.00  0.00     0.033 A 
ENDBRANCH   8  11
ENDBRANCH   3   5
BRANCH   2  17
HETATM   17  C   UNL     1      41.302 -13.929   4.735  1.00  0.00     0.245 C 
HETATM   18  C   UNL     1      42.381 -13.090   4.070  1.00  0.00     0.218 C 
HETATM   19  O   UNL     1      42.654 -13.575   2.752  1.00  0.00    -0.345 OA
HETATM   20  C   UNL     1      41.502 -13.797   2.045  1.00  0.00     0.102 A 
HETATM   21  C   UNL     1      41.632 -13.938   0.666  1.00  0.00     0.039 A 
HETATM   22  C   UNL     1      40.248 -13.916   2.651  1.00  0.00     0.103 A 
HETATM   23  C   UNL     1      40.498 -14.169  -0.114  1.00  0.00     0.003 A 
HETATM   24  C   UNL     1      39.241 -14.257   0.486  1.00  0.00     0.003 A 
HETATM   25  C   UNL     1      39.113 -14.128   1.871  1.00  0.00     0.040 A 
HETATM   26  O   UNL     1      40.063 -13.868   4.011  1.00  0.00    -0.331 OA
ENDBRANCH   2  17
TORSDOF 3
ENDMDL
MODEL 2
REMARK VINA RESULT:      -7.6      2.354      3.381
REMARK  3 active torsions:
REMARK  status: ('A' for Active; 'I' for Inactive)
REMARK       I    between atoms: C_2  and  N_3 
REMARK    1  A    between atoms: C_2  and  C_16 
REMARK    2  A    between atoms: N_3  and  C_4 
REMARK    3  A    between atoms: C_7  and  C_10 
ROOT
HETATM    1  O   UNL     1      42.136 -16.295   0.109  1.00  0.00    -0.270 OA
HETATM    2  C   UNL     1      41.312 -15.696   0.784  1.00  0.00     0.255 C 
HETATM    3  N   UNL     1      41.426 -15.758   2.198  1.00  0.00    -0.305 N 
HETATM    4  H   UNL     1      40.809 -15.243   2.812  1.00  0.00     0.171 HD
ENDROOT
BRANCH   3   5
HETATM    5  C   UNL     1      42.267 -16.577   2.800  1.00  0.00     0.151 A 
HETATM    6  N   UNL     1      42.561 -17.820   2.420  1.00  0.00    -0.335 N 
HETATM    7  H   UNL     1      42.127 -18.192   1.572  1.00  0.00     0.168 HD
HETATM    8  C   UNL     1      43.413 -18.493   3.277  1.00  0.00     0.051 A 
HETATM    9  C   UNL     1      43.826 -17.687   4.319  1.00  0.00     0.083 A 
HETATM   10  S   UNL     1      43.101 -16.125   4.241  1.00  0.00    -0.063 SA
BRANCH   8  11
HETATM   11  C   UNL     1      43.798 -19.887   3.088  1.00  0.00    -0.006 A 
HETATM   12  C   UNL     1      44.444 -20.587   4.113  1.00  0.00     0.033 A 
HETATM   13  C   UNL     1      44.828 -21.898   3.885  1.00  0.00     0.117 A 
HETATM   14  N   UNL     1      44.612 -22.546   2.725  1.00  0.00    -0.273 NA
HETATM   15  C   UNL     1      43.985 -21.864   1.746  1.00  0.00     0.117 A 
HETATM   16  C   UNL     1      43.566 -20.551   1.877  1.00  0.00     0.033 A 
ENDBRANCH   8  11
ENDBRANCH   3   5
BRANCH   2  17
HETATM   17  C   UNL     1      40.168 -14.830   0.267  1.00  0.00     0.245 C 
HETATM   18  C   UNL     1      40.001 -13.585   1.124  1.00  0.00     0.218 C 
HETATM   19  O   UNL     1      41.187 -12.785   1.086  1.00  0.00    -0.345 OA
HETATM   20  C   UNL     1      41.642 -12.614  -0.194  1.00  0.00     0.102 A 
HETATM   21  C   UNL     1      42.568 -11.596  -0.398  1.00  0.00     0.039 A 
HETATM   22  C   UNL     1      41.242 -13.426  -1.260  1.00  0.00     0.103 A 
HETATM   23  C   UNL     1      43.076 -11.369  -1.678  1.00  0.00     0.003 A 
HETATM   24  C   UNL     1      42.654 -12.159  -2.748  1.00  0.00     0.003 A 
HETATM   25  C   UNL     1      41.734 -13.189  -2.541  1.00  0.00     0.040 A 
HETATM   26  O   UNL     1      40.395 -14.497  -1.111  1.00  0.00    -0.331 OA
ENDBRANCH   2  17
TORSDOF 3
ENDMDL
MODEL 3
REMARK VINA RESULT:      -7.4      2.808      3.865
REMARK  3 active torsions:
REMARK  status: ('A' for Active; 'I' for Inactive)
REMARK       I    between atoms: C_2  and  N_3 
REMARK    1  A    between atoms: C_2  and  C_16 
REMARK    2  A    between atoms: N_3  and  C_4 
REMARK    3  A    between atoms: C_7  and  C_10 
ROOT
HETATM    1  O   UNL     1      39.921 -15.228   1.117  1.00  0.00    -0.270 OA
HETATM    2  C   UNL     1      40.734 -14.368   0.812  1.00  0.00     0.255 C 
HETATM    3  N   UNL     1      42.064 -14.498   1.290  1.00  0.00    -0.305 N 
HETATM    4  H   UNL     1      42.797 -13.850   1.032  1.00  0.00     0.171 HD
ENDROOT
BRANCH   3   5
HETATM    5  C   UNL     1      42.403 -15.403   2.188  1.00  0.00     0.151 A 
HETATM    6  N   UNL     1      42.882 -16.621   1.933  1.00  0.00    -0.335 N 
HETATM    7  H   UNL     1      43.033 -16.898   0.960  1.00  0.00     0.168 HD
HETATM    8  C   UNL     1      43.077 -17.404   3.056  1.00  0.00     0.051 A 
HETATM    9  C   UNL     1      42.790 -16.712   4.215  1.00  0.00     0.083 A 
HETATM   10  S   UNL     1      42.227 -15.118   3.880  1.00  0.00    -0.063 SA
BRANCH   8  11
HETATM   11  C   UNL     1      43.520 -18.793   2.994  1.00  0.00    -0.006 A 
HETATM   12  C   UNL     1      44.290 -19.336   4.028  1.00  0.00     0.033 A 
HETATM   13  C   UNL     1      44.724 -20.648   3.918  1.00  0.00     0.117 A 
HETATM   14  N   UNL     1      44.442 -21.438   2.866  1.00  0.00    -0.273 NA
HETATM   15  C   UNL     1      43.695 -20.907   1.878  1.00  0.00     0.117 A 
HETATM   16  C   UNL     1      43.218 -19.607   1.895  1.00  0.00     0.033 A 
ENDBRANCH   8  11
ENDBRANCH   3   5
BRANCH   2  17
HETATM   17  C   UNL     1      40.487 -13.158  -0.083  1.00  0.00     0.245 C 
HETATM   18  C   UNL     1      41.601 -13.003  -1.105  1.00  0.00     0.218 C 
HETATM   19  O   UNL     1      41.665 -14.152  -1.957  1.00  0.00    -0.345 OA
HETATM   20  C   UNL     1      40.427 -14.509  -2.420  1.00  0.00     0.102 A 
HETATM   21  C   UNL     1      40.393 -15.379  -3.506  1.00  0.00     0.039 A 
HETATM   22  C   UNL     1      39.237 -14.067  -1.834  1.00  0.00     0.103 A 
HETATM   23  C   UNL     1      39.164 -15.787  -4.027  1.00  0.00     0.003 A 
HETATM   24  C   UNL     1      37.975 -15.321  -3.462  1.00  0.00     0.003 A 
HETATM   25  C   UNL     1      38.010 -14.458  -2.364  1.00  0.00     0.040 A 
HETATM   26  O   UNL     1      39.202 -13.274  -0.713  1.00  0.00    -0.331 OA
ENDBRANCH   2  17
TORSDOF 3
ENDMDL
MODEL 4
REMARK VINA RESULT:      -7.4      2.200      2.934
REMARK  3 active torsions:
REMARK  status: ('A' for Active; 'I' for Inactive)
REMARK       I    between atoms: C_2  and  N_3 
REMARK    1  A    between atoms: C_2  and  C_16 
REMARK    2  A    between atoms: N_3  and  C_4 
REMARK    3  A    between atoms: C_7  and  C_10 
ROOT
HETATM    1  O   UNL     1      39.916 -16.126   1.737  1.00  0.00    -0.270 OA
HETATM    2  C   UNL     1      40.287 -14.963   1.800  1.00  0.00     0.255 C 
HETATM    3  N   UNL     1      41.534 -14.687   2.421  1.00  0.00    -0.305 N 
HETATM    4  H   UNL     1      41.922 -13.754   2.460  1.00  0.00     0.171 HD
ENDROOT
BRANCH   3   5
HETATM    5  C   UNL     1      42.210 -15.607   3.082  1.00  0.00     0.151 A 
HETATM    6  N   UNL     1      42.596 -16.791   2.606  1.00  0.00    -0.335 N 
HETATM    7  H   UNL     1      42.383 -17.025   1.634  1.00  0.00     0.168 HD
HETATM    8  C   UNL     1      43.219 -17.604   3.536  1.00  0.00     0.051 A 
HETATM    9  C   UNL     1      43.361 -16.969   4.753  1.00  0.00     0.083 A 
HETATM   10  S   UNL     1      42.666 -15.391   4.732  1.00  0.00    -0.063 SA
BRANCH   8  11
HETATM   11  C   UNL     1      43.649 -18.967   3.244  1.00  0.00    -0.006 A 
HETATM   12  C   UNL     1      43.224 -19.606   2.074  1.00  0.00     0.033 A 
HETATM   13  C   UNL     1      43.623 -20.914   1.848  1.00  0.00     0.117 A 
HETATM   14  N   UNL     1      44.405 -21.611   2.693  1.00  0.00    -0.273 NA
HETATM   15  C   UNL     1      44.812 -20.984   3.814  1.00  0.00     0.117 A 
HETATM   16  C   UNL     1      44.465 -19.681   4.131  1.00  0.00     0.033 A 
ENDBRANCH   8  11
ENDBRANCH   3   5
BRANCH   2  17
HETATM   17  C   UNL     1      39.564 -13.744   1.238  1.00  0.00     0.245 C 
HETATM   18  C   UNL     1      40.508 -12.559   1.122  1.00  0.00     0.218 C 
HETATM   19  O   UNL     1      41.586 -12.860   0.230  1.00  0.00    -0.345 OA
HETATM   20  C   UNL     1      41.138 -13.426  -0.934  1.00  0.00     0.102 A 
HETATM   21  C   UNL     1      42.030 -13.449  -2.002  1.00  0.00     0.039 A 
HETATM   22  C   UNL     1      39.866 -13.992  -1.065  1.00  0.00     0.103 A 
HETATM   23  C   UNL     1      41.639 -14.015  -3.216  1.00  0.00     0.003 A 
HETATM   24  C   UNL     1      40.359 -14.552  -3.358  1.00  0.00     0.003 A 
HETATM   25  C   UNL     1      39.469 -14.540  -2.282  1.00  0.00     0.040 A 
HETATM   26  O   UNL     1      38.970 -14.074  -0.028  1.00  0.00    -0.331 OA
ENDBRANCH   2  17
TORSDOF 3
ENDMDL
MODEL 5
REMARK VINA RESULT:      -7.0      2.900      4.156
REMARK  3 active torsions:
REMARK  status: ('A' for Active; 'I' for Inactive)
REMARK       I    between atoms: C_2  and  N_3 
REMARK    1  A    between atoms: C_2  and  C_16 
REMARK    2  A    between atoms: N_3  and  C_4 
REMARK    3  A    between atoms: C_7  and  C_10 
ROOT
HETATM    1  O   UNL     1      39.957 -15.692   1.649  1.00  0.00    -0.270 OA
HETATM    2  C   UNL     1      40.776 -14.892   1.220  1.00  0.00     0.255 C 
HETATM    3  N   UNL     1      42.148 -15.258   1.239  1.00  0.00    -0.305 N 
HETATM    4  H   UNL     1      42.869 -14.665   0.851  1.00  0.00     0.171 HD
ENDROOT
BRANCH   3   5
HETATM    5  C   UNL     1      42.579 -16.339   1.860  1.00  0.00     0.151 A 
HETATM    6  N   UNL     1      42.543 -16.556   3.175  1.00  0.00    -0.335 N 
HETATM    7  H   UNL     1      42.125 -15.846   3.780  1.00  0.00     0.168 HD
HETATM    8  C   UNL     1      43.138 -17.739   3.574  1.00  0.00     0.051 A 
HETATM    9  C   UNL     1      43.586 -18.474   2.495  1.00  0.00     0.083 A 
HETATM   10  S   UNL     1      43.307 -17.650   1.006  1.00  0.00    -0.063 SA
BRANCH   8  11
HETATM   11  C   UNL     1      43.276 -18.131   4.973  1.00  0.00    -0.006 A 
HETATM   12  C   UNL     1      42.881 -17.258   5.993  1.00  0.00     0.033 A 
HETATM   13  C   UNL     1      43.061 -17.650   7.310  1.00  0.00     0.117 A 
HETATM   14  N   UNL     1      43.594 -18.832   7.669  1.00  0.00    -0.273 NA
HETATM   15  C   UNL     1      43.965 -19.667   6.679  1.00  0.00     0.117 A 
HETATM   16  C   UNL     1      43.830 -19.366   5.334  1.00  0.00     0.033 A 
ENDBRANCH   8  11
ENDBRANCH   3   5
BRANCH   2  17
HETATM   17  C   UNL     1      40.482 -13.525   0.613  1.00  0.00     0.245 C 
HETATM   18  C   UNL     1      41.615 -13.081  -0.297  1.00  0.00     0.218 C 
HETATM   19  O   UNL     1      41.777 -14.000  -1.383  1.00  0.00    -0.345 OA
HETATM   20  C   UNL     1      40.579 -14.307  -1.970  1.00  0.00     0.102 A 
HETATM   21  C   UNL     1      40.633 -14.906  -3.225  1.00  0.00     0.039 A 
HETATM   22  C   UNL     1      39.346 -14.075  -1.352  1.00  0.00     0.103 A 
HETATM   23  C   UNL     1      39.449 -15.248  -3.879  1.00  0.00     0.003 A 
HETATM   24  C   UNL     1      38.216 -14.989  -3.277  1.00  0.00     0.003 A 
HETATM   25  C   UNL     1      38.163 -14.399  -2.012  1.00  0.00     0.040 A 
HETATM   26  O   UNL     1      39.227 -13.562  -0.084  1.00  0.00    -0.331 OA
ENDBRANCH   2  17
TORSDOF 3
ENDMDL
MODEL 6
REMARK VINA RESULT:      -6.9      3.150      7.120
REMARK  3 active torsions:
REMARK  status: ('A' for Active; 'I' for Inactive)
REMARK       I    between atoms: C_2  and  N_3 
REMARK    1  A    between atoms: C_2  and  C_16 
REMARK    2  A    between atoms: N_3  and  C_4 
REMARK    3  A    between atoms: C_7  and  C_10 
ROOT
HETATM    1  O   UNL     1      42.389 -14.594   4.267  1.00  0.00    -0.270 OA
HETATM    2  C   UNL     1      41.370 -15.111   4.700  1.00  0.00     0.255 C 
HETATM    3  N   UNL     1      40.217 -15.122   3.872  1.00  0.00    -0.305 N 
HETATM    4  H   UNL     1      39.358 -15.579   4.149  1.00  0.00     0.171 HD
ENDROOT
BRANCH   3   5
HETATM    5  C   UNL     1      40.155 -14.443   2.743  1.00  0.00     0.151 A 
HETATM    6  N   UNL     1      40.498 -14.894   1.536  1.00  0.00    -0.335 N 
HETATM    7  H   UNL     1      40.818 -15.860   1.443  1.00  0.00     0.168 HD
HETATM    8  C   UNL     1      40.417 -13.949   0.529  1.00  0.00     0.051 A 
HETATM    9  C   UNL     1      39.928 -12.746   0.999  1.00  0.00     0.083 A 
HETATM   10  S   UNL     1      39.632 -12.799   2.696  1.00  0.00    -0.063 SA
BRANCH   8  11
HETATM   11  C   UNL     1      40.819 -14.212  -0.848  1.00  0.00    -0.006 A 
HETATM   12  C   UNL     1      40.629 -15.480  -1.409  1.00  0.00     0.033 A 
HETATM   13  C   UNL     1      41.057 -15.704  -2.708  1.00  0.00     0.117 A 
HETATM   14  N   UNL     1      41.648 -14.764  -3.469  1.00  0.00    -0.273 NA
HETATM   15  C   UNL     1      41.821 -13.546  -2.921  1.00  0.00     0.117 A 
HETATM   16  C   UNL     1      41.431 -13.225  -1.631  1.00  0.00     0.033 A 
ENDBRANCH   8  11
ENDBRANCH   3   5
BRANCH   2  17
HETATM   17  C   UNL     1      41.201 -15.803   6.049  1.00  0.00     0.245 C 
HETATM   18  C   UNL     1      40.529 -17.156   5.884  1.00  0.00     0.218 C 
HETATM   19  O   UNL     1      41.326 -18.017   5.065  1.00  0.00    -0.345 OA
HETATM   20  C   UNL     1      42.641 -18.008   5.448  1.00  0.00     0.102 A 
HETATM   21  C   UNL     1      43.440 -19.039   4.965  1.00  0.00     0.039 A 
HETATM   22  C   UNL     1      43.192 -17.007   6.255  1.00  0.00     0.103 A 
HETATM   23  C   UNL     1      44.791 -19.088   5.314  1.00  0.00     0.003 A 
HETATM   24  C   UNL     1      45.335 -18.108   6.145  1.00  0.00     0.003 A 
HETATM   25  C   UNL     1      44.535 -17.065   6.619  1.00  0.00     0.040 A 
HETATM   26  O   UNL     1      42.478 -15.921   6.697  1.00  0.00    -0.331 OA
ENDBRANCH   2  17
TORSDOF 3
ENDMDL
MODEL 7
REMARK VINA RESULT:      -6.9      3.398      4.832
REMARK  3 active torsions:
REMARK  status: ('A' for Active; 'I' for Inactive)
REMARK       I    between atoms: C_2  and  N_3 
REMARK    1  A    between atoms: C_2  and  C_16 
REMARK    2  A    between atoms: N_3  and  C_4 
REMARK    3  A    between atoms: C_7  and  C_10 
ROOT
HETATM    1  O   UNL     1      42.083 -15.013  -0.596  1.00  0.00    -0.270 OA
HETATM    2  C   UNL     1      40.862 -15.020  -0.644  1.00  0.00     0.255 C 
HETATM    3  N   UNL     1      40.144 -15.404   0.519  1.00  0.00    -0.305 N 
HETATM    4  H   UNL     1      39.134 -15.382   0.562  1.00  0.00     0.171 HD
ENDROOT
BRANCH   3   5
HETATM    5  C   UNL     1      40.742 -15.919   1.576  1.00  0.00     0.151 A 
HETATM    6  N   UNL     1      41.590 -16.948   1.575  1.00  0.00    -0.335 N 
HETATM    7  H   UNL     1      41.836 -17.382   0.683  1.00  0.00     0.168 HD
HETATM    8  C   UNL     1      42.009 -17.343   2.833  1.00  0.00     0.051 A 
HETATM    9  C   UNL     1      41.497 -16.526   3.820  1.00  0.00     0.083 A 
HETATM   10  S   UNL     1      40.457 -15.315   3.167  1.00  0.00    -0.063 SA
BRANCH   8  11
HETATM   11  C   UNL     1      42.875 -18.495   3.060  1.00  0.00    -0.006 A 
HETATM   12  C   UNL     1      43.516 -18.664   4.292  1.00  0.00     0.033 A 
HETATM   13  C   UNL     1      44.360 -19.750   4.460  1.00  0.00     0.117 A 
HETATM   14  N   UNL     1      44.599 -20.662   3.500  1.00  0.00    -0.273 NA
HETATM   15  C   UNL     1      43.972 -20.493   2.319  1.00  0.00     0.117 A 
HETATM   16  C   UNL     1      43.114 -19.439   2.054  1.00  0.00     0.033 A 
ENDBRANCH   8  11
ENDBRANCH   3   5
BRANCH   2  17
HETATM   17  C   UNL     1      39.995 -14.615  -1.831  1.00  0.00     0.245 C 
HETATM   18  C   UNL     1      38.900 -13.654  -1.400  1.00  0.00     0.218 C 
HETATM   19  O   UNL     1      39.466 -12.455  -0.861  1.00  0.00    -0.345 OA
HETATM   20  C   UNL     1      40.461 -11.960  -1.661  1.00  0.00     0.102 A 
HETATM   21  C   UNL     1      40.850 -10.643  -1.433  1.00  0.00     0.039 A 
HETATM   22  C   UNL     1      41.099 -12.723  -2.643  1.00  0.00     0.103 A 
HETATM   23  C   UNL     1      41.861 -10.076  -2.210  1.00  0.00     0.003 A 
HETATM   24  C   UNL     1      42.477 -10.828  -3.213  1.00  0.00     0.003 A 
HETATM   25  C   UNL     1      42.095 -12.153  -3.432  1.00  0.00     0.040 A 
HETATM   26  O   UNL     1      40.819 -14.049  -2.863  1.00  0.00    -0.331 OA
ENDBRANCH   2  17
TORSDOF 3
ENDMDL
MODEL 8
REMARK VINA RESULT:      -6.9      3.199      4.536
REMARK  3 active torsions:
REMARK  status: ('A' for Active; 'I' for Inactive)
REMARK       I    between atoms: C_2  and  N_3 
REMARK    1  A    between atoms: C_2  and  C_16 
REMARK    2  A    between atoms: N_3  and  C_4 
REMARK    3  A    between atoms: C_7  and  C_10 
ROOT
HETATM    1  O   UNL     1      40.012 -13.708   2.662  1.00  0.00    -0.270 OA
HETATM    2  C   UNL     1      39.148 -14.206   1.956  1.00  0.00     0.255 C 
HETATM    3  N   UNL     1      39.156 -15.614   1.773  1.00  0.00    -0.305 N 
HETATM    4  H   UNL     1      38.439 -16.094   1.245  1.00  0.00     0.171 HD
ENDROOT
BRANCH   3   5
HETATM    5  C   UNL     1      40.155 -16.371   2.185  1.00  0.00     0.151 A 
HETATM    6  N   UNL     1      40.477 -16.624   3.454  1.00  0.00    -0.335 N 
HETATM    7  H   UNL     1      39.899 -16.227   4.198  1.00  0.00     0.168 HD
HETATM    8  C   UNL     1      41.623 -17.382   3.611  1.00  0.00     0.051 A 
HETATM    9  C   UNL     1      42.148 -17.769   2.394  1.00  0.00     0.083 A 
HETATM   10  S   UNL     1      41.236 -17.133   1.077  1.00  0.00    -0.063 SA
BRANCH   8  11
HETATM   11  C   UNL     1      42.193 -17.707   4.914  1.00  0.00    -0.006 A 
HETATM   12  C   UNL     1      41.843 -16.961   6.044  1.00  0.00     0.033 A 
HETATM   13  C   UNL     1      42.432 -17.274   7.258  1.00  0.00     0.117 A 
HETATM   14  N   UNL     1      43.329 -18.266   7.416  1.00  0.00    -0.273 NA
HETATM   15  C   UNL     1      43.655 -18.982   6.323  1.00  0.00     0.117 A 
HETATM   16  C   UNL     1      43.124 -18.743   5.066  1.00  0.00     0.033 A 
ENDBRANCH   8  11
ENDBRANCH   3   5
BRANCH   2  17
HETATM   17  C   UNL     1      38.005 -13.473   1.261  1.00  0.00     0.245 C 
HETATM   18  C   UNL     1      38.322 -11.994   1.110  1.00  0.00     0.218 C 
HETATM   19  O   UNL     1      39.493 -11.810   0.307  1.00  0.00    -0.345 OA
HETATM   20  C   UNL     1      39.449 -12.565  -0.834  1.00  0.00     0.102 A 
HETATM   21  C   UNL     1      40.345 -12.226  -1.843  1.00  0.00     0.039 A 
HETATM   22  C   UNL     1      38.584 -13.652  -0.995  1.00  0.00     0.103 A 
HETATM   23  C   UNL     1      40.357 -12.957  -3.032  1.00  0.00     0.003 A 
HETATM   24  C   UNL     1      39.472 -14.023  -3.206  1.00  0.00     0.003 A 
HETATM   25  C   UNL     1      38.582 -14.371  -2.188  1.00  0.00     0.040 A 
HETATM   26  O   UNL     1      37.734 -14.089  -0.008  1.00  0.00    -0.331 OA
ENDBRANCH   2  17
TORSDOF 3
ENDMDL
MODEL 9
REMARK VINA RESULT:      -6.8      4.568      8.691
REMARK  3 active torsions:
REMARK  status: ('A' for Active; 'I' for Inactive)
REMARK       I    between atoms: C_2  and  N_3 
REMARK    1  A    between atoms: C_2  and  C_16 
REMARK    2  A    between atoms: N_3  and  C_4 
REMARK    3  A    between atoms: C_7  and  C_10 
ROOT
HETATM    1  O   UNL     1      42.412 -14.471   1.161  1.00  0.00    -0.270 OA
HETATM    2  C   UNL     1      41.375 -15.117   1.187  1.00  0.00     0.255 C 
HETATM    3  N   UNL     1      40.693 -15.344  -0.038  1.00  0.00    -0.305 N 
HETATM    4  H   UNL     1      39.859 -15.914  -0.093  1.00  0.00     0.171 HD
ENDROOT
BRANCH   3   5
HETATM    5  C   UNL     1      41.037 -14.738  -1.158  1.00  0.00     0.151 A 
HETATM    6  N   UNL     1      41.468 -13.482  -1.270  1.00  0.00    -0.335 N 
HETATM    7  H   UNL     1      41.575 -12.920  -0.423  1.00  0.00     0.168 HD
HETATM    8  C   UNL     1      41.682 -13.066  -2.572  1.00  0.00     0.051 A 
HETATM    9  C   UNL     1      41.460 -14.086  -3.475  1.00  0.00     0.083 A 
HETATM   10  S   UNL     1      40.933 -15.527  -2.689  1.00  0.00    -0.063 SA
BRANCH   8  11
HETATM   11  C   UNL     1      42.080 -11.707  -2.921  1.00  0.00    -0.006 A 
HETATM   12  C   UNL     1      42.404 -10.786  -1.918  1.00  0.00     0.033 A 
HETATM   13  C   UNL     1      42.742  -9.493  -2.285  1.00  0.00     0.117 A 
HETATM   14  N   UNL     1      42.779  -9.068  -3.562  1.00  0.00    -0.273 NA
HETATM   15  C   UNL     1      42.471  -9.964  -4.519  1.00  0.00     0.117 A 
HETATM   16  C   UNL     1      42.117 -11.276  -4.254  1.00  0.00     0.033 A 
ENDBRANCH   8  11
ENDBRANCH   3   5
BRANCH   2  17
HETATM   17  C   UNL     1      40.732 -15.759   2.411  1.00  0.00     0.245 C 
HETATM   18  C   UNL     1      39.984 -17.026   2.029  1.00  0.00     0.218 C 
HETATM   19  O   UNL     1      40.882 -17.990   1.468  1.00  0.00    -0.345 OA
HETATM   20  C   UNL     1      42.014 -18.129   2.225  1.00  0.00     0.102 A 
HETATM   21  C   UNL     1      42.794 -19.256   1.983  1.00  0.00     0.039 A 
HETATM   22  C   UNL     1      42.414 -17.187   3.178  1.00  0.00     0.103 A 
HETATM   23  C   UNL     1      43.964 -19.458   2.717  1.00  0.00     0.003 A 
HETATM   24  C   UNL     1      44.347 -18.534   3.691  1.00  0.00     0.003 A 
HETATM   25  C   UNL     1      43.571 -17.396   3.924  1.00  0.00     0.040 A 
HETATM   26  O   UNL     1      41.734 -16.016   3.407  1.00  0.00    -0.331 OA
ENDBRANCH   2  17
TORSDOF 3
ENDMDL
MODEL 10
REMARK VINA RESULT:      -6.8      2.510      3.783
REMARK  3 active torsions:
REMARK  status: ('A' for Active; 'I' for Inactive)
REMARK       I    between atoms: C_2  and  N_3 
REMARK    1  A    between atoms: C_2  and  C_16 
REMARK    2  A    between atoms: N_3  and  C_4 
REMARK    3  A    between atoms: C_7  and  C_10 
ROOT
HETATM    1  O   UNL     1      41.594 -16.109  -0.097  1.00  0.00    -0.270 OA
HETATM    2  C   UNL     1      41.785 -14.944   0.221  1.00  0.00     0.255 C 
HETATM    3  N   UNL     1      42.187 -14.667   1.554  1.00  0.00    -0.305 N 
HETATM    4  H   UNL     1      42.411 -13.732   1.867  1.00  0.00     0.171 HD
ENDROOT
BRANCH   3   5
HETATM    5  C   UNL     1      42.187 -15.592   2.495  1.00  0.00     0.151 A 
HETATM    6  N   UNL     1      43.038 -16.614   2.592  1.00  0.00    -0.335 N 
HETATM    7  H   UNL     1      43.785 -16.700   1.901  1.00  0.00     0.168 HD
HETATM    8  C   UNL     1      42.764 -17.487   3.630  1.00  0.00     0.051 A 
HETATM    9  C   UNL     1      41.690 -17.060   4.385  1.00  0.00     0.083 A 
HETATM   10  S   UNL     1      41.007 -15.608   3.754  1.00  0.00    -0.063 SA
BRANCH   8  11
HETATM   11  C   UNL     1      43.524 -18.710   3.865  1.00  0.00    -0.006 A 
HETATM   12  C   UNL     1      43.754 -19.158   5.170  1.00  0.00     0.033 A 
HETATM   13  C   UNL     1      44.511 -20.304   5.357  1.00  0.00     0.117 A 
HETATM   14  N   UNL     1      45.040 -21.019   4.347  1.00  0.00    -0.273 NA
HETATM   15  C   UNL     1      44.807 -20.581   3.094  1.00  0.00     0.117 A 
HETATM   16  C   UNL     1      44.067 -19.447   2.805  1.00  0.00     0.033 A 
ENDBRANCH   8  11
ENDBRANCH   3   5
BRANCH   2  17
HETATM   17  C   UNL     1      41.676 -13.723  -0.686  1.00  0.00     0.245 C 
HETATM   18  C   UNL     1      40.792 -14.016  -1.887  1.00  0.00     0.218 C 
HETATM   19  O   UNL     1      39.465 -14.350  -1.465  1.00  0.00    -0.345 OA
HETATM   20  C   UNL     1      38.991 -13.465  -0.534  1.00  0.00     0.102 A 
HETATM   21  C   UNL     1      37.619 -13.475  -0.303  1.00  0.00     0.039 A 
HETATM   22  C   UNL     1      39.822 -12.604   0.190  1.00  0.00     0.103 A 
HETATM   23  C   UNL     1      37.070 -12.601   0.636  1.00  0.00     0.003 A 
HETATM   24  C   UNL     1      37.894 -11.719   1.337  1.00  0.00     0.003 A 
HETATM   25  C   UNL     1      39.273 -11.718   1.114  1.00  0.00     0.040 A 
HETATM   26  O   UNL     1      41.190 -12.601   0.068  1.00  0.00    -0.331 OA
ENDBRANCH   2  17
TORSDOF 3
ENDMDL
