MODEL 1
REMARK VINA RESULT:      -8.3      0.000      0.000
REMARK  4 active torsions:
REMARK  status: ('A' for Active; 'I' for Inactive)
REMARK    1  A    between atoms: C_4  and  C_5 
REMARK    2  A    between atoms: C_8  and  C_9 
REMARK    3  A    between atoms: C_9  and  N_10 
REMARK       I    between atoms: N_10  and  C_11 
REMARK       I    between atoms: C_11  and  N_12 
REMARK    4  A    between atoms: N_12  and  C_13 
ROOT
HETATM    1  C   UNL     1      44.442 -13.967   6.676  1.00  0.00     0.213 C 
ENDROOT
BRANCH   1   2
HETATM    2  C   UNL     1      44.198 -15.400   6.964  1.00  0.00     0.190 A 
HETATM    3  O   UNL     1      43.828 -15.712   8.238  1.00  0.00    -0.194 OA
HETATM    4  N   UNL     1      43.738 -17.100   8.295  1.00  0.00    -0.106 NA
HETATM    5  C   UNL     1      44.060 -17.497   7.053  1.00  0.00     0.189 A 
HETATM    6  N   UNL     1      44.345 -16.455   6.192  1.00  0.00    -0.202 NA
BRANCH   5   7
HETATM    7  C   UNL     1      44.136 -18.896   6.641  1.00  0.00     0.014 A 
HETATM    8  C   UNL     1      43.652 -19.921   7.469  1.00  0.00     0.015 A 
HETATM    9  C   UNL     1      43.739 -21.259   7.073  1.00  0.00     0.001 A 
HETATM   10  C   UNL     1      44.310 -21.586   5.845  1.00  0.00     0.000 A 
HETATM   11  C   UNL     1      44.795 -20.580   5.013  1.00  0.00     0.001 A 
HETATM   12  C   UNL     1      44.709 -19.242   5.408  1.00  0.00     0.015 A 
ENDBRANCH   5   7
ENDBRANCH   1   2
BRANCH   1  13
HETATM   13  N   UNL     1      44.583 -13.215   7.907  1.00  0.00    -0.335 N 
HETATM   14  C   UNL     1      45.746 -12.584   8.216  1.00  0.00     0.321 C 
HETATM   15  N   UNL     1      45.747 -11.745   9.287  1.00  0.00    -0.309 N 
HETATM   16  O   UNL     1      46.757 -12.675   7.524  1.00  0.00    -0.247 OA
HETATM   17  H   UNL     1      46.562 -11.142   9.273  1.00  0.00     0.170 HD
HETATM   18  H   UNL     1      43.740 -12.831   8.304  1.00  0.00     0.164 HD
BRANCH  15  19
HETATM   19  C   UNL     1      44.855 -11.564  10.358  1.00  0.00     0.036 A 
HETATM   20  C   UNL     1      44.436 -12.589  11.208  1.00  0.00     0.029 A 
HETATM   21  C   UNL     1      43.543 -12.320  12.249  1.00  0.00     0.002 A 
HETATM   22  C   UNL     1      43.073 -11.024  12.456  1.00  0.00     0.000 A 
HETATM   23  C   UNL     1      43.515  -9.990  11.636  1.00  0.00     0.002 A 
HETATM   24  C   UNL     1      44.412 -10.258  10.601  1.00  0.00     0.029 A 
ENDBRANCH  15  19
ENDBRANCH   1  13
TORSDOF 4
ENDMDL
MODEL 2
REMARK VINA RESULT:      -8.2      7.527     10.012
REMARK  4 active torsions:
REMARK  status: ('A' for Active; 'I' for Inactive)
REMARK    1  A    between atoms: C_4  and  C_5 
REMARK    2  A    between atoms: C_8  and  C_9 
REMARK    3  A    between atoms: C_9  and  N_10 
REMARK       I    between atoms: N_10  and  C_11 
REMARK       I    between atoms: C_11  and  N_12 
REMARK    4  A    between atoms: N_12  and  C_13 
ROOT
HETATM    1  C   UNL     1      40.836 -15.692   1.936  1.00  0.00     0.213 C 
ENDROOT
BRANCH   1   2
HETATM    2  C   UNL     1      41.902 -16.721   1.920  1.00  0.00     0.190 A 
HETATM    3  O   UNL     1      42.863 -16.590   0.963  1.00  0.00    -0.194 OA
HETATM    4  N   UNL     1      43.696 -17.698   1.084  1.00  0.00    -0.106 NA
HETATM    5  C   UNL     1      43.164 -18.394   2.103  1.00  0.00     0.189 A 
HETATM    6  N   UNL     1      42.044 -17.804   2.654  1.00  0.00    -0.202 NA
BRANCH   5   7
HETATM    7  C   UNL     1      43.690 -19.671   2.576  1.00  0.00     0.014 A 
HETATM    8  C   UNL     1      44.303 -19.780   3.834  1.00  0.00     0.015 A 
HETATM    9  C   UNL     1      44.813 -21.005   4.275  1.00  0.00     0.001 A 
HETATM   10  C   UNL     1      44.716 -22.133   3.464  1.00  0.00     0.000 A 
HETATM   11  C   UNL     1      44.111 -22.040   2.213  1.00  0.00     0.001 A 
HETATM   12  C   UNL     1      43.600 -20.817   1.770  1.00  0.00     0.015 A 
ENDBRANCH   5   7
ENDBRANCH   1   2
BRANCH   1  13
HETATM   13  N   UNL     1      40.484 -15.300   0.586  1.00  0.00    -0.335 N 
HETATM   14  C   UNL     1      40.920 -14.126   0.059  1.00  0.00     0.321 C 
HETATM   15  N   UNL     1      40.712 -13.912  -1.269  1.00  0.00    -0.309 N 
HETATM   16  O   UNL     1      41.561 -13.303   0.707  1.00  0.00    -0.247 OA
HETATM   17  H   UNL     1      41.290 -13.150  -1.606  1.00  0.00     0.170 HD
HETATM   18  H   UNL     1      40.282 -16.043  -0.065  1.00  0.00     0.164 HD
BRANCH  15  19
HETATM   19  C   UNL     1      39.883 -14.534  -2.217  1.00  0.00     0.036 A 
HETATM   20  C   UNL     1      40.298 -15.565  -3.063  1.00  0.00     0.029 A 
HETATM   21  C   UNL     1      39.405 -16.126  -3.980  1.00  0.00     0.002 A 
HETATM   22  C   UNL     1      38.089 -15.673  -4.049  1.00  0.00     0.000 A 
HETATM   23  C   UNL     1      37.657 -14.671  -3.184  1.00  0.00     0.002 A 
HETATM   24  C   UNL     1      38.547 -14.115  -2.263  1.00  0.00     0.029 A 
ENDBRANCH  15  19
ENDBRANCH   1  13
TORSDOF 4
ENDMDL
MODEL 3
REMARK VINA RESULT:      -8.1      7.558     10.112
REMARK  4 active torsions:
REMARK  status: ('A' for Active; 'I' for Inactive)
REMARK    1  A    between atoms: C_4  and  C_5 
REMARK    2  A    between atoms: C_8  and  C_9 
REMARK    3  A    between atoms: C_9  and  N_10 
REMARK       I    between atoms: N_10  and  C_11 
REMARK       I    between atoms: C_11  and  N_12 
REMARK    4  A    between atoms: N_12  and  C_13 
ROOT
HETATM    1  C   UNL     1      40.482 -15.684   2.039  1.00  0.00     0.213 C 
ENDROOT
BRANCH   1   2
HETATM    2  C   UNL     1      41.588 -16.666   1.950  1.00  0.00     0.190 A 
HETATM    3  O   UNL     1      42.469 -16.503   0.924  1.00  0.00    -0.194 OA
HETATM    4  N   UNL     1      43.356 -17.573   0.990  1.00  0.00    -0.106 NA
HETATM    5  C   UNL     1      42.932 -18.281   2.050  1.00  0.00     0.189 A 
HETATM    6  N   UNL     1      41.830 -17.735   2.679  1.00  0.00    -0.202 NA
BRANCH   5   7
HETATM    7  C   UNL     1      43.545 -19.531   2.490  1.00  0.00     0.014 A 
HETATM    8  C   UNL     1      43.429 -20.703   1.726  1.00  0.00     0.015 A 
HETATM    9  C   UNL     1      44.011 -21.898   2.160  1.00  0.00     0.001 A 
HETATM   10  C   UNL     1      44.714 -21.934   3.362  1.00  0.00     0.000 A 
HETATM   11  C   UNL     1      44.837 -20.780   4.131  1.00  0.00     0.001 A 
HETATM   12  C   UNL     1      44.256 -19.584   3.699  1.00  0.00     0.015 A 
ENDBRANCH   5   7
ENDBRANCH   1   2
BRANCH   1  13
HETATM   13  N   UNL     1      40.083 -15.243   0.717  1.00  0.00    -0.335 N 
HETATM   14  C   UNL     1      40.206 -13.942   0.343  1.00  0.00     0.321 C 
HETATM   15  N   UNL     1      39.993 -13.637  -0.965  1.00  0.00    -0.309 N 
HETATM   16  O   UNL     1      40.580 -13.061   1.113  1.00  0.00    -0.247 OA
HETATM   17  H   UNL     1      40.356 -12.716  -1.185  1.00  0.00     0.170 HD
HETATM   18  H   UNL     1      40.111 -15.931  -0.019  1.00  0.00     0.164 HD
BRANCH  15  19
HETATM   19  C   UNL     1      39.393 -14.340  -2.024  1.00  0.00     0.036 A 
HETATM   20  C   UNL     1      38.050 -14.217  -2.384  1.00  0.00     0.029 A 
HETATM   21  C   UNL     1      37.535 -14.958  -3.451  1.00  0.00     0.002 A 
HETATM   22  C   UNL     1      38.361 -15.816  -4.175  1.00  0.00     0.000 A 
HETATM   23  C   UNL     1      39.710 -15.917  -3.847  1.00  0.00     0.002 A 
HETATM   24  C   UNL     1      40.226 -15.171  -2.785  1.00  0.00     0.029 A 
ENDBRANCH  15  19
ENDBRANCH   1  13
TORSDOF 4
ENDMDL
MODEL 4
REMARK VINA RESULT:      -8.0      7.266      9.896
REMARK  4 active torsions:
REMARK  status: ('A' for Active; 'I' for Inactive)
REMARK    1  A    between atoms: C_4  and  C_5 
REMARK    2  A    between atoms: C_8  and  C_9 
REMARK    3  A    between atoms: C_9  and  N_10 
REMARK       I    between atoms: N_10  and  C_11 
REMARK       I    between atoms: C_11  and  N_12 
REMARK    4  A    between atoms: N_12  and  C_13 
ROOT
HETATM    1  C   UNL     1      39.749 -15.218   2.294  1.00  0.00     0.213 C 
ENDROOT
BRANCH   1   2
HETATM    2  C   UNL     1      40.939 -16.021   2.662  1.00  0.00     0.190 A 
HETATM    3  O   UNL     1      42.011 -15.337   3.152  1.00  0.00    -0.194 OA
HETATM    4  N   UNL     1      43.024 -16.271   3.346  1.00  0.00    -0.106 NA
HETATM    5  C   UNL     1      42.470 -17.433   2.958  1.00  0.00     0.189 A 
HETATM    6  N   UNL     1      41.162 -17.311   2.533  1.00  0.00    -0.202 NA
BRANCH   5   7
HETATM    7  C   UNL     1      43.181 -18.708   2.951  1.00  0.00     0.014 A 
HETATM    8  C   UNL     1      44.074 -19.044   3.981  1.00  0.00     0.015 A 
HETATM    9  C   UNL     1      44.759 -20.262   3.962  1.00  0.00     0.001 A 
HETATM   10  C   UNL     1      44.560 -21.158   2.913  1.00  0.00     0.000 A 
HETATM   11  C   UNL     1      43.677 -20.838   1.884  1.00  0.00     0.001 A 
HETATM   12  C   UNL     1      42.992 -19.620   1.902  1.00  0.00     0.015 A 
ENDBRANCH   5   7
ENDBRANCH   1   2
BRANCH   1  13
HETATM   13  N   UNL     1      39.719 -14.977   0.865  1.00  0.00    -0.335 N 
HETATM   14  C   UNL     1      40.188 -13.816   0.338  1.00  0.00     0.321 C 
HETATM   15  N   UNL     1      40.303 -13.736  -1.016  1.00  0.00    -0.309 N 
HETATM   16  O   UNL     1      40.586 -12.884   1.031  1.00  0.00    -0.247 OA
HETATM   17  H   UNL     1      40.891 -12.954  -1.282  1.00  0.00     0.170 HD
HETATM   18  H   UNL     1      39.740 -15.788   0.267  1.00  0.00     0.164 HD
BRANCH  15  19
HETATM   19  C   UNL     1      39.784 -14.513  -2.065  1.00  0.00     0.036 A 
HETATM   20  C   UNL     1      40.475 -15.559  -2.681  1.00  0.00     0.029 A 
HETATM   21  C   UNL     1      39.881 -16.279  -3.721  1.00  0.00     0.002 A 
HETATM   22  C   UNL     1      38.590 -15.970  -4.144  1.00  0.00     0.000 A 
HETATM   23  C   UNL     1      37.881 -14.954  -3.511  1.00  0.00     0.002 A 
HETATM   24  C   UNL     1      38.470 -14.239  -2.468  1.00  0.00     0.029 A 
ENDBRANCH  15  19
ENDBRANCH   1  13
TORSDOF 4
ENDMDL
MODEL 5
REMARK VINA RESULT:      -7.9      6.662      9.185
REMARK  4 active torsions:
REMARK  status: ('A' for Active; 'I' for Inactive)
REMARK    1  A    between atoms: C_4  and  C_5 
REMARK    2  A    between atoms: C_8  and  C_9 
REMARK    3  A    between atoms: C_9  and  N_10 
REMARK       I    between atoms: N_10  and  C_11 
REMARK       I    between atoms: C_11  and  N_12 
REMARK    4  A    between atoms: N_12  and  C_13 
ROOT
HETATM    1  C   UNL     1      42.470 -15.375   2.663  1.00  0.00     0.213 C 
ENDROOT
BRANCH   1   2
HETATM    2  C   UNL     1      43.174 -16.676   2.572  1.00  0.00     0.190 A 
HETATM    3  O   UNL     1      43.818 -16.942   1.402  1.00  0.00    -0.194 OA
HETATM    4  N   UNL     1      44.327 -18.233   1.513  1.00  0.00    -0.106 NA
HETATM    5  C   UNL     1      43.945 -18.626   2.740  1.00  0.00     0.189 A 
HETATM    6  N   UNL     1      43.229 -17.670   3.433  1.00  0.00    -0.202 NA
BRANCH   5   7
HETATM    7  C   UNL     1      44.227 -19.948   3.293  1.00  0.00     0.014 A 
HETATM    8  C   UNL     1      44.219 -21.090   2.477  1.00  0.00     0.015 A 
HETATM    9  C   UNL     1      44.478 -22.353   3.015  1.00  0.00     0.001 A 
HETATM   10  C   UNL     1      44.748 -22.489   4.375  1.00  0.00     0.000 A 
HETATM   11  C   UNL     1      44.759 -21.365   5.198  1.00  0.00     0.001 A 
HETATM   12  C   UNL     1      44.500 -20.101   4.660  1.00  0.00     0.015 A 
ENDBRANCH   5   7
ENDBRANCH   1   2
BRANCH   1  13
HETATM   13  N   UNL     1      41.781 -15.080   1.423  1.00  0.00    -0.335 N 
HETATM   14  C   UNL     1      40.475 -15.409   1.249  1.00  0.00     0.321 C 
HETATM   15  N   UNL     1      39.844 -14.934   0.140  1.00  0.00    -0.309 N 
HETATM   16  O   UNL     1      39.830 -16.038   2.084  1.00  0.00    -0.247 OA
HETATM   17  H   UNL     1      38.838 -15.014   0.236  1.00  0.00     0.170 HD
HETATM   18  H   UNL     1      42.128 -14.301   0.885  1.00  0.00     0.164 HD
BRANCH  15  19
HETATM   19  C   UNL     1      40.315 -14.371  -1.057  1.00  0.00     0.036 A 
HETATM   20  C   UNL     1      40.344 -12.999  -1.318  1.00  0.00     0.029 A 
HETATM   21  C   UNL     1      40.828 -12.524  -2.541  1.00  0.00     0.002 A 
HETATM   22  C   UNL     1      41.299 -13.414  -3.505  1.00  0.00     0.000 A 
HETATM   23  C   UNL     1      41.308 -14.780  -3.238  1.00  0.00     0.002 A 
HETATM   24  C   UNL     1      40.830 -15.254  -2.015  1.00  0.00     0.029 A 
ENDBRANCH  15  19
ENDBRANCH   1  13
TORSDOF 4
ENDMDL
MODEL 6
REMARK VINA RESULT:      -7.7      1.594      2.071
REMARK  4 active torsions:
REMARK  status: ('A' for Active; 'I' for Inactive)
REMARK    1  A    between atoms: C_4  and  C_5 
REMARK    2  A    between atoms: C_8  and  C_9 
REMARK    3  A    between atoms: C_9  and  N_10 
REMARK       I    between atoms: N_10  and  C_11 
REMARK       I    between atoms: C_11  and  N_12 
REMARK    4  A    between atoms: N_12  and  C_13 
ROOT
HETATM    1  C   UNL     1      42.850 -13.736   5.777  1.00  0.00     0.213 C 
ENDROOT
BRANCH   1   2
HETATM    2  C   UNL     1      42.958 -15.212   5.683  1.00  0.00     0.190 A 
HETATM    3  O   UNL     1      42.614 -15.921   6.794  1.00  0.00    -0.194 OA
HETATM    4  N   UNL     1      42.872 -17.258   6.507  1.00  0.00    -0.106 NA
HETATM    5  C   UNL     1      43.344 -17.233   5.249  1.00  0.00     0.189 A 
HETATM    6  N   UNL     1      43.402 -15.966   4.701  1.00  0.00    -0.202 NA
BRANCH   5   7
HETATM    7  C   UNL     1      43.788 -18.421   4.525  1.00  0.00     0.014 A 
HETATM    8  C   UNL     1      43.343 -18.681   3.220  1.00  0.00     0.015 A 
HETATM    9  C   UNL     1      43.764 -19.826   2.537  1.00  0.00     0.001 A 
HETATM   10  C   UNL     1      44.636 -20.723   3.152  1.00  0.00     0.000 A 
HETATM   11  C   UNL     1      45.086 -20.478   4.447  1.00  0.00     0.001 A 
HETATM   12  C   UNL     1      44.665 -19.334   5.131  1.00  0.00     0.015 A 
ENDBRANCH   5   7
ENDBRANCH   1   2
BRANCH   1  13
HETATM   13  N   UNL     1      43.339 -13.268   7.058  1.00  0.00    -0.335 N 
HETATM   14  C   UNL     1      44.658 -13.344   7.377  1.00  0.00     0.321 C 
HETATM   15  N   UNL     1      45.072 -12.716   8.511  1.00  0.00    -0.309 N 
HETATM   16  O   UNL     1      45.489 -13.876   6.646  1.00  0.00    -0.247 OA
HETATM   17  H   UNL     1      46.081 -12.612   8.518  1.00  0.00     0.170 HD
HETATM   18  H   UNL     1      42.803 -12.545   7.512  1.00  0.00     0.164 HD
BRANCH  15  19
HETATM   19  C   UNL     1      44.384 -12.200   9.621  1.00  0.00     0.036 A 
HETATM   20  C   UNL     1      44.467 -12.733  10.910  1.00  0.00     0.029 A 
HETATM   21  C   UNL     1      43.744 -12.156  11.959  1.00  0.00     0.002 A 
HETATM   22  C   UNL     1      42.945 -11.037  11.731  1.00  0.00     0.000 A 
HETATM   23  C   UNL     1      42.885 -10.479  10.458  1.00  0.00     0.002 A 
HETATM   24  C   UNL     1      43.612 -11.050   9.412  1.00  0.00     0.029 A 
ENDBRANCH  15  19
ENDBRANCH   1  13
TORSDOF 4
ENDMDL
MODEL 7
REMARK VINA RESULT:      -7.7      3.672      4.950
REMARK  4 active torsions:
REMARK  status: ('A' for Active; 'I' for Inactive)
REMARK    1  A    between atoms: C_4  and  C_5 
REMARK    2  A    between atoms: C_8  and  C_9 
REMARK    3  A    between atoms: C_9  and  N_10 
REMARK       I    between atoms: N_10  and  C_11 
REMARK       I    between atoms: C_11  and  N_12 
REMARK    4  A    between atoms: N_12  and  C_13 
ROOT
HETATM    1  C   UNL     1      43.290 -16.705   7.601  1.00  0.00     0.213 C 
ENDROOT
BRANCH   1   2
HETATM    2  C   UNL     1      43.868 -17.704   6.672  1.00  0.00     0.190 A 
HETATM    3  O   UNL     1      45.217 -17.885   6.732  1.00  0.00    -0.194 OA
HETATM    4  N   UNL     1      45.541 -18.792   5.727  1.00  0.00    -0.106 NA
HETATM    5  C   UNL     1      44.359 -19.076   5.155  1.00  0.00     0.189 A 
HETATM    6  N   UNL     1      43.289 -18.417   5.730  1.00  0.00    -0.202 NA
BRANCH   5   7
HETATM    7  C   UNL     1      44.204 -19.972   4.012  1.00  0.00     0.014 A 
HETATM    8  C   UNL     1      44.695 -21.287   4.052  1.00  0.00     0.015 A 
HETATM    9  C   UNL     1      44.553 -22.135   2.950  1.00  0.00     0.001 A 
HETATM   10  C   UNL     1      43.919 -21.678   1.796  1.00  0.00     0.000 A 
HETATM   11  C   UNL     1      43.428 -20.376   1.742  1.00  0.00     0.001 A 
HETATM   12  C   UNL     1      43.569 -19.527   2.843  1.00  0.00     0.015 A 
ENDBRANCH   5   7
ENDBRANCH   1   2
BRANCH   1  13
HETATM   13  N   UNL     1      42.853 -15.527   6.878  1.00  0.00    -0.335 N 
HETATM   14  C   UNL     1      43.730 -14.549   6.533  1.00  0.00     0.321 C 
HETATM   15  N   UNL     1      43.290 -13.571   5.695  1.00  0.00    -0.309 N 
HETATM   16  O   UNL     1      44.909 -14.562   6.875  1.00  0.00    -0.247 OA
HETATM   17  H   UNL     1      44.069 -13.054   5.303  1.00  0.00     0.170 HD
HETATM   18  H   UNL     1      42.034 -15.628   6.298  1.00  0.00     0.164 HD
BRANCH  15  19
HETATM   19  C   UNL     1      42.007 -13.170   5.287  1.00  0.00     0.036 A 
HETATM   20  C   UNL     1      41.192 -12.298   6.011  1.00  0.00     0.029 A 
HETATM   21  C   UNL     1      39.925 -11.954   5.531  1.00  0.00     0.002 A 
HETATM   22  C   UNL     1      39.469 -12.467   4.318  1.00  0.00     0.000 A 
HETATM   23  C   UNL     1      40.290 -13.308   3.572  1.00  0.00     0.002 A 
HETATM   24  C   UNL     1      41.558 -13.646   4.048  1.00  0.00     0.029 A 
ENDBRANCH  15  19
ENDBRANCH   1  13
TORSDOF 4
ENDMDL
MODEL 8
REMARK VINA RESULT:      -7.7      4.542      6.514
REMARK  4 active torsions:
REMARK  status: ('A' for Active; 'I' for Inactive)
REMARK    1  A    between atoms: C_4  and  C_5 
REMARK    2  A    between atoms: C_8  and  C_9 
REMARK    3  A    between atoms: C_9  and  N_10 
REMARK       I    between atoms: N_10  and  C_11 
REMARK       I    between atoms: C_11  and  N_12 
REMARK    4  A    between atoms: N_12  and  C_13 
ROOT
HETATM    1  C   UNL     1      43.150 -15.095   5.701  1.00  0.00     0.213 C 
ENDROOT
BRANCH   1   2
HETATM    2  C   UNL     1      43.588 -16.491   5.464  1.00  0.00     0.190 A 
HETATM    3  O   UNL     1      44.501 -17.001   6.337  1.00  0.00    -0.194 OA
HETATM    4  N   UNL     1      44.823 -18.274   5.875  1.00  0.00    -0.106 NA
HETATM    5  C   UNL     1      44.073 -18.416   4.769  1.00  0.00     0.189 A 
HETATM    6  N   UNL     1      43.281 -17.319   4.489  1.00  0.00    -0.202 NA
BRANCH   5   7
HETATM    7  C   UNL     1      44.103 -19.599   3.915  1.00  0.00     0.014 A 
HETATM    8  C   UNL     1      44.671 -20.802   4.364  1.00  0.00     0.015 A 
HETATM    9  C   UNL     1      44.706 -21.928   3.536  1.00  0.00     0.001 A 
HETATM   10  C   UNL     1      44.173 -21.864   2.250  1.00  0.00     0.000 A 
HETATM   11  C   UNL     1      43.607 -20.677   1.790  1.00  0.00     0.001 A 
HETATM   12  C   UNL     1      43.572 -19.551   2.617  1.00  0.00     0.015 A 
ENDBRANCH   5   7
ENDBRANCH   1   2
BRANCH   1  13
HETATM   13  N   UNL     1      42.452 -14.575   4.542  1.00  0.00    -0.335 N 
HETATM   14  C   UNL     1      43.110 -13.879   3.579  1.00  0.00     0.321 C 
HETATM   15  N   UNL     1      42.434 -13.587   2.434  1.00  0.00    -0.309 N 
HETATM   16  O   UNL     1      44.298 -13.583   3.666  1.00  0.00    -0.247 OA
HETATM   17  H   UNL     1      43.073 -13.307   1.699  1.00  0.00     0.170 HD
HETATM   18  H   UNL     1      41.616 -15.063   4.259  1.00  0.00     0.164 HD
BRANCH  15  19
HETATM   19  C   UNL     1      41.069 -13.612   2.100  1.00  0.00     0.036 A 
HETATM   20  C   UNL     1      40.415 -14.722   1.561  1.00  0.00     0.029 A 
HETATM   21  C   UNL     1      39.053 -14.657   1.255  1.00  0.00     0.002 A 
HETATM   22  C   UNL     1      38.332 -13.490   1.498  1.00  0.00     0.000 A 
HETATM   23  C   UNL     1      38.967 -12.391   2.069  1.00  0.00     0.002 A 
HETATM   24  C   UNL     1      40.327 -12.458   2.381  1.00  0.00     0.029 A 
ENDBRANCH  15  19
ENDBRANCH   1  13
TORSDOF 4
ENDMDL
MODEL 9
REMARK VINA RESULT:      -7.6      5.361      9.131
REMARK  4 active torsions:
REMARK  status: ('A' for Active; 'I' for Inactive)
REMARK    1  A    between atoms: C_4  and  C_5 
REMARK    2  A    between atoms: C_8  and  C_9 
REMARK    3  A    between atoms: C_9  and  N_10 
REMARK       I    between atoms: N_10  and  C_11 
REMARK       I    between atoms: C_11  and  N_12 
REMARK    4  A    between atoms: N_12  and  C_13 
ROOT
HETATM    1  C   UNL     1      41.980 -17.020   6.117  1.00  0.00     0.213 C 
ENDROOT
BRANCH   1   2
HETATM    2  C   UNL     1      41.294 -16.109   5.170  1.00  0.00     0.190 A 
HETATM    3  O   UNL     1      40.455 -15.183   5.713  1.00  0.00    -0.194 OA
HETATM    4  N   UNL     1      39.868 -14.507   4.648  1.00  0.00    -0.106 NA
HETATM    5  C   UNL     1      40.407 -15.086   3.561  1.00  0.00     0.189 A 
HETATM    6  N   UNL     1      41.311 -16.088   3.855  1.00  0.00    -0.202 NA
BRANCH   5   7
HETATM    7  C   UNL     1      40.057 -14.723   2.191  1.00  0.00     0.014 A 
HETATM    8  C   UNL     1      38.737 -14.395   1.843  1.00  0.00     0.015 A 
HETATM    9  C   UNL     1      38.409 -14.060   0.527  1.00  0.00     0.001 A 
HETATM   10  C   UNL     1      39.396 -14.048  -0.457  1.00  0.00     0.000 A 
HETATM   11  C   UNL     1      40.710 -14.371  -0.127  1.00  0.00     0.001 A 
HETATM   12  C   UNL     1      41.040 -14.707   1.189  1.00  0.00     0.015 A 
ENDBRANCH   5   7
ENDBRANCH   1   2
BRANCH   1  13
HETATM   13  N   UNL     1      42.814 -17.966   5.403  1.00  0.00    -0.335 N 
HETATM   14  C   UNL     1      44.142 -18.073   5.669  1.00  0.00     0.321 C 
HETATM   15  N   UNL     1      44.821 -19.106   5.100  1.00  0.00    -0.309 N 
HETATM   16  O   UNL     1      44.723 -17.335   6.459  1.00  0.00    -0.247 OA
HETATM   17  H   UNL     1      45.715 -19.245   5.557  1.00  0.00     0.170 HD
HETATM   18  H   UNL     1      42.357 -18.786   5.034  1.00  0.00     0.164 HD
BRANCH  15  19
HETATM   19  C   UNL     1      44.515 -19.982   4.045  1.00  0.00     0.036 A 
HETATM   20  C   UNL     1      43.989 -19.575   2.817  1.00  0.00     0.029 A 
HETATM   21  C   UNL     1      43.713 -20.516   1.822  1.00  0.00     0.002 A 
HETATM   22  C   UNL     1      43.972 -21.868   2.040  1.00  0.00     0.000 A 
HETATM   23  C   UNL     1      44.531 -22.278   3.247  1.00  0.00     0.002 A 
HETATM   24  C   UNL     1      44.813 -21.337   4.239  1.00  0.00     0.029 A 
ENDBRANCH  15  19
ENDBRANCH   1  13
TORSDOF 4
ENDMDL
MODEL 10
REMARK VINA RESULT:      -7.6      7.591     10.143
REMARK  4 active torsions:
REMARK  status: ('A' for Active; 'I' for Inactive)
REMARK    1  A    between atoms: C_4  and  C_5 
REMARK    2  A    between atoms: C_8  and  C_9 
REMARK    3  A    between atoms: C_9  and  N_10 
REMARK       I    between atoms: N_10  and  C_11 
REMARK       I    between atoms: C_11  and  N_12 
REMARK    4  A    between atoms: N_12  and  C_13 
ROOT
HETATM    1  C   UNL     1      39.561 -15.350   2.122  1.00  0.00     0.213 C 
ENDROOT
BRANCH   1   2
HETATM    2  C   UNL     1      40.643 -16.350   2.281  1.00  0.00     0.190 A 
HETATM    3  O   UNL     1      41.043 -17.003   1.154  1.00  0.00    -0.194 OA
HETATM    4  N   UNL     1      41.991 -17.940   1.554  1.00  0.00    -0.106 NA
HETATM    5  C   UNL     1      42.080 -17.764   2.883  1.00  0.00     0.189 A 
HETATM    6  N   UNL     1      41.253 -16.770   3.369  1.00  0.00    -0.202 NA
BRANCH   5   7
HETATM    7  C   UNL     1      42.939 -18.563   3.752  1.00  0.00     0.014 A 
HETATM    8  C   UNL     1      43.906 -19.428   3.216  1.00  0.00     0.015 A 
HETATM    9  C   UNL     1      44.718 -20.197   4.055  1.00  0.00     0.001 A 
HETATM   10  C   UNL     1      44.573 -20.110   5.438  1.00  0.00     0.000 A 
HETATM   11  C   UNL     1      43.617 -19.256   5.984  1.00  0.00     0.001 A 
HETATM   12  C   UNL     1      42.804 -18.487   5.147  1.00  0.00     0.015 A 
ENDBRANCH   5   7
ENDBRANCH   1   2
BRANCH   1  13
HETATM   13  N   UNL     1      39.398 -14.992   0.727  1.00  0.00    -0.335 N 
HETATM   14  C   UNL     1      39.529 -13.706   0.311  1.00  0.00     0.321 C 
HETATM   15  N   UNL     1      39.551 -13.472  -1.029  1.00  0.00    -0.309 N 
HETATM   16  O   UNL     1      39.712 -12.771   1.087  1.00  0.00    -0.247 OA
HETATM   17  H   UNL     1      39.907 -12.544  -1.228  1.00  0.00     0.170 HD
HETATM   18  H   UNL     1      39.594 -15.711   0.048  1.00  0.00     0.164 HD
BRANCH  15  19
HETATM   19  C   UNL     1      39.194 -14.255  -2.140  1.00  0.00     0.036 A 
HETATM   20  C   UNL     1      40.084 -15.071  -2.842  1.00  0.00     0.029 A 
HETATM   21  C   UNL     1      39.642 -15.816  -3.939  1.00  0.00     0.002 A 
HETATM   22  C   UNL     1      38.306 -15.762  -4.334  1.00  0.00     0.000 A 
HETATM   23  C   UNL     1      37.405 -14.981  -3.617  1.00  0.00     0.002 A 
HETATM   24  C   UNL     1      37.845 -14.242  -2.517  1.00  0.00     0.029 A 
ENDBRANCH  15  19
ENDBRANCH   1  13
TORSDOF 4
ENDMDL
