MODEL 1
REMARK VINA RESULT:      -8.3      0.000      0.000
REMARK  2 active torsions:
REMARK  status: ('A' for Active; 'I' for Inactive)
REMARK    1  A    between atoms: C_9  and  C_11 
REMARK    2  A    between atoms: C_9  and  O_10 
ROOT
HETATM    1  C   UNL     1      44.721 -14.314   6.987  1.00  0.00     0.048 C 
HETATM    2  C   UNL     1      43.720 -14.465   5.877  1.00  0.00    -0.061 A 
HETATM    3  C   UNL     1      43.208 -15.729   5.550  1.00  0.00     0.020 A 
HETATM    4  C   UNL     1      42.309 -15.831   4.496  1.00  0.00     0.018 A 
HETATM    5  C   UNL     1      41.917 -14.691   3.795  1.00  0.00     0.045 A 
HETATM    6  N   UNL     1      41.001 -15.021   2.807  1.00  0.00    -0.323 N 
HETATM    7  C   UNL     1      40.739 -16.393   2.788  1.00  0.00     0.266 A 
HETATM    8  O   UNL     1      39.951 -16.927   2.021  1.00  0.00    -0.269 OA
HETATM    9  C   UNL     1      41.586 -17.043   3.943  1.00  0.00     0.199 A 
HETATM   10  C   UNL     1      42.403 -13.436   4.088  1.00  0.00     0.031 A 
HETATM   11  C   UNL     1      43.319 -13.329   5.139  1.00  0.00     0.009 A 
HETATM   12  H   UNL     1      40.566 -14.377   2.163  1.00  0.00     0.169 HD
ENDROOT
BRANCH   9  13
HETATM   13  C   UNL     1      42.660 -17.998   3.464  1.00  0.00     0.025 A 
HETATM   14  C   UNL     1      43.307 -19.013   4.269  1.00  0.00     0.003 A 
HETATM   15  C   UNL     1      44.261 -19.647   3.475  1.00  0.00     0.043 A 
HETATM   16  C   UNL     1      43.180 -19.445   5.609  1.00  0.00     0.014 A 
HETATM   17  C   UNL     1      45.089 -20.675   3.945  1.00  0.00     0.030 A 
HETATM   18  N   UNL     1      44.197 -19.072   2.234  1.00  0.00    -0.359 N 
HETATM   19  C   UNL     1      44.941 -21.075   5.273  1.00  0.00     0.002 A 
HETATM   20  C   UNL     1      43.997 -20.471   6.097  1.00  0.00     0.001 A 
HETATM   21  H   UNL     1      44.777 -19.346   1.453  1.00  0.00     0.166 HD
HETATM   22  C   UNL     1      43.260 -18.069   2.204  1.00  0.00     0.016 A 
HETATM   23  C   UNL     1      43.051 -17.285   0.956  1.00  0.00     0.069 C 
ENDBRANCH   9  13
BRANCH   9  24
HETATM   24  O   UNL     1      40.727 -17.582   4.943  1.00  0.00    -0.371 OA
HETATM   25  H   UNL     1      41.004 -17.186   5.786  1.00  0.00     0.212 HD
ENDBRANCH   9  24
TORSDOF 2
ENDMDL
MODEL 2
REMARK VINA RESULT:      -8.0      2.199      6.027
REMARK  2 active torsions:
REMARK  status: ('A' for Active; 'I' for Inactive)
REMARK    1  A    between atoms: C_9  and  C_11 
REMARK    2  A    between atoms: C_9  and  O_10 
ROOT
HETATM    1  C   UNL     1      42.892 -19.100   1.902  1.00  0.00     0.048 C 
HETATM    2  C   UNL     1      43.299 -18.881   3.331  1.00  0.00    -0.061 A 
HETATM    3  C   UNL     1      42.624 -17.943   4.126  1.00  0.00     0.020 A 
HETATM    4  C   UNL     1      43.051 -17.746   5.433  1.00  0.00     0.018 A 
HETATM    5  C   UNL     1      44.121 -18.484   5.940  1.00  0.00     0.045 A 
HETATM    6  N   UNL     1      44.359 -18.145   7.263  1.00  0.00    -0.323 N 
HETATM    7  C   UNL     1      43.473 -17.161   7.708  1.00  0.00     0.266 A 
HETATM    8  O   UNL     1      43.467 -16.710   8.844  1.00  0.00    -0.269 OA
HETATM    9  C   UNL     1      42.506 -16.832   6.512  1.00  0.00     0.199 A 
HETATM   10  C   UNL     1      44.807 -19.410   5.185  1.00  0.00     0.031 A 
HETATM   11  C   UNL     1      44.390 -19.602   3.865  1.00  0.00     0.009 A 
HETATM   12  H   UNL     1      45.077 -18.535   7.855  1.00  0.00     0.169 HD
ENDROOT
BRANCH   9  13
HETATM   13  C   UNL     1      42.635 -15.420   5.979  1.00  0.00     0.025 A 
HETATM   14  C   UNL     1      41.684 -14.754   5.114  1.00  0.00     0.003 A 
HETATM   15  C   UNL     1      42.187 -13.489   4.816  1.00  0.00     0.043 A 
HETATM   16  C   UNL     1      40.444 -15.116   4.540  1.00  0.00     0.014 A 
HETATM   17  C   UNL     1      41.525 -12.577   3.983  1.00  0.00     0.030 A 
HETATM   18  N   UNL     1      43.378 -13.364   5.480  1.00  0.00    -0.359 N 
HETATM   19  C   UNL     1      40.304 -12.967   3.430  1.00  0.00     0.002 A 
HETATM   20  C   UNL     1      39.767 -14.219   3.706  1.00  0.00     0.001 A 
HETATM   21  H   UNL     1      43.958 -12.537   5.449  1.00  0.00     0.166 HD
HETATM   22  C   UNL     1      43.680 -14.512   6.169  1.00  0.00     0.016 A 
HETATM   23  C   UNL     1      44.954 -14.606   6.933  1.00  0.00     0.069 C 
ENDBRANCH   9  13
BRANCH   9  24
HETATM   24  O   UNL     1      41.172 -17.217   6.832  1.00  0.00    -0.371 OA
HETATM   25  H   UNL     1      41.230 -18.100   7.233  1.00  0.00     0.212 HD
ENDBRANCH   9  24
TORSDOF 2
ENDMDL
MODEL 3
REMARK VINA RESULT:      -7.9      2.556      4.351
REMARK  2 active torsions:
REMARK  status: ('A' for Active; 'I' for Inactive)
REMARK    1  A    between atoms: C_9  and  C_11 
REMARK    2  A    between atoms: C_9  and  O_10 
ROOT
HETATM    1  C   UNL     1      38.901 -13.708   2.112  1.00  0.00     0.048 C 
HETATM    2  C   UNL     1      39.856 -13.509   3.254  1.00  0.00    -0.061 A 
HETATM    3  C   UNL     1      41.122 -14.114   3.235  1.00  0.00     0.020 A 
HETATM    4  C   UNL     1      41.963 -13.931   4.325  1.00  0.00     0.018 A 
HETATM    5  C   UNL     1      41.555 -13.145   5.403  1.00  0.00     0.045 A 
HETATM    6  N   UNL     1      42.555 -13.080   6.361  1.00  0.00    -0.323 N 
HETATM    7  C   UNL     1      43.677 -13.822   5.982  1.00  0.00     0.266 A 
HETATM    8  O   UNL     1      44.698 -13.904   6.649  1.00  0.00    -0.269 OA
HETATM    9  C   UNL     1      43.372 -14.434   4.566  1.00  0.00     0.199 A 
HETATM   10  C   UNL     1      40.318 -12.541   5.454  1.00  0.00     0.031 A 
HETATM   11  C   UNL     1      39.462 -12.733   4.366  1.00  0.00     0.009 A 
HETATM   12  H   UNL     1      42.508 -12.577   7.234  1.00  0.00     0.169 HD
ENDROOT
BRANCH   9  13
HETATM   13  C   UNL     1      43.292 -15.948   4.548  1.00  0.00     0.025 A 
HETATM   14  C   UNL     1      43.516 -16.791   3.393  1.00  0.00     0.003 A 
HETATM   15  C   UNL     1      43.307 -18.113   3.780  1.00  0.00     0.043 A 
HETATM   16  C   UNL     1      43.865 -16.552   2.045  1.00  0.00     0.014 A 
HETATM   17  C   UNL     1      43.423 -19.198   2.899  1.00  0.00     0.030 A 
HETATM   18  N   UNL     1      42.990 -18.097   5.112  1.00  0.00    -0.359 N 
HETATM   19  C   UNL     1      43.765 -18.927   1.574  1.00  0.00     0.002 A 
HETATM   20  C   UNL     1      43.986 -17.621   1.149  1.00  0.00     0.001 A 
HETATM   21  H   UNL     1      42.795 -18.925   5.657  1.00  0.00     0.166 HD
HETATM   22  C   UNL     1      42.956 -16.811   5.593  1.00  0.00     0.016 A 
HETATM   23  C   UNL     1      42.596 -16.562   7.016  1.00  0.00     0.069 C 
ENDBRANCH   9  13
BRANCH   9  24
HETATM   24  O   UNL     1      44.249 -13.883   3.588  1.00  0.00    -0.371 OA
HETATM   25  H   UNL     1      43.781 -13.130   3.193  1.00  0.00     0.212 HD
ENDBRANCH   9  24
TORSDOF 2
ENDMDL
MODEL 4
REMARK VINA RESULT:      -7.9      2.066      5.697
REMARK  2 active torsions:
REMARK  status: ('A' for Active; 'I' for Inactive)
REMARK    1  A    between atoms: C_9  and  C_11 
REMARK    2  A    between atoms: C_9  and  O_10 
ROOT
HETATM    1  C   UNL     1      43.803 -21.686   1.744  1.00  0.00     0.048 C 
HETATM    2  C   UNL     1      43.808 -20.528   2.701  1.00  0.00    -0.061 A 
HETATM    3  C   UNL     1      42.806 -19.548   2.637  1.00  0.00     0.020 A 
HETATM    4  C   UNL     1      42.865 -18.477   3.518  1.00  0.00     0.018 A 
HETATM    5  C   UNL     1      43.894 -18.395   4.457  1.00  0.00     0.045 A 
HETATM    6  N   UNL     1      43.742 -17.264   5.244  1.00  0.00    -0.323 N 
HETATM    7  C   UNL     1      42.615 -16.527   4.872  1.00  0.00     0.266 A 
HETATM    8  O   UNL     1      42.257 -15.499   5.429  1.00  0.00    -0.269 OA
HETATM    9  C   UNL     1      41.922 -17.302   3.692  1.00  0.00     0.199 A 
HETATM   10  C   UNL     1      44.895 -19.338   4.544  1.00  0.00     0.031 A 
HETATM   11  C   UNL     1      44.848 -20.411   3.650  1.00  0.00     0.009 A 
HETATM   12  H   UNL     1      44.354 -16.977   5.993  1.00  0.00     0.169 HD
ENDROOT
BRANCH   9  13
HETATM   13  C   UNL     1      41.924 -16.557   2.373  1.00  0.00     0.025 A 
HETATM   14  C   UNL     1      40.827 -15.775   1.845  1.00  0.00     0.003 A 
HETATM   15  C   UNL     1      41.208 -15.289   0.595  1.00  0.00     0.043 A 
HETATM   16  C   UNL     1      39.532 -15.445   2.306  1.00  0.00     0.014 A 
HETATM   17  C   UNL     1      40.374 -14.503  -0.210  1.00  0.00     0.030 A 
HETATM   18  N   UNL     1      42.486 -15.727   0.367  1.00  0.00    -0.359 N 
HETATM   19  C   UNL     1      39.101 -14.198   0.274  1.00  0.00     0.002 A 
HETATM   20  C   UNL     1      38.683 -14.660   1.517  1.00  0.00     0.001 A 
HETATM   21  H   UNL     1      43.016 -15.513  -0.466  1.00  0.00     0.166 HD
HETATM   22  C   UNL     1      42.932 -16.504   1.407  1.00  0.00     0.016 A 
HETATM   23  C   UNL     1      44.289 -17.114   1.348  1.00  0.00     0.069 C 
ENDBRANCH   9  13
BRANCH   9  24
HETATM   24  O   UNL     1      40.641 -17.776   4.095  1.00  0.00    -0.371 OA
HETATM   25  H   UNL     1      40.596 -18.708   3.827  1.00  0.00     0.212 HD
ENDBRANCH   9  24
TORSDOF 2
ENDMDL
MODEL 5
REMARK VINA RESULT:      -7.7      1.824      3.225
REMARK  2 active torsions:
REMARK  status: ('A' for Active; 'I' for Inactive)
REMARK    1  A    between atoms: C_9  and  C_11 
REMARK    2  A    between atoms: C_9  and  O_10 
ROOT
HETATM    1  C   UNL     1      45.915 -13.529   6.796  1.00  0.00     0.048 C 
HETATM    2  C   UNL     1      44.520 -14.036   6.574  1.00  0.00    -0.061 A 
HETATM    3  C   UNL     1      44.231 -15.403   6.699  1.00  0.00     0.020 A 
HETATM    4  C   UNL     1      42.935 -15.836   6.455  1.00  0.00     0.018 A 
HETATM    5  C   UNL     1      41.942 -14.920   6.108  1.00  0.00     0.045 A 
HETATM    6  N   UNL     1      40.727 -15.564   5.935  1.00  0.00    -0.323 N 
HETATM    7  C   UNL     1      40.841 -16.940   6.146  1.00  0.00     0.266 A 
HETATM    8  O   UNL     1      39.905 -17.723   6.072  1.00  0.00    -0.269 OA
HETATM    9  C   UNL     1      42.337 -17.227   6.536  1.00  0.00     0.199 A 
HETATM   10  C   UNL     1      42.192 -13.571   5.973  1.00  0.00     0.031 A 
HETATM   11  C   UNL     1      43.499 -13.132   6.205  1.00  0.00     0.009 A 
HETATM   12  H   UNL     1      39.854 -15.125   5.682  1.00  0.00     0.169 HD
ENDROOT
BRANCH   9  13
HETATM   13  C   UNL     1      43.091 -18.073   5.529  1.00  0.00     0.025 A 
HETATM   14  C   UNL     1      43.292 -17.745   4.134  1.00  0.00     0.003 A 
HETATM   15  C   UNL     1      43.993 -18.794   3.543  1.00  0.00     0.043 A 
HETATM   16  C   UNL     1      42.929 -16.656   3.310  1.00  0.00     0.014 A 
HETATM   17  C   UNL     1      44.344 -18.815   2.186  1.00  0.00     0.030 A 
HETATM   18  N   UNL     1      44.236 -19.718   4.524  1.00  0.00    -0.359 N 
HETATM   19  C   UNL     1      43.968 -17.725   1.400  1.00  0.00     0.002 A 
HETATM   20  C   UNL     1      43.270 -16.656   1.953  1.00  0.00     0.001 A 
HETATM   21  H   UNL     1      44.739 -20.582   4.376  1.00  0.00     0.166 HD
HETATM   22  C   UNL     1      43.690 -19.320   5.720  1.00  0.00     0.016 A 
HETATM   23  C   UNL     1      43.807 -20.198   6.917  1.00  0.00     0.069 C 
ENDBRANCH   9  13
BRANCH   9  24
HETATM   24  O   UNL     1      42.418 -17.702   7.876  1.00  0.00    -0.371 OA
HETATM   25  H   UNL     1      42.744 -16.960   8.412  1.00  0.00     0.212 HD
ENDBRANCH   9  24
TORSDOF 2
ENDMDL
MODEL 6
REMARK VINA RESULT:      -7.6      3.699      7.139
REMARK  2 active torsions:
REMARK  status: ('A' for Active; 'I' for Inactive)
REMARK    1  A    between atoms: C_9  and  C_11 
REMARK    2  A    between atoms: C_9  and  O_10 
ROOT
HETATM    1  C   UNL     1      44.212 -17.532   1.370  1.00  0.00     0.048 C 
HETATM    2  C   UNL     1      42.814 -17.042   1.614  1.00  0.00    -0.061 A 
HETATM    3  C   UNL     1      42.270 -16.021   0.821  1.00  0.00     0.020 A 
HETATM    4  C   UNL     1      40.985 -15.574   1.099  1.00  0.00     0.018 A 
HETATM    5  C   UNL     1      40.252 -16.147   2.137  1.00  0.00     0.045 A 
HETATM    6  N   UNL     1      38.994 -15.568   2.220  1.00  0.00    -0.323 N 
HETATM    7  C   UNL     1      38.823 -14.574   1.253  1.00  0.00     0.266 A 
HETATM    8  O   UNL     1      37.792 -13.932   1.109  1.00  0.00    -0.269 OA
HETATM    9  C   UNL     1      40.147 -14.518   0.405  1.00  0.00     0.199 A 
HETATM   10  C   UNL     1      40.757 -17.149   2.937  1.00  0.00     0.031 A 
HETATM   11  C   UNL     1      42.055 -17.593   2.670  1.00  0.00     0.009 A 
HETATM   12  H   UNL     1      38.275 -15.805   2.886  1.00  0.00     0.169 HD
ENDROOT
BRANCH   9  13
HETATM   13  C   UNL     1      40.911 -13.216   0.533  1.00  0.00     0.025 A 
HETATM   14  C   UNL     1      41.576 -12.519  -0.547  1.00  0.00     0.003 A 
HETATM   15  C   UNL     1      42.196 -11.391  -0.012  1.00  0.00     0.043 A 
HETATM   16  C   UNL     1      41.724 -12.750  -1.933  1.00  0.00     0.014 A 
HETATM   17  C   UNL     1      42.949 -10.492  -0.780  1.00  0.00     0.030 A 
HETATM   18  N   UNL     1      41.912 -11.373   1.327  1.00  0.00    -0.359 N 
HETATM   19  C   UNL     1      43.078 -10.752  -2.145  1.00  0.00     0.002 A 
HETATM   20  C   UNL     1      42.473 -11.865  -2.718  1.00  0.00     0.001 A 
HETATM   21  H   UNL     1      42.230 -10.656   1.963  1.00  0.00     0.166 HD
HETATM   22  C   UNL     1      41.159 -12.465   1.684  1.00  0.00     0.016 A 
HETATM   23  C   UNL     1      40.767 -12.662   3.107  1.00  0.00     0.069 C 
ENDBRANCH   9  13
BRANCH   9  24
HETATM   24  O   UNL     1      39.893 -14.919  -0.938  1.00  0.00    -0.371 OA
HETATM   25  H   UNL     1      40.759 -14.988  -1.372  1.00  0.00     0.212 HD
ENDBRANCH   9  24
TORSDOF 2
ENDMDL
MODEL 7
REMARK VINA RESULT:      -7.5      1.884      5.784
REMARK  2 active torsions:
REMARK  status: ('A' for Active; 'I' for Inactive)
REMARK    1  A    between atoms: C_9  and  C_11 
REMARK    2  A    between atoms: C_9  and  O_10 
ROOT
HETATM    1  C   UNL     1      43.884 -19.913   1.410  1.00  0.00     0.048 C 
HETATM    2  C   UNL     1      43.813 -19.638   2.885  1.00  0.00    -0.061 A 
HETATM    3  C   UNL     1      42.993 -18.612   3.377  1.00  0.00     0.020 A 
HETATM    4  C   UNL     1      42.978 -18.368   4.744  1.00  0.00     0.018 A 
HETATM    5  C   UNL     1      43.755 -19.145   5.604  1.00  0.00     0.045 A 
HETATM    6  N   UNL     1      43.570 -18.746   6.919  1.00  0.00    -0.323 N 
HETATM    7  C   UNL     1      42.671 -17.680   7.009  1.00  0.00     0.266 A 
HETATM    8  O   UNL     1      42.328 -17.164   8.063  1.00  0.00    -0.269 OA
HETATM    9  C   UNL     1      42.185 -17.358   5.549  1.00  0.00     0.199 A 
HETATM   10  C   UNL     1      44.574 -20.158   5.153  1.00  0.00     0.031 A 
HETATM   11  C   UNL     1      44.602 -20.398   3.776  1.00  0.00     0.009 A 
HETATM   12  H   UNL     1      44.017 -19.148   7.729  1.00  0.00     0.169 HD
ENDROOT
BRANCH   9  13
HETATM   13  C   UNL     1      42.599 -15.991   5.043  1.00  0.00     0.025 A 
HETATM   14  C   UNL     1      42.023 -15.301   3.909  1.00  0.00     0.003 A 
HETATM   15  C   UNL     1      42.706 -14.097   3.747  1.00  0.00     0.043 A 
HETATM   16  C   UNL     1      40.990 -15.595   2.990  1.00  0.00     0.014 A 
HETATM   17  C   UNL     1      42.417 -13.182   2.725  1.00  0.00     0.030 A 
HETATM   18  N   UNL     1      43.644 -14.030   4.743  1.00  0.00    -0.359 N 
HETATM   19  C   UNL     1      41.394 -13.504   1.833  1.00  0.00     0.002 A 
HETATM   20  C   UNL     1      40.686 -14.694   1.963  1.00  0.00     0.001 A 
HETATM   21  H   UNL     1      44.279 -13.255   4.870  1.00  0.00     0.166 HD
HETATM   22  C   UNL     1      43.615 -15.160   5.522  1.00  0.00     0.016 A 
HETATM   23  C   UNL     1      44.579 -15.311   6.646  1.00  0.00     0.069 C 
ENDBRANCH   9  13
BRANCH   9  24
HETATM   24  O   UNL     1      40.794 -17.633   5.418  1.00  0.00    -0.371 OA
HETATM   25  H   UNL     1      40.459 -17.037   4.729  1.00  0.00     0.212 HD
ENDBRANCH   9  24
TORSDOF 2
ENDMDL
MODEL 8
REMARK VINA RESULT:      -7.5      2.666      6.055
REMARK  2 active torsions:
REMARK  status: ('A' for Active; 'I' for Inactive)
REMARK    1  A    between atoms: C_9  and  C_11 
REMARK    2  A    between atoms: C_9  and  O_10 
ROOT
HETATM    1  C   UNL     1      43.560 -19.127   1.778  1.00  0.00     0.048 C 
HETATM    2  C   UNL     1      42.860 -18.288   2.808  1.00  0.00    -0.061 A 
HETATM    3  C   UNL     1      42.012 -17.242   2.416  1.00  0.00     0.020 A 
HETATM    4  C   UNL     1      41.408 -16.469   3.399  1.00  0.00     0.018 A 
HETATM    5  C   UNL     1      41.634 -16.746   4.747  1.00  0.00     0.045 A 
HETATM    6  N   UNL     1      40.917 -15.871   5.549  1.00  0.00    -0.323 N 
HETATM    7  C   UNL     1      40.184 -14.959   4.785  1.00  0.00     0.266 A 
HETATM    8  O   UNL     1      39.457 -14.100   5.261  1.00  0.00    -0.269 OA
HETATM    9  C   UNL     1      40.442 -15.308   3.273  1.00  0.00     0.199 A 
HETATM   10  C   UNL     1      42.464 -17.764   5.166  1.00  0.00     0.031 A 
HETATM   11  C   UNL     1      43.085 -18.536   4.180  1.00  0.00     0.009 A 
HETATM   12  H   UNL     1      40.910 -15.862   6.558  1.00  0.00     0.169 HD
ENDROOT
BRANCH   9  13
HETATM   13  C   UNL     1      41.172 -14.227   2.502  1.00  0.00     0.025 A 
HETATM   14  C   UNL     1      41.022 -13.951   1.089  1.00  0.00     0.003 A 
HETATM   15  C   UNL     1      41.894 -12.916   0.759  1.00  0.00     0.043 A 
HETATM   16  C   UNL     1      40.233 -14.497   0.051  1.00  0.00     0.014 A 
HETATM   17  C   UNL     1      42.022 -12.404  -0.539  1.00  0.00     0.030 A 
HETATM   18  N   UNL     1      42.538 -12.550   1.911  1.00  0.00    -0.359 N 
HETATM   19  C   UNL     1      41.231 -12.967  -1.542  1.00  0.00     0.002 A 
HETATM   20  C   UNL     1      40.345 -14.000  -1.252  1.00  0.00     0.001 A 
HETATM   21  H   UNL     1      43.226 -11.812   1.965  1.00  0.00     0.166 HD
HETATM   22  C   UNL     1      42.139 -13.332   2.967  1.00  0.00     0.016 A 
HETATM   23  C   UNL     1      42.743 -13.128   4.312  1.00  0.00     0.069 C 
ENDBRANCH   9  13
BRANCH   9  24
HETATM   24  O   UNL     1      39.239 -15.756   2.656  1.00  0.00    -0.371 OA
HETATM   25  H   UNL     1      39.001 -15.083   1.997  1.00  0.00     0.212 HD
ENDBRANCH   9  24
TORSDOF 2
ENDMDL
MODEL 9
REMARK VINA RESULT:      -7.4      2.072      3.013
REMARK  2 active torsions:
REMARK  status: ('A' for Active; 'I' for Inactive)
REMARK    1  A    between atoms: C_9  and  C_11 
REMARK    2  A    between atoms: C_9  and  O_10 
ROOT
HETATM    1  C   UNL     1      42.088 -12.062   1.325  1.00  0.00     0.048 C 
HETATM    2  C   UNL     1      41.469 -12.838   2.452  1.00  0.00    -0.061 A 
HETATM    3  C   UNL     1      42.095 -13.990   2.950  1.00  0.00     0.020 A 
HETATM    4  C   UNL     1      41.474 -14.697   3.971  1.00  0.00     0.018 A 
HETATM    5  C   UNL     1      40.260 -14.253   4.496  1.00  0.00     0.045 A 
HETATM    6  N   UNL     1      39.837 -15.091   5.516  1.00  0.00    -0.323 N 
HETATM    7  C   UNL     1      40.735 -16.142   5.722  1.00  0.00     0.266 A 
HETATM    8  O   UNL     1      40.594 -17.002   6.579  1.00  0.00    -0.269 OA
HETATM    9  C   UNL     1      41.922 -15.943   4.710  1.00  0.00     0.199 A 
HETATM   10  C   UNL     1      39.617 -13.128   4.027  1.00  0.00     0.031 A 
HETATM   11  C   UNL     1      40.231 -12.420   2.990  1.00  0.00     0.009 A 
HETATM   12  H   UNL     1      38.991 -14.989   6.055  1.00  0.00     0.169 HD
ENDROOT
BRANCH   9  13
HETATM   13  C   UNL     1      42.039 -17.037   3.667  1.00  0.00     0.025 A 
HETATM   14  C   UNL     1      43.013 -18.107   3.673  1.00  0.00     0.003 A 
HETATM   15  C   UNL     1      42.815 -18.874   2.526  1.00  0.00     0.043 A 
HETATM   16  C   UNL     1      44.059 -18.490   4.542  1.00  0.00     0.014 A 
HETATM   17  C   UNL     1      43.601 -19.988   2.203  1.00  0.00     0.030 A 
HETATM   18  N   UNL     1      41.758 -18.322   1.851  1.00  0.00    -0.359 N 
HETATM   19  C   UNL     1      44.628 -20.337   3.081  1.00  0.00     0.002 A 
HETATM   20  C   UNL     1      44.855 -19.601   4.238  1.00  0.00     0.001 A 
HETATM   21  H   UNL     1      41.391 -18.685   0.983  1.00  0.00     0.166 HD
HETATM   22  C   UNL     1      41.286 -17.210   2.503  1.00  0.00     0.016 A 
HETATM   23  C   UNL     1      40.157 -16.433   1.921  1.00  0.00     0.069 C 
ENDBRANCH   9  13
BRANCH   9  24
HETATM   24  O   UNL     1      43.131 -15.672   5.411  1.00  0.00    -0.371 OA
HETATM   25  H   UNL     1      43.799 -15.464   4.737  1.00  0.00     0.212 HD
ENDBRANCH   9  24
TORSDOF 2
ENDMDL
MODEL 10
REMARK VINA RESULT:      -7.4      1.337      2.378
REMARK  2 active torsions:
REMARK  status: ('A' for Active; 'I' for Inactive)
REMARK    1  A    between atoms: C_9  and  C_11 
REMARK    2  A    between atoms: C_9  and  O_10 
ROOT
HETATM    1  C   UNL     1      44.771 -13.830   7.331  1.00  0.00     0.048 C 
HETATM    2  C   UNL     1      44.021 -14.296   6.117  1.00  0.00    -0.061 A 
HETATM    3  C   UNL     1      43.355 -15.531   6.123  1.00  0.00     0.020 A 
HETATM    4  C   UNL     1      42.699 -15.941   4.970  1.00  0.00     0.018 A 
HETATM    5  C   UNL     1      42.693 -15.125   3.838  1.00  0.00     0.045 A 
HETATM    6  N   UNL     1      41.963 -15.717   2.819  1.00  0.00    -0.323 N 
HETATM    7  C   UNL     1      41.452 -16.958   3.207  1.00  0.00     0.266 A 
HETATM    8  O   UNL     1      40.757 -17.664   2.491  1.00  0.00    -0.269 OA
HETATM    9  C   UNL     1      41.890 -17.194   4.699  1.00  0.00     0.199 A 
HETATM   10  C   UNL     1      43.339 -13.909   3.797  1.00  0.00     0.031 A 
HETATM   11  C   UNL     1      44.013 -13.498   4.951  1.00  0.00     0.009 A 
HETATM   12  H   UNL     1      41.809 -15.331   1.900  1.00  0.00     0.169 HD
ENDROOT
BRANCH   9  13
HETATM   13  C   UNL     1      42.837 -18.361   4.890  1.00  0.00     0.025 A 
HETATM   14  C   UNL     1      43.332 -19.227   3.841  1.00  0.00     0.003 A 
HETATM   15  C   UNL     1      44.139 -20.198   4.431  1.00  0.00     0.043 A 
HETATM   16  C   UNL     1      43.157 -19.286   2.440  1.00  0.00     0.014 A 
HETATM   17  C   UNL     1      44.771 -21.216   3.703  1.00  0.00     0.030 A 
HETATM   18  N   UNL     1      44.164 -19.937   5.775  1.00  0.00    -0.359 N 
HETATM   19  C   UNL     1      44.574 -21.248   2.322  1.00  0.00     0.002 A 
HETATM   20  C   UNL     1      43.779 -20.295   1.695  1.00  0.00     0.001 A 
HETATM   21  H   UNL     1      44.684 -20.484   6.447  1.00  0.00     0.166 HD
HETATM   22  C   UNL     1      43.378 -18.854   6.080  1.00  0.00     0.016 A 
HETATM   23  C   UNL     1      43.234 -18.417   7.496  1.00  0.00     0.069 C 
ENDBRANCH   9  13
BRANCH   9  24
HETATM   24  O   UNL     1      40.751 -17.219   5.552  1.00  0.00    -0.371 OA
HETATM   25  H   UNL     1      39.995 -17.464   4.995  1.00  0.00     0.212 HD
ENDBRANCH   9  24
TORSDOF 2
ENDMDL
