MODEL 1
REMARK VINA RESULT:      -9.2      0.000      0.000
REMARK  6 active torsions:
REMARK  status: ('A' for Active; 'I' for Inactive)
REMARK    1  A    between atoms: C_2  and  C_4 
REMARK    2  A    between atoms: C_2  and  C_11 
REMARK    3  A    between atoms: C_2  and  O_3 
REMARK    4  A    between atoms: C_11  and  N_12 
REMARK       I    between atoms: N_12  and  C_13 
REMARK    5  A    between atoms: C_13  and  C_14 
REMARK    6  A    between atoms: C_18  and  C_19 
ROOT
HETATM    1  N   UNL     1      44.444 -14.066   7.672  1.00  0.00    -0.352 N 
HETATM    2  C   UNL     1      45.361 -13.047   7.793  1.00  0.00     0.272 C 
HETATM    3  O   UNL     1      46.334 -12.917   7.054  1.00  0.00    -0.266 OA
HETATM    4  H   UNL     1      43.754 -14.125   8.417  1.00  0.00     0.162 HD
ENDROOT
BRANCH   2   5
HETATM    5  C   UNL     1      45.073 -12.127   8.903  1.00  0.00     0.146 A 
HETATM    6  N   UNL     1      45.785 -11.002   9.111  1.00  0.00    -0.169 NA
HETATM    7  N   UNL     1      45.223 -10.462  10.206  1.00  0.00    -0.277 N 
HETATM    8  H   UNL     1      45.623  -9.606  10.571  1.00  0.00     0.189 HD
HETATM    9  C   UNL     1      44.160 -11.168  10.713  1.00  0.00     0.063 A 
HETATM   10  C   UNL     1      44.054 -12.266   9.878  1.00  0.00     0.071 A 
BRANCH   9  11
HETATM   11  C   UNL     1      43.397 -10.773  11.897  1.00  0.00    -0.008 A 
HETATM   12  C   UNL     1      43.844  -9.752  12.751  1.00  0.00     0.017 A 
HETATM   13  C   UNL     1      43.101  -9.389  13.878  1.00  0.00     0.043 A 
HETATM   14  C   UNL     1      41.907 -10.042  14.154  1.00  0.00     0.116 A 
HETATM   15  F   UNL     1      41.196  -9.691  15.235  1.00  0.00    -0.206 F 
HETATM   16  C   UNL     1      41.439 -11.049  13.323  1.00  0.00     0.043 A 
HETATM   17  C   UNL     1      42.183 -11.414  12.197  1.00  0.00     0.017 A 
ENDBRANCH   9  11
ENDBRANCH   2   5
BRANCH   1  18
HETATM   18  C   UNL     1      44.579 -15.150   6.718  1.00  0.00     0.165 C 
BRANCH  18  19
HETATM   19  C   UNL     1      43.450 -16.221   6.808  1.00  0.00     0.099 C 
HETATM   20  C   UNL     1      43.456 -16.902   8.190  1.00  0.00     0.053 C 
BRANCH  19  21
HETATM   21  C   UNL     1      43.602 -17.206   5.631  1.00  0.00    -0.001 A 
HETATM   22  C   UNL     1      43.359 -16.859   4.284  1.00  0.00     0.043 A 
HETATM   23 CL   UNL     1      42.847 -15.277   3.794  1.00  0.00    -0.084 Cl
HETATM   24  C   UNL     1      43.540 -17.785   3.246  1.00  0.00     0.024 A 
HETATM   25  C   UNL     1      43.979 -19.076   3.519  1.00  0.00     0.002 A 
HETATM   26  C   UNL     1      44.245 -19.442   4.831  1.00  0.00     0.001 A 
HETATM   27  C   UNL     1      44.064 -18.521   5.868  1.00  0.00     0.012 A 
ENDBRANCH  19  21
BRANCH  19  28
HETATM   28  O   UNL     1      42.168 -15.566   6.762  1.00  0.00    -0.384 OA
HETATM   29  H   UNL     1      41.757 -15.769   5.905  1.00  0.00     0.211 HD
ENDBRANCH  19  28
ENDBRANCH  18  19
ENDBRANCH   1  18
TORSDOF 6
ENDMDL
MODEL 2
REMARK VINA RESULT:      -8.9      8.841     11.313
REMARK  6 active torsions:
REMARK  status: ('A' for Active; 'I' for Inactive)
REMARK    1  A    between atoms: C_2  and  C_4 
REMARK    2  A    between atoms: C_2  and  C_11 
REMARK    3  A    between atoms: C_2  and  O_3 
REMARK    4  A    between atoms: C_11  and  N_12 
REMARK       I    between atoms: N_12  and  C_13 
REMARK    5  A    between atoms: C_13  and  C_14 
REMARK    6  A    between atoms: C_18  and  C_19 
ROOT
HETATM    1  N   UNL     1      41.761 -14.742  -0.779  1.00  0.00    -0.352 N 
HETATM    2  C   UNL     1      41.993 -14.785   0.577  1.00  0.00     0.272 C 
HETATM    3  O   UNL     1      42.104 -13.784   1.279  1.00  0.00    -0.266 OA
HETATM    4  H   UNL     1      41.806 -15.638  -1.259  1.00  0.00     0.162 HD
ENDROOT
BRANCH   2   5
HETATM    5  C   UNL     1      42.106 -16.151   1.110  1.00  0.00     0.146 A 
HETATM    6  N   UNL     1      41.157 -17.085   0.907  1.00  0.00    -0.169 NA
HETATM    7  N   UNL     1      41.626 -18.167   1.552  1.00  0.00    -0.277 N 
HETATM    8  H   UNL     1      41.051 -19.001   1.559  1.00  0.00     0.189 HD
HETATM    9  C   UNL     1      42.850 -17.993   2.148  1.00  0.00     0.063 A 
HETATM   10  C   UNL     1      43.176 -16.677   1.878  1.00  0.00     0.071 A 
BRANCH   9  11
HETATM   11  C   UNL     1      43.554 -19.030   2.905  1.00  0.00    -0.008 A 
HETATM   12  C   UNL     1      43.918 -18.838   4.248  1.00  0.00     0.017 A 
HETATM   13  C   UNL     1      44.591 -19.840   4.954  1.00  0.00     0.043 A 
HETATM   14  C   UNL     1      44.899 -21.038   4.323  1.00  0.00     0.116 A 
HETATM   15  F   UNL     1      45.543 -21.996   5.002  1.00  0.00    -0.206 F 
HETATM   16  C   UNL     1      44.545 -21.255   2.999  1.00  0.00     0.043 A 
HETATM   17  C   UNL     1      43.874 -20.253   2.292  1.00  0.00     0.017 A 
ENDBRANCH   9  11
ENDBRANCH   2   5
BRANCH   1  18
HETATM   18  C   UNL     1      41.716 -13.509  -1.540  1.00  0.00     0.165 C 
BRANCH  18  19
HETATM   19  C   UNL     1      41.470 -13.712  -3.067  1.00  0.00     0.099 C 
HETATM   20  C   UNL     1      41.843 -12.440  -3.851  1.00  0.00     0.053 C 
BRANCH  19  21
HETATM   21  C   UNL     1      40.011 -14.166  -3.280  1.00  0.00    -0.001 A 
HETATM   22  C   UNL     1      38.892 -13.337  -3.050  1.00  0.00     0.043 A 
HETATM   23 CL   UNL     1      39.027 -11.704  -2.484  1.00  0.00    -0.084 Cl
HETATM   24  C   UNL     1      37.586 -13.790  -3.287  1.00  0.00     0.024 A 
HETATM   25  C   UNL     1      37.359 -15.073  -3.772  1.00  0.00     0.002 A 
HETATM   26  C   UNL     1      38.439 -15.905  -4.027  1.00  0.00     0.001 A 
HETATM   27  C   UNL     1      39.743 -15.457  -3.790  1.00  0.00     0.012 A 
ENDBRANCH  19  21
BRANCH  19  28
HETATM   28  O   UNL     1      42.390 -14.698  -3.569  1.00  0.00    -0.384 OA
HETATM   29  H   UNL     1      41.879 -15.487  -3.820  1.00  0.00     0.211 HD
ENDBRANCH  19  28
ENDBRANCH  18  19
ENDBRANCH   1  18
TORSDOF 6
ENDMDL
MODEL 3
REMARK VINA RESULT:      -8.7      1.689      2.080
REMARK  6 active torsions:
REMARK  status: ('A' for Active; 'I' for Inactive)
REMARK    1  A    between atoms: C_2  and  C_4 
REMARK    2  A    between atoms: C_2  and  C_11 
REMARK    3  A    between atoms: C_2  and  O_3 
REMARK    4  A    between atoms: C_11  and  N_12 
REMARK       I    between atoms: N_12  and  C_13 
REMARK    5  A    between atoms: C_13  and  C_14 
REMARK    6  A    between atoms: C_18  and  C_19 
ROOT
HETATM    1  N   UNL     1      44.407 -13.470   7.887  1.00  0.00    -0.352 N 
HETATM    2  C   UNL     1      45.209 -12.647   8.643  1.00  0.00     0.272 C 
HETATM    3  O   UNL     1      46.321 -12.266   8.287  1.00  0.00    -0.266 OA
HETATM    4  H   UNL     1      43.564 -13.803   8.347  1.00  0.00     0.162 HD
ENDROOT
BRANCH   2   5
HETATM    5  C   UNL     1      44.612 -12.271   9.933  1.00  0.00     0.146 A 
HETATM    6  N   UNL     1      44.365 -13.171  10.904  1.00  0.00    -0.169 NA
HETATM    7  N   UNL     1      43.819 -12.441  11.892  1.00  0.00    -0.277 N 
HETATM    8  H   UNL     1      43.521 -12.925  12.730  1.00  0.00     0.189 HD
HETATM    9  C   UNL     1      43.719 -11.098  11.623  1.00  0.00     0.063 A 
HETATM   10  C   UNL     1      44.224 -10.969  10.342  1.00  0.00     0.071 A 
BRANCH   9  11
HETATM   11  C   UNL     1      43.158 -10.112  12.548  1.00  0.00    -0.008 A 
HETATM   12  C   UNL     1      42.969  -8.773  12.165  1.00  0.00     0.017 A 
HETATM   13  C   UNL     1      42.432  -7.845  13.063  1.00  0.00     0.043 A 
HETATM   14  C   UNL     1      42.080  -8.251  14.344  1.00  0.00     0.116 A 
HETATM   15  F   UNL     1      41.565  -7.360  15.201  1.00  0.00    -0.206 F 
HETATM   16  C   UNL     1      42.251  -9.569  14.744  1.00  0.00     0.043 A 
HETATM   17  C   UNL     1      42.789 -10.497  13.847  1.00  0.00     0.017 A 
ENDBRANCH   9  11
ENDBRANCH   2   5
BRANCH   1  18
HETATM   18  C   UNL     1      44.828 -14.052   6.626  1.00  0.00     0.165 C 
BRANCH  18  19
HETATM   19  C   UNL     1      43.686 -14.180   5.572  1.00  0.00     0.099 C 
HETATM   20  C   UNL     1      42.504 -13.263   5.938  1.00  0.00     0.053 C 
BRANCH  19  21
HETATM   21  C   UNL     1      43.298 -15.667   5.435  1.00  0.00    -0.001 A 
HETATM   22  C   UNL     1      42.340 -16.144   4.514  1.00  0.00     0.043 A 
HETATM   23 CL   UNL     1      41.473 -15.105   3.431  1.00  0.00    -0.084 Cl
HETATM   24  C   UNL     1      42.044 -17.511   4.410  1.00  0.00     0.024 A 
HETATM   25  C   UNL     1      42.702 -18.440   5.209  1.00  0.00     0.002 A 
HETATM   26  C   UNL     1      43.663 -18.005   6.109  1.00  0.00     0.001 A 
HETATM   27  C   UNL     1      43.959 -16.642   6.217  1.00  0.00     0.012 A 
ENDBRANCH  19  21
BRANCH  19  28
HETATM   28  O   UNL     1      44.142 -13.654   4.312  1.00  0.00    -0.384 OA
HETATM   29  H   UNL     1      43.520 -13.944   3.622  1.00  0.00     0.211 HD
ENDBRANCH  19  28
ENDBRANCH  18  19
ENDBRANCH   1  18
TORSDOF 6
ENDMDL
MODEL 4
REMARK VINA RESULT:      -8.4      8.263     10.836
REMARK  6 active torsions:
REMARK  status: ('A' for Active; 'I' for Inactive)
REMARK    1  A    between atoms: C_2  and  C_4 
REMARK    2  A    between atoms: C_2  and  C_11 
REMARK    3  A    between atoms: C_2  and  O_3 
REMARK    4  A    between atoms: C_11  and  N_12 
REMARK       I    between atoms: N_12  and  C_13 
REMARK    5  A    between atoms: C_13  and  C_14 
REMARK    6  A    between atoms: C_18  and  C_19 
ROOT
HETATM    1  N   UNL     1      41.171 -14.373   0.848  1.00  0.00    -0.352 N 
HETATM    2  C   UNL     1      42.185 -14.133   1.747  1.00  0.00     0.272 C 
HETATM    3  O   UNL     1      42.669 -13.021   1.945  1.00  0.00    -0.266 OA
HETATM    4  H   UNL     1      40.943 -15.353   0.697  1.00  0.00     0.162 HD
ENDROOT
BRANCH   2   5
HETATM    5  C   UNL     1      42.647 -15.340   2.447  1.00  0.00     0.146 A 
HETATM    6  N   UNL     1      42.905 -15.354   3.769  1.00  0.00    -0.169 NA
HETATM    7  N   UNL     1      43.304 -16.615   4.008  1.00  0.00    -0.277 N 
HETATM    8  H   UNL     1      43.584 -16.853   4.952  1.00  0.00     0.189 HD
HETATM    9  C   UNL     1      43.298 -17.436   2.908  1.00  0.00     0.063 A 
HETATM   10  C   UNL     1      42.880 -16.617   1.875  1.00  0.00     0.071 A 
BRANCH   9  11
HETATM   11  C   UNL     1      43.694 -18.845   2.928  1.00  0.00    -0.008 A 
HETATM   12  C   UNL     1      44.392 -19.396   4.016  1.00  0.00     0.017 A 
HETATM   13  C   UNL     1      44.761 -20.744   4.016  1.00  0.00     0.043 A 
HETATM   14  C   UNL     1      44.433 -21.547   2.932  1.00  0.00     0.116 A 
HETATM   15  F   UNL     1      44.789 -22.839   2.935  1.00  0.00    -0.206 F 
HETATM   16  C   UNL     1      43.740 -21.030   1.847  1.00  0.00     0.043 A 
HETATM   17  C   UNL     1      43.371 -19.681   1.846  1.00  0.00     0.017 A 
ENDBRANCH   9  11
ENDBRANCH   2   5
BRANCH   1  18
HETATM   18  C   UNL     1      40.628 -13.355  -0.030  1.00  0.00     0.165 C 
BRANCH  18  19
HETATM   19  C   UNL     1      41.095 -13.479  -1.513  1.00  0.00     0.099 C 
HETATM   20  C   UNL     1      41.432 -12.092  -2.094  1.00  0.00     0.053 C 
BRANCH  19  21
HETATM   21  C   UNL     1      40.020 -14.242  -2.313  1.00  0.00    -0.001 A 
HETATM   22  C   UNL     1      38.676 -13.821  -2.416  1.00  0.00     0.043 A 
HETATM   23 CL   UNL     1      38.072 -12.393  -1.641  1.00  0.00    -0.084 Cl
HETATM   24  C   UNL     1      37.743 -14.537  -3.181  1.00  0.00     0.024 A 
HETATM   25  C   UNL     1      38.124 -15.681  -3.872  1.00  0.00     0.002 A 
HETATM   26  C   UNL     1      39.442 -16.109  -3.806  1.00  0.00     0.001 A 
HETATM   27  C   UNL     1      40.374 -15.399  -3.043  1.00  0.00     0.012 A 
ENDBRANCH  19  21
BRANCH  19  28
HETATM   28  O   UNL     1      42.354 -14.176  -1.557  1.00  0.00    -0.384 OA
HETATM   29  H   UNL     1      42.807 -14.033  -0.708  1.00  0.00     0.211 HD
ENDBRANCH  19  28
ENDBRANCH  18  19
ENDBRANCH   1  18
TORSDOF 6
ENDMDL
MODEL 5
REMARK VINA RESULT:      -8.3      7.955     10.584
REMARK  6 active torsions:
REMARK  status: ('A' for Active; 'I' for Inactive)
REMARK    1  A    between atoms: C_2  and  C_4 
REMARK    2  A    between atoms: C_2  and  C_11 
REMARK    3  A    between atoms: C_2  and  O_3 
REMARK    4  A    between atoms: C_11  and  N_12 
REMARK       I    between atoms: N_12  and  C_13 
REMARK    5  A    between atoms: C_13  and  C_14 
REMARK    6  A    between atoms: C_18  and  C_19 
ROOT
HETATM    1  N   UNL     1      41.577 -14.795   1.694  1.00  0.00    -0.352 N 
HETATM    2  C   UNL     1      42.657 -14.628   2.530  1.00  0.00     0.272 C 
HETATM    3  O   UNL     1      43.229 -13.554   2.696  1.00  0.00    -0.266 OA
HETATM    4  H   UNL     1      41.272 -15.756   1.558  1.00  0.00     0.162 HD
ENDROOT
BRANCH   2   5
HETATM    5  C   UNL     1      43.075 -15.867   3.203  1.00  0.00     0.146 A 
HETATM    6  N   UNL     1      43.303 -15.925   4.530  1.00  0.00    -0.169 NA
HETATM    7  N   UNL     1      43.667 -17.202   4.739  1.00  0.00    -0.277 N 
HETATM    8  H   UNL     1      43.919 -17.475   5.681  1.00  0.00     0.189 HD
HETATM    9  C   UNL     1      43.666 -17.990   3.615  1.00  0.00     0.063 A 
HETATM   10  C   UNL     1      43.290 -17.131   2.598  1.00  0.00     0.071 A 
BRANCH   9  11
HETATM   11  C   UNL     1      44.028 -19.408   3.601  1.00  0.00    -0.008 A 
HETATM   12  C   UNL     1      44.547 -20.044   4.741  1.00  0.00     0.017 A 
HETATM   13  C   UNL     1      44.887 -21.400   4.708  1.00  0.00     0.043 A 
HETATM   14  C   UNL     1      44.708 -22.126   3.538  1.00  0.00     0.116 A 
HETATM   15  F   UNL     1      45.034 -23.425   3.510  1.00  0.00    -0.206 F 
HETATM   16  C   UNL     1      44.191 -21.524   2.400  1.00  0.00     0.043 A 
HETATM   17  C   UNL     1      43.852 -20.167   2.432  1.00  0.00     0.017 A 
ENDBRANCH   9  11
ENDBRANCH   2   5
BRANCH   1  18
HETATM   18  C   UNL     1      41.054 -13.739   0.848  1.00  0.00     0.165 C 
BRANCH  18  19
HETATM   19  C   UNL     1      40.758 -14.186  -0.617  1.00  0.00     0.099 C 
HETATM   20  C   UNL     1      41.217 -15.639  -0.845  1.00  0.00     0.053 C 
BRANCH  19  21
HETATM   21  C   UNL     1      41.402 -13.173  -1.586  1.00  0.00    -0.001 A 
HETATM   22  C   UNL     1      41.147 -13.149  -2.975  1.00  0.00     0.043 A 
HETATM   23 CL   UNL     1      40.084 -14.271  -3.759  1.00  0.00    -0.084 Cl
HETATM   24  C   UNL     1      41.737 -12.188  -3.809  1.00  0.00     0.024 A 
HETATM   25  C   UNL     1      42.583 -11.218  -3.284  1.00  0.00     0.002 A 
HETATM   26  C   UNL     1      42.838 -11.204  -1.920  1.00  0.00     0.001 A 
HETATM   27  C   UNL     1      42.253 -12.161  -1.086  1.00  0.00     0.012 A 
ENDBRANCH  19  21
BRANCH  19  28
HETATM   28  O   UNL     1      39.334 -14.248  -0.816  1.00  0.00    -0.384 OA
HETATM   29  H   UNL     1      38.917 -13.614  -0.207  1.00  0.00     0.211 HD
ENDBRANCH  19  28
ENDBRANCH  18  19
ENDBRANCH   1  18
TORSDOF 6
ENDMDL
MODEL 6
REMARK VINA RESULT:      -8.3      9.259     11.795
REMARK  6 active torsions:
REMARK  status: ('A' for Active; 'I' for Inactive)
REMARK    1  A    between atoms: C_2  and  C_4 
REMARK    2  A    between atoms: C_2  and  C_11 
REMARK    3  A    between atoms: C_2  and  O_3 
REMARK    4  A    between atoms: C_11  and  N_12 
REMARK       I    between atoms: N_12  and  C_13 
REMARK    5  A    between atoms: C_13  and  C_14 
REMARK    6  A    between atoms: C_18  and  C_19 
ROOT
HETATM    1  N   UNL     1      41.461 -15.798  -0.893  1.00  0.00    -0.352 N 
HETATM    2  C   UNL     1      41.296 -16.021   0.455  1.00  0.00     0.272 C 
HETATM    3  O   UNL     1      40.366 -15.562   1.112  1.00  0.00    -0.266 OA
HETATM    4  H   UNL     1      42.333 -16.137  -1.290  1.00  0.00     0.162 HD
ENDROOT
BRANCH   2   5
HETATM    5  C   UNL     1      42.352 -16.858   1.044  1.00  0.00     0.146 A 
HETATM    6  N   UNL     1      43.650 -16.496   1.031  1.00  0.00    -0.169 NA
HETATM    7  N   UNL     1      44.276 -17.516   1.644  1.00  0.00    -0.277 N 
HETATM    8  H   UNL     1      45.285 -17.474   1.724  1.00  0.00     0.189 HD
HETATM    9  C   UNL     1      43.446 -18.519   2.080  1.00  0.00     0.063 A 
HETATM   10  C   UNL     1      42.184 -18.110   1.687  1.00  0.00     0.071 A 
BRANCH   9  11
HETATM   11  C   UNL     1      43.902 -19.726   2.771  1.00  0.00    -0.008 A 
HETATM   12  C   UNL     1      43.968 -20.966   2.115  1.00  0.00     0.017 A 
HETATM   13  C   UNL     1      44.406 -22.108   2.793  1.00  0.00     0.043 A 
HETATM   14  C   UNL     1      44.782 -22.014   4.126  1.00  0.00     0.116 A 
HETATM   15  F   UNL     1      45.202 -23.110   4.772  1.00  0.00    -0.206 F 
HETATM   16  C   UNL     1      44.732 -20.800   4.796  1.00  0.00     0.043 A 
HETATM   17  C   UNL     1      44.293 -19.658   4.119  1.00  0.00     0.017 A 
ENDBRANCH   9  11
ENDBRANCH   2   5
BRANCH   1  18
HETATM   18  C   UNL     1      40.603 -14.919  -1.665  1.00  0.00     0.165 C 
BRANCH  18  19
HETATM   19  C   UNL     1      41.374 -13.884  -2.539  1.00  0.00     0.099 C 
HETATM   20  C   UNL     1      42.484 -13.200  -1.719  1.00  0.00     0.053 C 
BRANCH  19  21
HETATM   21  C   UNL     1      40.360 -12.897  -3.154  1.00  0.00    -0.001 A 
HETATM   22  C   UNL     1      40.727 -11.817  -3.986  1.00  0.00     0.043 A 
HETATM   23 CL   UNL     1      42.371 -11.463  -4.406  1.00  0.00    -0.084 Cl
HETATM   24  C   UNL     1      39.762 -10.965  -4.544  1.00  0.00     0.024 A 
HETATM   25  C   UNL     1      38.409 -11.172  -4.301  1.00  0.00     0.002 A 
HETATM   26  C   UNL     1      38.016 -12.237  -3.503  1.00  0.00     0.001 A 
HETATM   27  C   UNL     1      38.975 -13.087  -2.944  1.00  0.00     0.012 A 
ENDBRANCH  19  21
BRANCH  19  28
HETATM   28  O   UNL     1      42.099 -14.579  -3.570  1.00  0.00    -0.384 OA
HETATM   29  H   UNL     1      41.586 -14.515  -4.394  1.00  0.00     0.211 HD
ENDBRANCH  19  28
ENDBRANCH  18  19
ENDBRANCH   1  18
TORSDOF 6
ENDMDL
MODEL 7
REMARK VINA RESULT:      -8.2      6.133      9.830
REMARK  6 active torsions:
REMARK  status: ('A' for Active; 'I' for Inactive)
REMARK    1  A    between atoms: C_2  and  C_4 
REMARK    2  A    between atoms: C_2  and  C_11 
REMARK    3  A    between atoms: C_2  and  O_3 
REMARK    4  A    between atoms: C_11  and  N_12 
REMARK       I    between atoms: N_12  and  C_13 
REMARK    5  A    between atoms: C_13  and  C_14 
REMARK    6  A    between atoms: C_18  and  C_19 
ROOT
HETATM    1  N   UNL     1      42.417 -14.206   3.241  1.00  0.00    -0.352 N 
HETATM    2  C   UNL     1      41.702 -14.987   2.362  1.00  0.00     0.272 C 
HETATM    3  O   UNL     1      40.616 -14.661   1.892  1.00  0.00    -0.266 OA
HETATM    4  H   UNL     1      43.243 -14.643   3.644  1.00  0.00     0.162 HD
ENDROOT
BRANCH   2   5
HETATM    5  C   UNL     1      42.360 -16.263   2.044  1.00  0.00     0.146 A 
HETATM    6  N   UNL     1      42.835 -16.542   0.814  1.00  0.00    -0.169 NA
HETATM    7  N   UNL     1      43.338 -17.783   0.937  1.00  0.00    -0.277 N 
HETATM    8  H   UNL     1      43.732 -18.218   0.111  1.00  0.00     0.189 HD
HETATM    9  C   UNL     1      43.236 -18.321   2.195  1.00  0.00     0.063 A 
HETATM   10  C   UNL     1      42.590 -17.345   2.931  1.00  0.00     0.071 A 
BRANCH   9  11
HETATM   11  C   UNL     1      43.712 -19.656   2.563  1.00  0.00    -0.008 A 
HETATM   12  C   UNL     1      43.562 -20.752   1.698  1.00  0.00     0.017 A 
HETATM   13  C   UNL     1      44.023 -22.019   2.067  1.00  0.00     0.043 A 
HETATM   14  C   UNL     1      44.638 -22.195   3.299  1.00  0.00     0.116 A 
HETATM   15  F   UNL     1      45.079 -23.411   3.650  1.00  0.00    -0.206 F 
HETATM   16  C   UNL     1      44.805 -21.128   4.170  1.00  0.00     0.043 A 
HETATM   17  C   UNL     1      44.342 -19.860   3.802  1.00  0.00     0.017 A 
ENDBRANCH   9  11
ENDBRANCH   2   5
BRANCH   1  18
HETATM   18  C   UNL     1      41.920 -12.954   3.780  1.00  0.00     0.165 C 
BRANCH  18  19
HETATM   19  C   UNL     1      41.257 -13.085   5.185  1.00  0.00     0.099 C 
HETATM   20  C   UNL     1      41.721 -11.946   6.113  1.00  0.00     0.053 C 
BRANCH  19  21
HETATM   21  C   UNL     1      41.542 -14.495   5.742  1.00  0.00    -0.001 A 
HETATM   22  C   UNL     1      42.803 -14.904   6.226  1.00  0.00     0.043 A 
HETATM   23 CL   UNL     1      44.191 -13.866   6.241  1.00  0.00    -0.084 Cl
HETATM   24  C   UNL     1      43.003 -16.190   6.749  1.00  0.00     0.024 A 
HETATM   25  C   UNL     1      41.952 -17.098   6.816  1.00  0.00     0.002 A 
HETATM   26  C   UNL     1      40.695 -16.719   6.366  1.00  0.00     0.001 A 
HETATM   27  C   UNL     1      40.493 -15.438   5.842  1.00  0.00     0.012 A 
ENDBRANCH  19  21
BRANCH  19  28
HETATM   28  O   UNL     1      39.839 -12.861   5.063  1.00  0.00    -0.384 OA
HETATM   29  H   UNL     1      39.463 -12.820   5.960  1.00  0.00     0.211 HD
ENDBRANCH  19  28
ENDBRANCH  18  19
ENDBRANCH   1  18
TORSDOF 6
ENDMDL
MODEL 8
REMARK VINA RESULT:      -8.1      7.977     10.715
REMARK  6 active torsions:
REMARK  status: ('A' for Active; 'I' for Inactive)
REMARK    1  A    between atoms: C_2  and  C_4 
REMARK    2  A    between atoms: C_2  and  C_11 
REMARK    3  A    between atoms: C_2  and  O_3 
REMARK    4  A    between atoms: C_11  and  N_12 
REMARK       I    between atoms: N_12  and  C_13 
REMARK    5  A    between atoms: C_13  and  C_14 
REMARK    6  A    between atoms: C_18  and  C_19 
ROOT
HETATM    1  N   UNL     1      41.979 -14.701   1.127  1.00  0.00    -0.352 N 
HETATM    2  C   UNL     1      42.744 -14.514   2.255  1.00  0.00     0.272 C 
HETATM    3  O   UNL     1      43.100 -13.411   2.661  1.00  0.00    -0.266 OA
HETATM    4  H   UNL     1      41.853 -15.668   0.837  1.00  0.00     0.162 HD
ENDROOT
BRANCH   2   5
HETATM    5  C   UNL     1      43.109 -15.769   2.930  1.00  0.00     0.146 A 
HETATM    6  N   UNL     1      43.288 -15.846   4.263  1.00  0.00    -0.169 NA
HETATM    7  N   UNL     1      43.615 -17.132   4.472  1.00  0.00    -0.277 N 
HETATM    8  H   UNL     1      43.827 -17.420   5.420  1.00  0.00     0.189 HD
HETATM    9  C   UNL     1      43.636 -17.909   3.340  1.00  0.00     0.063 A 
HETATM   10  C   UNL     1      43.317 -17.032   2.320  1.00  0.00     0.071 A 
BRANCH   9  11
HETATM   11  C   UNL     1      43.966 -19.335   3.325  1.00  0.00    -0.008 A 
HETATM   12  C   UNL     1      43.720 -20.133   2.195  1.00  0.00     0.017 A 
HETATM   13  C   UNL     1      44.041 -21.493   2.199  1.00  0.00     0.043 A 
HETATM   14  C   UNL     1      44.612 -22.061   3.331  1.00  0.00     0.116 A 
HETATM   15  F   UNL     1      44.920 -23.366   3.332  1.00  0.00    -0.206 F 
HETATM   16  C   UNL     1      44.871 -21.295   4.458  1.00  0.00     0.043 A 
HETATM   17  C   UNL     1      44.549 -19.935   4.454  1.00  0.00     0.017 A 
ENDBRANCH   9  11
ENDBRANCH   2   5
BRANCH   1  18
HETATM   18  C   UNL     1      41.588 -13.620   0.242  1.00  0.00     0.165 C 
BRANCH  18  19
HETATM   19  C   UNL     1      40.565 -14.036  -0.858  1.00  0.00     0.099 C 
HETATM   20  C   UNL     1      41.142 -13.776  -2.263  1.00  0.00     0.053 C 
BRANCH  19  21
HETATM   21  C   UNL     1      39.227 -13.315  -0.594  1.00  0.00    -0.001 A 
HETATM   22  C   UNL     1      38.369 -13.628   0.483  1.00  0.00     0.043 A 
HETATM   23 CL   UNL     1      38.717 -14.875   1.635  1.00  0.00    -0.084 Cl
HETATM   24  C   UNL     1      37.176 -12.922   0.695  1.00  0.00     0.024 A 
HETATM   25  C   UNL     1      36.811 -11.879  -0.149  1.00  0.00     0.002 A 
HETATM   26  C   UNL     1      37.643 -11.535  -1.204  1.00  0.00     0.001 A 
HETATM   27  C   UNL     1      38.832 -12.238  -1.420  1.00  0.00     0.012 A 
ENDBRANCH  19  21
BRANCH  19  28
HETATM   28  O   UNL     1      40.389 -15.465  -0.827  1.00  0.00    -0.384 OA
HETATM   29  H   UNL     1      39.884 -15.689  -0.027  1.00  0.00     0.211 HD
ENDBRANCH  19  28
ENDBRANCH  18  19
ENDBRANCH   1  18
TORSDOF 6
ENDMDL
MODEL 9
REMARK VINA RESULT:      -8.1      7.320     10.214
REMARK  6 active torsions:
REMARK  status: ('A' for Active; 'I' for Inactive)
REMARK    1  A    between atoms: C_2  and  C_4 
REMARK    2  A    between atoms: C_2  and  C_11 
REMARK    3  A    between atoms: C_2  and  O_3 
REMARK    4  A    between atoms: C_11  and  N_12 
REMARK       I    between atoms: N_12  and  C_13 
REMARK    5  A    between atoms: C_13  and  C_14 
REMARK    6  A    between atoms: C_18  and  C_19 
ROOT
HETATM    1  N   UNL     1      42.767 -15.502   3.277  1.00  0.00    -0.352 N 
HETATM    2  C   UNL     1      43.017 -14.220   2.845  1.00  0.00     0.272 C 
HETATM    3  O   UNL     1      43.765 -13.440   3.427  1.00  0.00    -0.266 OA
HETATM    4  H   UNL     1      42.041 -16.002   2.770  1.00  0.00     0.162 HD
ENDROOT
BRANCH   2   5
HETATM    5  C   UNL     1      42.292 -13.864   1.617  1.00  0.00     0.146 A 
HETATM    6  N   UNL     1      42.270 -12.607   1.130  1.00  0.00    -0.169 NA
HETATM    7  N   UNL     1      41.507 -12.701   0.028  1.00  0.00    -0.277 N 
HETATM    8  H   UNL     1      41.324 -11.853  -0.496  1.00  0.00     0.189 HD
HETATM    9  C   UNL     1      41.046 -13.965  -0.245  1.00  0.00     0.063 A 
HETATM   10  C   UNL     1      41.541 -14.738   0.789  1.00  0.00     0.071 A 
BRANCH   9  11
HETATM   11  C   UNL     1      40.198 -14.305  -1.389  1.00  0.00    -0.008 A 
HETATM   12  C   UNL     1      40.679 -15.090  -2.450  1.00  0.00     0.017 A 
HETATM   13  C   UNL     1      39.854 -15.404  -3.534  1.00  0.00     0.043 A 
HETATM   14  C   UNL     1      38.546 -14.939  -3.561  1.00  0.00     0.116 A 
HETATM   15  F   UNL     1      37.758 -15.242  -4.601  1.00  0.00    -0.206 F 
HETATM   16  C   UNL     1      38.045 -14.166  -2.523  1.00  0.00     0.043 A 
HETATM   17  C   UNL     1      38.869 -13.851  -1.439  1.00  0.00     0.017 A 
ENDBRANCH   9  11
ENDBRANCH   2   5
BRANCH   1  18
HETATM   18  C   UNL     1      43.289 -16.039   4.520  1.00  0.00     0.165 C 
BRANCH  18  19
HETATM   19  C   UNL     1      42.615 -17.372   4.969  1.00  0.00     0.099 C 
HETATM   20  C   UNL     1      42.568 -17.465   6.506  1.00  0.00     0.053 C 
BRANCH  19  21
HETATM   21  C   UNL     1      43.348 -18.552   4.298  1.00  0.00    -0.001 A 
HETATM   22  C   UNL     1      43.128 -18.951   2.962  1.00  0.00     0.043 A 
HETATM   23 CL   UNL     1      41.990 -18.165   1.917  1.00  0.00    -0.084 Cl
HETATM   24  C   UNL     1      43.842 -20.014   2.390  1.00  0.00     0.024 A 
HETATM   25  C   UNL     1      44.803 -20.699   3.126  1.00  0.00     0.002 A 
HETATM   26  C   UNL     1      45.056 -20.317   4.435  1.00  0.00     0.001 A 
HETATM   27  C   UNL     1      44.345 -19.259   5.010  1.00  0.00     0.012 A 
ENDBRANCH  19  21
BRANCH  19  28
HETATM   28  O   UNL     1      41.226 -17.353   4.592  1.00  0.00    -0.384 OA
HETATM   29  H   UNL     1      40.994 -18.236   4.256  1.00  0.00     0.211 HD
ENDBRANCH  19  28
ENDBRANCH  18  19
ENDBRANCH   1  18
TORSDOF 6
ENDMDL
MODEL 10
REMARK VINA RESULT:      -8.0      4.951      9.749
REMARK  6 active torsions:
REMARK  status: ('A' for Active; 'I' for Inactive)
REMARK    1  A    between atoms: C_2  and  C_4 
REMARK    2  A    between atoms: C_2  and  C_11 
REMARK    3  A    between atoms: C_2  and  O_3 
REMARK    4  A    between atoms: C_11  and  N_12 
REMARK       I    between atoms: N_12  and  C_13 
REMARK    5  A    between atoms: C_13  and  C_14 
REMARK    6  A    between atoms: C_18  and  C_19 
ROOT
HETATM    1  N   UNL     1      40.628 -11.944   7.292  1.00  0.00    -0.352 N 
HETATM    2  C   UNL     1      41.042 -12.057   5.985  1.00  0.00     0.272 C 
HETATM    3  O   UNL     1      41.475 -11.116   5.325  1.00  0.00    -0.266 OA
HETATM    4  H   UNL     1      40.183 -12.770   7.684  1.00  0.00     0.162 HD
ENDROOT
BRANCH   2   5
HETATM    5  C   UNL     1      40.908 -13.417   5.443  1.00  0.00     0.146 A 
HETATM    6  N   UNL     1      39.742 -14.093   5.471  1.00  0.00    -0.169 NA
HETATM    7  N   UNL     1      40.039 -15.273   4.901  1.00  0.00    -0.277 N 
HETATM    8  H   UNL     1      39.305 -15.968   4.840  1.00  0.00     0.189 HD
HETATM    9  C   UNL     1      41.340 -15.394   4.479  1.00  0.00     0.063 A 
HETATM   10  C   UNL     1      41.926 -14.193   4.833  1.00  0.00     0.071 A 
BRANCH   9  11
HETATM   11  C   UNL     1      41.890 -16.587   3.833  1.00  0.00    -0.008 A 
HETATM   12  C   UNL     1      42.782 -17.439   4.504  1.00  0.00     0.017 A 
HETATM   13  C   UNL     1      43.297 -18.574   3.870  1.00  0.00     0.043 A 
HETATM   14  C   UNL     1      42.920 -18.864   2.565  1.00  0.00     0.116 A 
HETATM   15  F   UNL     1      43.415 -19.952   1.960  1.00  0.00    -0.206 F 
HETATM   16  C   UNL     1      42.036 -18.042   1.882  1.00  0.00     0.043 A 
HETATM   17  C   UNL     1      41.521 -16.906   2.515  1.00  0.00     0.017 A 
ENDBRANCH   9  11
ENDBRANCH   2   5
BRANCH   1  18
HETATM   18  C   UNL     1      40.571 -10.681   8.003  1.00  0.00     0.165 C 
BRANCH  18  19
HETATM   19  C   UNL     1      40.172 -10.813   9.505  1.00  0.00     0.099 C 
HETATM   20  C   UNL     1      39.120  -9.752   9.882  1.00  0.00     0.053 C 
BRANCH  19  21
HETATM   21  C   UNL     1      41.449 -10.755  10.367  1.00  0.00    -0.001 A 
HETATM   22  C   UNL     1      41.490 -11.126  11.729  1.00  0.00     0.043 A 
HETATM   23 CL   UNL     1      40.098 -11.680  12.600  1.00  0.00    -0.084 Cl
HETATM   24  C   UNL     1      42.686 -11.082  12.462  1.00  0.00     0.024 A 
HETATM   25  C   UNL     1      43.872 -10.682  11.858  1.00  0.00     0.002 A 
HETATM   26  C   UNL     1      43.868 -10.331  10.516  1.00  0.00     0.001 A 
HETATM   27  C   UNL     1      42.677 -10.371   9.782  1.00  0.00     0.012 A 
ENDBRANCH  19  21
BRANCH  19  28
HETATM   28  O   UNL     1      39.478 -12.058   9.704  1.00  0.00    -0.384 OA
HETATM   29  H   UNL     1      40.129 -12.778   9.644  1.00  0.00     0.211 HD
ENDBRANCH  19  28
ENDBRANCH  18  19
ENDBRANCH   1  18
TORSDOF 6
ENDMDL
