MODEL 1
REMARK VINA RESULT:      -7.7      0.000      0.000
REMARK  5 active torsions:
REMARK  status: ('A' for Active; 'I' for Inactive)
REMARK    1  A    between atoms: C_5  and  C_6 
REMARK    2  A    between atoms: N_9  and  C_11 
REMARK    3  A    between atoms: C_11  and  C_12 
REMARK    4  A    between atoms: C_13  and  N_14 
REMARK    5  A    between atoms: N_14  and  C_15 
ROOT
HETATM    1  C   UNL     1      40.217 -13.979   5.173  1.00  0.00    -0.006 A 
HETATM    2  C   UNL     1      40.430 -13.406   3.897  1.00  0.00     0.038 A 
HETATM    3  C   UNL     1      40.167 -12.032   3.734  1.00  0.00     0.030 A 
HETATM    4  C   UNL     1      39.705 -11.242   4.787  1.00  0.00     0.002 A 
HETATM    5  C   UNL     1      39.521 -11.801   6.041  1.00  0.00     0.001 A 
HETATM    6  C   UNL     1      39.785 -13.153   6.236  1.00  0.00     0.011 A 
ENDROOT
BRANCH   1   7
HETATM    7  C   UNL     1      40.495 -15.430   5.469  1.00  0.00     0.275 C 
BRANCH   7   8
HETATM    8  N   UNL     1      41.763 -15.678   6.291  1.00  0.00    -0.067 N 
HETATM    9  C   UNL     1      41.677 -17.022   6.974  1.00  0.00     0.236 C 
HETATM   10  C   UNL     1      42.915 -17.259   7.828  1.00  0.00     0.037 C 
HETATM   11  C   UNL     1      44.202 -17.206   6.989  1.00  0.00     0.025 C 
HETATM   12  C   UNL     1      44.263 -15.827   6.320  1.00  0.00     0.037 C 
HETATM   13  C   UNL     1      43.029 -15.521   5.478  1.00  0.00     0.236 C 
HETATM   14  H   UNL     1      41.775 -14.945   7.008  1.00  0.00     0.280 HD
BRANCH  11  15
HETATM   15  C   UNL     1      44.301 -18.358   6.026  1.00  0.00    -0.018 A 
HETATM   16  C   UNL     1      44.346 -19.740   6.348  1.00  0.00     0.147 A 
HETATM   17  N   UNL     1      44.352 -20.519   5.270  1.00  0.00    -0.185 NA
HETATM   18  N   UNL     1      44.439 -19.659   4.245  1.00  0.00    -0.285 N 
HETATM   19  C   UNL     1      44.522 -20.163   2.894  1.00  0.00     0.179 C 
HETATM   20  C   UNL     1      44.404 -18.351   4.646  1.00  0.00     0.120 A 
ENDBRANCH  11  15
ENDBRANCH   7   8
ENDBRANCH   1   7
BRANCH   2  21
HETATM   21  N   UNL     1      41.000 -14.166   2.847  1.00  0.00    -0.380 N 
HETATM   22  C   UNL     1      42.134 -13.466   2.227  1.00  0.00     0.150 C 
BRANCH  21  23
HETATM   23  C   UNL     1      40.059 -14.963   2.020  1.00  0.00     0.087 C 
HETATM   24  C   UNL     1      40.705 -16.262   1.509  1.00  0.00     0.053 C 
HETATM   25  C   UNL     1      41.360 -16.161   0.137  1.00  0.00     0.236 C 
HETATM   26  N   UNL     1      40.409 -15.538  -0.843  1.00  0.00    -0.075 N 
HETATM   27  H   UNL     1      39.559 -16.119  -0.894  1.00  0.00     0.279 HD
HETATM   28  C   UNL     1      40.969 -15.548  -2.248  1.00  0.00     0.269 C 
HETATM   29  C   UNL     1      40.012 -14.148  -0.422  1.00  0.00     0.236 C 
HETATM   30  C   UNL     1      39.307 -14.205   0.922  1.00  0.00     0.053 C 
ENDBRANCH  21  23
ENDBRANCH   2  21
TORSDOF 5
ENDMDL
MODEL 2
REMARK VINA RESULT:      -7.7      2.304      7.696
REMARK  5 active torsions:
REMARK  status: ('A' for Active; 'I' for Inactive)
REMARK    1  A    between atoms: C_5  and  C_6 
REMARK    2  A    between atoms: N_9  and  C_11 
REMARK    3  A    between atoms: C_11  and  C_12 
REMARK    4  A    between atoms: C_13  and  N_14 
REMARK    5  A    between atoms: N_14  and  C_15 
ROOT
HETATM    1  C   UNL     1      41.737 -17.394   2.486  1.00  0.00    -0.006 A 
HETATM    2  C   UNL     1      42.739 -16.832   3.311  1.00  0.00     0.038 A 
HETATM    3  C   UNL     1      43.915 -17.578   3.529  1.00  0.00     0.030 A 
HETATM    4  C   UNL     1      44.102 -18.838   2.959  1.00  0.00     0.002 A 
HETATM    5  C   UNL     1      43.128 -19.374   2.132  1.00  0.00     0.001 A 
HETATM    6  C   UNL     1      41.962 -18.654   1.888  1.00  0.00     0.011 A 
ENDROOT
BRANCH   1   7
HETATM    7  C   UNL     1      40.454 -16.672   2.159  1.00  0.00     0.275 C 
BRANCH   7   8
HETATM    8  N   UNL     1      40.646 -15.309   1.491  1.00  0.00    -0.067 N 
HETATM    9  C   UNL     1      41.409 -15.473   0.198  1.00  0.00     0.236 C 
HETATM   10  C   UNL     1      41.642 -14.117  -0.453  1.00  0.00     0.037 C 
HETATM   11  C   UNL     1      40.317 -13.392  -0.742  1.00  0.00     0.025 C 
HETATM   12  C   UNL     1      39.576 -13.231   0.590  1.00  0.00     0.037 C 
HETATM   13  C   UNL     1      39.346 -14.558   1.305  1.00  0.00     0.236 C 
HETATM   14  H   UNL     1      41.217 -14.760   2.142  1.00  0.00     0.280 HD
BRANCH  11  15
HETATM   15  C   UNL     1      39.513 -14.081  -1.811  1.00  0.00    -0.018 A 
HETATM   16  C   UNL     1      38.117 -13.960  -2.041  1.00  0.00     0.147 A 
HETATM   17  N   UNL     1      37.713 -14.634  -3.115  1.00  0.00    -0.185 NA
HETATM   18  N   UNL     1      38.808 -15.295  -3.517  1.00  0.00    -0.285 N 
HETATM   19  C   UNL     1      38.729 -16.186  -4.651  1.00  0.00     0.179 C 
HETATM   20  C   UNL     1      39.915 -14.991  -2.772  1.00  0.00     0.120 A 
ENDBRANCH  11  15
ENDBRANCH   7   8
ENDBRANCH   1   7
BRANCH   2  21
HETATM   21  N   UNL     1      42.614 -15.513   3.809  1.00  0.00    -0.380 N 
HETATM   22  C   UNL     1      43.544 -14.591   3.139  1.00  0.00     0.150 C 
BRANCH  21  23
HETATM   23  C   UNL     1      42.327 -15.376   5.258  1.00  0.00     0.087 C 
HETATM   24  C   UNL     1      40.852 -15.667   5.581  1.00  0.00     0.053 C 
HETATM   25  C   UNL     1      39.940 -14.447   5.588  1.00  0.00     0.236 C 
HETATM   26  N   UNL     1      40.537 -13.362   6.438  1.00  0.00    -0.075 N 
HETATM   27  H   UNL     1      40.660 -13.723   7.395  1.00  0.00     0.279 HD
HETATM   28  C   UNL     1      39.596 -12.187   6.585  1.00  0.00     0.269 C 
HETATM   29  C   UNL     1      41.880 -12.927   5.916  1.00  0.00     0.236 C 
HETATM   30  C   UNL     1      42.841 -14.103   5.938  1.00  0.00     0.053 C 
ENDBRANCH  21  23
ENDBRANCH   2  21
TORSDOF 5
ENDMDL
MODEL 3
REMARK VINA RESULT:      -7.7      2.067      7.277
REMARK  5 active torsions:
REMARK  status: ('A' for Active; 'I' for Inactive)
REMARK    1  A    between atoms: C_5  and  C_6 
REMARK    2  A    between atoms: N_9  and  C_11 
REMARK    3  A    between atoms: C_11  and  C_12 
REMARK    4  A    between atoms: C_13  and  N_14 
REMARK    5  A    between atoms: N_14  and  C_15 
ROOT
HETATM    1  C   UNL     1      41.880 -14.922   3.715  1.00  0.00    -0.006 A 
HETATM    2  C   UNL     1      42.624 -15.895   4.421  1.00  0.00     0.038 A 
HETATM    3  C   UNL     1      43.258 -15.507   5.619  1.00  0.00     0.030 A 
HETATM    4  C   UNL     1      43.168 -14.203   6.108  1.00  0.00     0.002 A 
HETATM    5  C   UNL     1      42.418 -13.259   5.426  1.00  0.00     0.001 A 
HETATM    6  C   UNL     1      41.770 -13.617   4.248  1.00  0.00     0.011 A 
ENDROOT
BRANCH   1   7
HETATM    7  C   UNL     1      41.135 -15.233   2.442  1.00  0.00     0.275 C 
BRANCH   7   8
HETATM    8  N   UNL     1      40.803 -14.009   1.586  1.00  0.00    -0.067 N 
HETATM    9  C   UNL     1      41.875 -13.806   0.541  1.00  0.00     0.236 C 
HETATM   10  C   UNL     1      41.575 -12.566  -0.288  1.00  0.00     0.037 C 
HETATM   11  C   UNL     1      40.209 -12.667  -0.986  1.00  0.00     0.025 C 
HETATM   12  C   UNL     1      39.145 -12.860   0.100  1.00  0.00     0.037 C 
HETATM   13  C   UNL     1      39.415 -14.071   0.986  1.00  0.00     0.236 C 
HETATM   14  H   UNL     1      40.815 -13.211   2.229  1.00  0.00     0.280 HD
BRANCH  11  15
HETATM   15  C   UNL     1      40.193 -13.728  -2.054  1.00  0.00    -0.018 A 
HETATM   16  C   UNL     1      41.305 -14.220  -2.786  1.00  0.00     0.147 A 
HETATM   17  N   UNL     1      40.981 -15.217  -3.605  1.00  0.00    -0.185 NA
HETATM   18  N   UNL     1      39.646 -15.298  -3.509  1.00  0.00    -0.285 N 
HETATM   19  C   UNL     1      38.928 -16.257  -4.315  1.00  0.00     0.179 C 
HETATM   20  C   UNL     1      39.127 -14.431  -2.586  1.00  0.00     0.120 A 
ENDBRANCH  11  15
ENDBRANCH   7   8
ENDBRANCH   1   7
BRANCH   2  21
HETATM   21  N   UNL     1      42.637 -17.246   3.998  1.00  0.00    -0.380 N 
HETATM   22  C   UNL     1      41.753 -18.081   4.826  1.00  0.00     0.150 C 
BRANCH  21  23
HETATM   23  C   UNL     1      43.935 -17.774   3.508  1.00  0.00     0.087 C 
HETATM   24  C   UNL     1      43.835 -18.284   2.060  1.00  0.00     0.053 C 
HETATM   25  C   UNL     1      43.516 -19.767   1.918  1.00  0.00     0.236 C 
HETATM   26  N   UNL     1      44.443 -20.578   2.777  1.00  0.00    -0.075 N 
HETATM   27  H   UNL     1      45.412 -20.391   2.485  1.00  0.00     0.279 HD
HETATM   28  C   UNL     1      44.251 -22.062   2.558  1.00  0.00     0.269 C 
HETATM   29  C   UNL     1      44.306 -20.217   4.232  1.00  0.00     0.236 C 
HETATM   30  C   UNL     1      44.665 -18.755   4.431  1.00  0.00     0.053 C 
ENDBRANCH  21  23
ENDBRANCH   2  21
TORSDOF 5
ENDMDL
MODEL 4
REMARK VINA RESULT:      -7.6      2.504      7.707
REMARK  5 active torsions:
REMARK  status: ('A' for Active; 'I' for Inactive)
REMARK    1  A    between atoms: C_5  and  C_6 
REMARK    2  A    between atoms: N_9  and  C_11 
REMARK    3  A    between atoms: C_11  and  C_12 
REMARK    4  A    between atoms: C_13  and  N_14 
REMARK    5  A    between atoms: N_14  and  C_15 
ROOT
HETATM    1  C   UNL     1      41.424 -16.778   2.355  1.00  0.00    -0.006 A 
HETATM    2  C   UNL     1      42.466 -16.272   3.166  1.00  0.00     0.038 A 
HETATM    3  C   UNL     1      43.627 -17.057   3.321  1.00  0.00     0.030 A 
HETATM    4  C   UNL     1      43.760 -18.301   2.704  1.00  0.00     0.002 A 
HETATM    5  C   UNL     1      42.747 -18.781   1.891  1.00  0.00     0.001 A 
HETATM    6  C   UNL     1      41.595 -18.022   1.708  1.00  0.00     0.011 A 
ENDROOT
BRANCH   1   7
HETATM    7  C   UNL     1      40.153 -16.011   2.094  1.00  0.00     0.275 C 
BRANCH   7   8
HETATM    8  N   UNL     1      40.014 -15.481   0.665  1.00  0.00    -0.067 N 
HETATM    9  C   UNL     1      39.161 -14.234   0.660  1.00  0.00     0.236 C 
HETATM   10  C   UNL     1      38.983 -13.723  -0.762  1.00  0.00     0.037 C 
HETATM   11  C   UNL     1      40.334 -13.407  -1.425  1.00  0.00     0.025 C 
HETATM   12  C   UNL     1      41.168 -14.693  -1.415  1.00  0.00     0.037 C 
HETATM   13  C   UNL     1      41.350 -15.270  -0.015  1.00  0.00     0.236 C 
HETATM   14  H   UNL     1      39.526 -16.215   0.144  1.00  0.00     0.280 HD
BRANCH  11  15
HETATM   15  C   UNL     1      41.018 -12.228  -0.788  1.00  0.00    -0.018 A 
HETATM   16  C   UNL     1      42.416 -12.034  -0.630  1.00  0.00     0.147 A 
HETATM   17  N   UNL     1      42.714 -10.851  -0.100  1.00  0.00    -0.185 NA
HETATM   18  N   UNL     1      41.522 -10.321   0.207  1.00  0.00    -0.285 N 
HETATM   19  C   UNL     1      41.459  -9.034   0.860  1.00  0.00     0.179 C 
HETATM   20  C   UNL     1      40.474 -11.104  -0.193  1.00  0.00     0.120 A 
ENDBRANCH  11  15
ENDBRANCH   7   8
ENDBRANCH   1   7
BRANCH   2  21
HETATM   21  N   UNL     1      42.394 -14.968   3.712  1.00  0.00    -0.380 N 
HETATM   22  C   UNL     1      43.247 -14.025   2.975  1.00  0.00     0.150 C 
BRANCH  21  23
HETATM   23  C   UNL     1      42.262 -14.874   5.187  1.00  0.00     0.087 C 
HETATM   24  C   UNL     1      40.837 -15.214   5.658  1.00  0.00     0.053 C 
HETATM   25  C   UNL     1      39.901 -14.021   5.795  1.00  0.00     0.236 C 
HETATM   26  N   UNL     1      40.558 -12.940   6.605  1.00  0.00    -0.075 N 
HETATM   27  H   UNL     1      40.792 -13.320   7.533  1.00  0.00     0.279 HD
HETATM   28  C   UNL     1      39.609 -11.796   6.883  1.00  0.00     0.269 C 
HETATM   29  C   UNL     1      41.825 -12.455   5.954  1.00  0.00     0.236 C 
HETATM   30  C   UNL     1      42.813 -13.603   5.842  1.00  0.00     0.053 C 
ENDBRANCH  21  23
ENDBRANCH   2  21
TORSDOF 5
ENDMDL
MODEL 5
REMARK VINA RESULT:      -7.6      2.418      8.026
REMARK  5 active torsions:
REMARK  status: ('A' for Active; 'I' for Inactive)
REMARK    1  A    between atoms: C_5  and  C_6 
REMARK    2  A    between atoms: N_9  and  C_11 
REMARK    3  A    between atoms: C_11  and  C_12 
REMARK    4  A    between atoms: C_13  and  N_14 
REMARK    5  A    between atoms: N_14  and  C_15 
ROOT
HETATM    1  C   UNL     1      41.568 -16.986   2.307  1.00  0.00    -0.006 A 
HETATM    2  C   UNL     1      42.544 -16.450   3.178  1.00  0.00     0.038 A 
HETATM    3  C   UNL     1      43.675 -17.238   3.475  1.00  0.00     0.030 A 
HETATM    4  C   UNL     1      43.842 -18.515   2.937  1.00  0.00     0.002 A 
HETATM    5  C   UNL     1      42.895 -19.026   2.064  1.00  0.00     0.001 A 
HETATM    6  C   UNL     1      41.775 -18.265   1.743  1.00  0.00     0.011 A 
ENDROOT
BRANCH   1   7
HETATM    7  C   UNL     1      40.337 -16.220   1.896  1.00  0.00     0.275 C 
BRANCH   7   8
HETATM    8  N   UNL     1      40.622 -14.904   1.168  1.00  0.00    -0.067 N 
HETATM    9  C   UNL     1      41.398 -15.177  -0.100  1.00  0.00     0.236 C 
HETATM   10  C   UNL     1      41.723 -13.870  -0.810  1.00  0.00     0.037 C 
HETATM   11  C   UNL     1      40.450 -13.083  -1.161  1.00  0.00     0.025 C 
HETATM   12  C   UNL     1      39.695 -12.814   0.145  1.00  0.00     0.037 C 
HETATM   13  C   UNL     1      39.373 -14.089   0.917  1.00  0.00     0.236 C 
HETATM   14  H   UNL     1      41.213 -14.359   1.803  1.00  0.00     0.280 HD
BRANCH  11  15
HETATM   15  C   UNL     1      39.626 -13.775  -2.213  1.00  0.00    -0.018 A 
HETATM   16  C   UNL     1      40.083 -14.708  -3.180  1.00  0.00     0.147 A 
HETATM   17  N   UNL     1      39.097 -15.207  -3.921  1.00  0.00    -0.185 NA
HETATM   18  N   UNL     1      38.016 -14.515  -3.533  1.00  0.00    -0.285 N 
HETATM   19  C   UNL     1      36.744 -14.758  -4.173  1.00  0.00     0.179 C 
HETATM   20  C   UNL     1      38.280 -13.650  -2.506  1.00  0.00     0.120 A 
ENDBRANCH  11  15
ENDBRANCH   7   8
ENDBRANCH   1   7
BRANCH   2  21
HETATM   21  N   UNL     1      42.445 -15.118   3.647  1.00  0.00    -0.380 N 
HETATM   22  C   UNL     1      43.571 -14.295   3.179  1.00  0.00     0.150 C 
BRANCH  21  23
HETATM   23  C   UNL     1      41.892 -14.936   5.012  1.00  0.00     0.087 C 
HETATM   24  C   UNL     1      42.951 -14.408   5.995  1.00  0.00     0.053 C 
HETATM   25  C   UNL     1      43.707 -15.483   6.766  1.00  0.00     0.236 C 
HETATM   26  N   UNL     1      42.740 -16.448   7.389  1.00  0.00    -0.075 N 
HETATM   27  H   UNL     1      42.114 -15.926   8.020  1.00  0.00     0.279 HD
HETATM   28  C   UNL     1      43.443 -17.447   8.279  1.00  0.00     0.269 C 
HETATM   29  C   UNL     1      41.899 -17.137   6.347  1.00  0.00     0.236 C 
HETATM   30  C   UNL     1      41.086 -16.106   5.584  1.00  0.00     0.053 C 
ENDBRANCH  21  23
ENDBRANCH   2  21
TORSDOF 5
ENDMDL
MODEL 6
REMARK VINA RESULT:      -7.5      2.349      7.835
REMARK  5 active torsions:
REMARK  status: ('A' for Active; 'I' for Inactive)
REMARK    1  A    between atoms: C_5  and  C_6 
REMARK    2  A    between atoms: N_9  and  C_11 
REMARK    3  A    between atoms: C_11  and  C_12 
REMARK    4  A    between atoms: C_13  and  N_14 
REMARK    5  A    between atoms: N_14  and  C_15 
ROOT
HETATM    1  C   UNL     1      41.404 -16.702   2.378  1.00  0.00    -0.006 A 
HETATM    2  C   UNL     1      42.446 -16.190   3.185  1.00  0.00     0.038 A 
HETATM    3  C   UNL     1      43.597 -16.983   3.364  1.00  0.00     0.030 A 
HETATM    4  C   UNL     1      43.722 -18.241   2.773  1.00  0.00     0.002 A 
HETATM    5  C   UNL     1      42.709 -18.727   1.963  1.00  0.00     0.001 A 
HETATM    6  C   UNL     1      41.566 -17.961   1.757  1.00  0.00     0.011 A 
ENDROOT
BRANCH   1   7
HETATM    7  C   UNL     1      40.142 -15.928   2.092  1.00  0.00     0.275 C 
BRANCH   7   8
HETATM    8  N   UNL     1      40.024 -15.416   0.654  1.00  0.00    -0.067 N 
HETATM    9  C   UNL     1      39.176 -14.166   0.622  1.00  0.00     0.236 C 
HETATM   10  C   UNL     1      39.018 -13.673  -0.809  1.00  0.00     0.037 C 
HETATM   11  C   UNL     1      40.378 -13.372  -1.459  1.00  0.00     0.025 C 
HETATM   12  C   UNL     1      41.207 -14.661  -1.421  1.00  0.00     0.037 C 
HETATM   13  C   UNL     1      41.368 -15.220  -0.011  1.00  0.00     0.236 C 
HETATM   14  H   UNL     1      39.539 -16.155   0.137  1.00  0.00     0.280 HD
BRANCH  11  15
HETATM   15  C   UNL     1      41.060 -12.187  -0.829  1.00  0.00    -0.018 A 
HETATM   16  C   UNL     1      42.457 -11.976  -0.698  1.00  0.00     0.147 A 
HETATM   17  N   UNL     1      42.751 -10.791  -0.167  1.00  0.00    -0.185 NA
HETATM   18  N   UNL     1      41.558 -10.278   0.166  1.00  0.00    -0.285 N 
HETATM   19  C   UNL     1      41.490  -8.996   0.828  1.00  0.00     0.179 C 
HETATM   20  C   UNL     1      40.512 -11.073  -0.217  1.00  0.00     0.120 A 
ENDBRANCH  11  15
ENDBRANCH   7   8
ENDBRANCH   1   7
BRANCH   2  21
HETATM   21  N   UNL     1      42.383 -14.874   3.703  1.00  0.00    -0.380 N 
HETATM   22  C   UNL     1      43.490 -14.044   3.207  1.00  0.00     0.150 C 
BRANCH  21  23
HETATM   23  C   UNL     1      41.902 -14.735   5.100  1.00  0.00     0.087 C 
HETATM   24  C   UNL     1      43.032 -14.316   6.057  1.00  0.00     0.053 C 
HETATM   25  C   UNL     1      43.761 -15.468   6.737  1.00  0.00     0.236 C 
HETATM   26  N   UNL     1      42.771 -16.412   7.355  1.00  0.00    -0.075 N 
HETATM   27  H   UNL     1      42.204 -15.893   8.041  1.00  0.00     0.279 HD
HETATM   28  C   UNL     1      43.458 -17.492   8.160  1.00  0.00     0.269 C 
HETATM   29  C   UNL     1      41.849 -17.001   6.322  1.00  0.00     0.236 C 
HETATM   30  C   UNL     1      41.060 -15.890   5.651  1.00  0.00     0.053 C 
ENDBRANCH  21  23
ENDBRANCH   2  21
TORSDOF 5
ENDMDL
MODEL 7
REMARK VINA RESULT:      -7.3      1.984      3.365
REMARK  5 active torsions:
REMARK  status: ('A' for Active; 'I' for Inactive)
REMARK    1  A    between atoms: C_5  and  C_6 
REMARK    2  A    between atoms: N_9  and  C_11 
REMARK    3  A    between atoms: C_11  and  C_12 
REMARK    4  A    between atoms: C_13  and  N_14 
REMARK    5  A    between atoms: N_14  and  C_15 
ROOT
HETATM    1  C   UNL     1      42.647 -15.319   2.629  1.00  0.00    -0.006 A 
HETATM    2  C   UNL     1      41.605 -15.433   1.680  1.00  0.00     0.038 A 
HETATM    3  C   UNL     1      41.731 -16.408   0.669  1.00  0.00     0.030 A 
HETATM    4  C   UNL     1      42.845 -17.243   0.589  1.00  0.00     0.002 A 
HETATM    5  C   UNL     1      43.852 -17.145   1.536  1.00  0.00     0.001 A 
HETATM    6  C   UNL     1      43.749 -16.201   2.552  1.00  0.00     0.011 A 
ENDROOT
BRANCH   1   7
HETATM    7  C   UNL     1      42.603 -14.335   3.770  1.00  0.00     0.275 C 
BRANCH   7   8
HETATM    8  N   UNL     1      42.397 -14.970   5.147  1.00  0.00    -0.067 N 
HETATM    9  C   UNL     1      41.505 -16.182   5.026  1.00  0.00     0.236 C 
HETATM   10  C   UNL     1      41.260 -16.796   6.397  1.00  0.00     0.037 C 
HETATM   11  C   UNL     1      42.575 -17.209   7.077  1.00  0.00     0.025 C 
HETATM   12  C   UNL     1      43.451 -15.956   7.195  1.00  0.00     0.037 C 
HETATM   13  C   UNL     1      43.700 -15.279   5.852  1.00  0.00     0.236 C 
HETATM   14  H   UNL     1      41.915 -14.261   5.709  1.00  0.00     0.280 HD
BRANCH  11  15
HETATM   15  C   UNL     1      43.244 -18.358   6.371  1.00  0.00    -0.018 A 
HETATM   16  C   UNL     1      43.766 -19.538   6.965  1.00  0.00     0.147 A 
HETATM   17  N   UNL     1      44.224 -20.406   6.066  1.00  0.00    -0.185 NA
HETATM   18  N   UNL     1      44.121 -19.753   4.900  1.00  0.00    -0.285 N 
HETATM   19  C   UNL     1      44.583 -20.384   3.685  1.00  0.00     0.179 C 
HETATM   20  C   UNL     1      43.533 -18.525   5.029  1.00  0.00     0.120 A 
ENDBRANCH  11  15
ENDBRANCH   7   8
ENDBRANCH   1   7
BRANCH   2  21
HETATM   21  N   UNL     1      40.420 -14.670   1.808  1.00  0.00    -0.380 N 
HETATM   22  C   UNL     1      39.245 -15.527   2.025  1.00  0.00     0.150 C 
BRANCH  21  23
HETATM   23  C   UNL     1      40.322 -13.452   0.965  1.00  0.00     0.087 C 
HETATM   24  C   UNL     1      39.194 -13.565  -0.076  1.00  0.00     0.053 C 
HETATM   25  C   UNL     1      39.621 -14.110  -1.433  1.00  0.00     0.236 C 
HETATM   26  N   UNL     1      40.825 -13.365  -1.932  1.00  0.00    -0.075 N 
HETATM   27  H   UNL     1      40.587 -12.365  -2.006  1.00  0.00     0.279 HD
HETATM   28  C   UNL     1      41.195 -13.781  -3.338  1.00  0.00     0.269 C 
HETATM   29  C   UNL     1      41.993 -13.509  -0.993  1.00  0.00     0.236 C 
HETATM   30  C   UNL     1      41.630 -12.931   0.364  1.00  0.00     0.053 C 
ENDBRANCH  21  23
ENDBRANCH   2  21
TORSDOF 5
ENDMDL
MODEL 8
REMARK VINA RESULT:      -7.3      1.947      7.657
REMARK  5 active torsions:
REMARK  status: ('A' for Active; 'I' for Inactive)
REMARK    1  A    between atoms: C_5  and  C_6 
REMARK    2  A    between atoms: N_9  and  C_11 
REMARK    3  A    between atoms: C_11  and  C_12 
REMARK    4  A    between atoms: C_13  and  N_14 
REMARK    5  A    between atoms: N_14  and  C_15 
ROOT
HETATM    1  C   UNL     1      44.229 -19.361   2.917  1.00  0.00    -0.006 A 
HETATM    2  C   UNL     1      44.255 -19.632   4.304  1.00  0.00     0.038 A 
HETATM    3  C   UNL     1      44.346 -20.976   4.718  1.00  0.00     0.030 A 
HETATM    4  C   UNL     1      44.406 -22.024   3.798  1.00  0.00     0.002 A 
HETATM    5  C   UNL     1      44.405 -21.753   2.440  1.00  0.00     0.001 A 
HETATM    6  C   UNL     1      44.329 -20.435   2.003  1.00  0.00     0.011 A 
ENDROOT
BRANCH   1   7
HETATM    7  C   UNL     1      44.165 -17.961   2.362  1.00  0.00     0.275 C 
BRANCH   7   8
HETATM    8  N   UNL     1      42.808 -17.274   2.529  1.00  0.00    -0.067 N 
HETATM    9  C   UNL     1      42.989 -15.774   2.544  1.00  0.00     0.236 C 
HETATM   10  C   UNL     1      41.649 -15.083   2.752  1.00  0.00     0.037 C 
HETATM   11  C   UNL     1      40.643 -15.453   1.650  1.00  0.00     0.025 C 
HETATM   12  C   UNL     1      40.473 -16.977   1.669  1.00  0.00     0.037 C 
HETATM   13  C   UNL     1      41.793 -17.723   1.500  1.00  0.00     0.236 C 
HETATM   14  H   UNL     1      42.457 -17.572   3.444  1.00  0.00     0.280 HD
BRANCH  11  15
HETATM   15  C   UNL     1      41.040 -14.899   0.308  1.00  0.00    -0.018 A 
HETATM   16  C   UNL     1      41.664 -13.650   0.050  1.00  0.00     0.147 A 
HETATM   17  N   UNL     1      41.962 -13.480  -1.236  1.00  0.00    -0.185 NA
HETATM   18  N   UNL     1      41.426 -14.550  -1.839  1.00  0.00    -0.285 N 
HETATM   19  C   UNL     1      41.512 -14.678  -3.276  1.00  0.00     0.179 C 
HETATM   20  C   UNL     1      40.868 -15.434  -0.956  1.00  0.00     0.120 A 
ENDBRANCH  11  15
ENDBRANCH   7   8
ENDBRANCH   1   7
BRANCH   2  21
HETATM   21  N   UNL     1      44.303 -18.578   5.248  1.00  0.00    -0.380 N 
HETATM   22  C   UNL     1      45.685 -18.275   5.651  1.00  0.00     0.150 C 
BRANCH  21  23
HETATM   23  C   UNL     1      43.199 -18.523   6.238  1.00  0.00     0.087 C 
HETATM   24  C   UNL     1      41.820 -18.633   5.564  1.00  0.00     0.053 C 
HETATM   25  C   UNL     1      41.169 -17.303   5.207  1.00  0.00     0.236 C 
HETATM   26  N   UNL     1      41.184 -16.385   6.395  1.00  0.00    -0.075 N 
HETATM   27  H   UNL     1      40.674 -16.838   7.167  1.00  0.00     0.279 HD
HETATM   28  C   UNL     1      40.422 -15.108   6.123  1.00  0.00     0.269 C 
HETATM   29  C   UNL     1      42.589 -16.099   6.854  1.00  0.00     0.236 C 
HETATM   30  C   UNL     1      43.263 -17.394   7.271  1.00  0.00     0.053 C 
ENDBRANCH  21  23
ENDBRANCH   2  21
TORSDOF 5
ENDMDL
MODEL 9
REMARK VINA RESULT:      -7.3      2.587      8.504
REMARK  5 active torsions:
REMARK  status: ('A' for Active; 'I' for Inactive)
REMARK    1  A    between atoms: C_5  and  C_6 
REMARK    2  A    between atoms: N_9  and  C_11 
REMARK    3  A    between atoms: C_11  and  C_12 
REMARK    4  A    between atoms: C_13  and  N_14 
REMARK    5  A    between atoms: N_14  and  C_15 
ROOT
HETATM    1  C   UNL     1      42.212 -16.337   1.598  1.00  0.00    -0.006 A 
HETATM    2  C   UNL     1      42.714 -16.094   2.897  1.00  0.00     0.038 A 
HETATM    3  C   UNL     1      43.569 -17.057   3.470  1.00  0.00     0.030 A 
HETATM    4  C   UNL     1      43.918 -18.226   2.792  1.00  0.00     0.002 A 
HETATM    5  C   UNL     1      43.443 -18.448   1.510  1.00  0.00     0.001 A 
HETATM    6  C   UNL     1      42.609 -17.508   0.913  1.00  0.00     0.011 A 
ENDROOT
BRANCH   1   7
HETATM    7  C   UNL     1      41.318 -15.362   0.876  1.00  0.00     0.275 C 
BRANCH   7   8
HETATM    8  N   UNL     1      41.760 -15.033  -0.552  1.00  0.00    -0.067 N 
HETATM    9  C   UNL     1      40.865 -15.741  -1.542  1.00  0.00     0.236 C 
HETATM   10  C   UNL     1      41.323 -15.454  -2.965  1.00  0.00     0.037 C 
HETATM   11  C   UNL     1      41.313 -13.948  -3.271  1.00  0.00     0.025 C 
HETATM   12  C   UNL     1      42.238 -13.262  -2.259  1.00  0.00     0.037 C 
HETATM   13  C   UNL     1      41.846 -13.545  -0.812  1.00  0.00     0.236 C 
HETATM   14  H   UNL     1      42.709 -15.408  -0.641  1.00  0.00     0.280 HD
BRANCH  11  15
HETATM   15  C   UNL     1      39.919 -13.383  -3.307  1.00  0.00    -0.018 A 
HETATM   16  C   UNL     1      38.711 -14.100  -3.512  1.00  0.00     0.147 A 
HETATM   17  N   UNL     1      37.631 -13.330  -3.408  1.00  0.00    -0.185 NA
HETATM   18  N   UNL     1      38.126 -12.093  -3.261  1.00  0.00    -0.285 N 
HETATM   19  C   UNL     1      37.223 -10.969  -3.166  1.00  0.00     0.179 C 
HETATM   20  C   UNL     1      39.492 -12.072  -3.187  1.00  0.00     0.120 A 
ENDBRANCH  11  15
ENDBRANCH   7   8
ENDBRANCH   1   7
BRANCH   2  21
HETATM   21  N   UNL     1      42.459 -14.867   3.556  1.00  0.00    -0.380 N 
HETATM   22  C   UNL     1      43.304 -13.784   3.031  1.00  0.00     0.150 C 
BRANCH  21  23
HETATM   23  C   UNL     1      42.145 -14.946   5.004  1.00  0.00     0.087 C 
HETATM   24  C   UNL     1      40.646 -15.192   5.253  1.00  0.00     0.053 C 
HETATM   25  C   UNL     1      39.809 -13.934   5.442  1.00  0.00     0.236 C 
HETATM   26  N   UNL     1      40.447 -13.038   6.464  1.00  0.00    -0.075 N 
HETATM   27  H   UNL     1      40.524 -13.554   7.353  1.00  0.00     0.279 HD
HETATM   28  C   UNL     1      39.574 -11.845   6.784  1.00  0.00     0.269 C 
HETATM   29  C   UNL     1      41.826 -12.610   6.040  1.00  0.00     0.236 C 
HETATM   30  C   UNL     1      42.715 -13.832   5.888  1.00  0.00     0.053 C 
ENDBRANCH  21  23
ENDBRANCH   2  21
TORSDOF 5
ENDMDL
MODEL 10
REMARK VINA RESULT:      -7.3      2.308      7.215
REMARK  5 active torsions:
REMARK  status: ('A' for Active; 'I' for Inactive)
REMARK    1  A    between atoms: C_5  and  C_6 
REMARK    2  A    between atoms: N_9  and  C_11 
REMARK    3  A    between atoms: C_11  and  C_12 
REMARK    4  A    between atoms: C_13  and  N_14 
REMARK    5  A    between atoms: N_14  and  C_15 
ROOT
HETATM    1  C   UNL     1      41.069 -14.962   2.946  1.00  0.00    -0.006 A 
HETATM    2  C   UNL     1      42.205 -15.532   3.567  1.00  0.00     0.038 A 
HETATM    3  C   UNL     1      43.100 -14.671   4.234  1.00  0.00     0.030 A 
HETATM    4  C   UNL     1      42.890 -13.292   4.287  1.00  0.00     0.002 A 
HETATM    5  C   UNL     1      41.763 -12.742   3.699  1.00  0.00     0.001 A 
HETATM    6  C   UNL     1      40.855 -13.569   3.045  1.00  0.00     0.011 A 
ENDROOT
BRANCH   1   7
HETATM    7  C   UNL     1      40.031 -15.791   2.234  1.00  0.00     0.275 C 
BRANCH   7   8
HETATM    8  N   UNL     1      39.932 -15.527   0.730  1.00  0.00    -0.067 N 
HETATM    9  C   UNL     1      39.255 -14.199   0.485  1.00  0.00     0.236 C 
HETATM   10  C   UNL     1      39.114 -13.946  -1.009  1.00  0.00     0.037 C 
HETATM   11  C   UNL     1      40.478 -13.950  -1.717  1.00  0.00     0.025 C 
HETATM   12  C   UNL     1      41.131 -15.313  -1.459  1.00  0.00     0.037 C 
HETATM   13  C   UNL     1      41.266 -15.635   0.025  1.00  0.00     0.236 C 
HETATM   14  H   UNL     1      39.336 -16.273   0.357  1.00  0.00     0.280 HD
BRANCH  11  15
HETATM   15  C   UNL     1      41.331 -12.777  -1.315  1.00  0.00    -0.018 A 
HETATM   16  C   UNL     1      42.720 -12.607  -1.557  1.00  0.00     0.147 A 
HETATM   17  N   UNL     1      43.172 -11.424  -1.149  1.00  0.00    -0.185 NA
HETATM   18  N   UNL     1      42.121 -10.869  -0.529  1.00  0.00    -0.285 N 
HETATM   19  C   UNL     1      42.262  -9.575   0.096  1.00  0.00     0.179 C 
HETATM   20  C   UNL     1      40.992 -11.638  -0.608  1.00  0.00     0.120 A 
ENDBRANCH  11  15
ENDBRANCH   7   8
ENDBRANCH   1   7
BRANCH   2  21
HETATM   21  N   UNL     1      42.378 -16.936   3.615  1.00  0.00    -0.380 N 
HETATM   22  C   UNL     1      41.596 -17.541   4.704  1.00  0.00     0.150 C 
BRANCH  21  23
HETATM   23  C   UNL     1      43.730 -17.449   3.281  1.00  0.00     0.087 C 
HETATM   24  C   UNL     1      43.796 -17.997   1.845  1.00  0.00     0.053 C 
HETATM   25  C   UNL     1      43.520 -19.489   1.710  1.00  0.00     0.236 C 
HETATM   26  N   UNL     1      44.364 -20.259   2.684  1.00  0.00    -0.075 N 
HETATM   27  H   UNL     1      45.356 -20.059   2.492  1.00  0.00     0.279 HD
HETATM   28  C   UNL     1      44.224 -21.752   2.486  1.00  0.00     0.269 C 
HETATM   29  C   UNL     1      44.065 -19.865   4.106  1.00  0.00     0.236 C 
HETATM   30  C   UNL     1      44.374 -18.391   4.302  1.00  0.00     0.053 C 
ENDBRANCH  21  23
ENDBRANCH   2  21
TORSDOF 5
ENDMDL
