MODEL 1
REMARK VINA RESULT:      -9.0      0.000      0.000
REMARK  3 active torsions:
REMARK  status: ('A' for Active; 'I' for Inactive)
REMARK    1  A    between atoms: C_4  and  N_5 
REMARK       I    between atoms: N_5  and  C_6 
REMARK    2  A    between atoms: C_6  and  C_7 
REMARK    3  A    between atoms: C_7  and  C_8 
ROOT
HETATM    1  C   UNL     1      41.249 -15.024  -0.176  1.00  0.00     0.286 C 
HETATM    2  N   UNL     1      41.631 -14.541  -1.594  1.00  0.00    -0.056 N 
HETATM    3  H   UNL     1      42.001 -13.587  -1.463  1.00  0.00     0.278 HD
HETATM    4  H   UNL     1      42.427 -15.086  -1.952  1.00  0.00     0.278 HD
HETATM    5  C   UNL     1      40.514 -14.455  -2.619  1.00  0.00     0.209 C 
HETATM    6  C   UNL     1      39.234 -13.829  -1.993  1.00  0.00     0.115 C 
HETATM    7  N   UNL     1      38.953 -14.249  -0.621  1.00  0.00    -0.353 N 
HETATM    8  C   UNL     1      39.964 -14.338   0.306  1.00  0.00     0.249 C 
HETATM    9  O   UNL     1      39.785 -13.945   1.450  1.00  0.00    -0.271 OA
HETATM   10  C   UNL     1      40.341 -15.802  -3.330  1.00  0.00     0.035 C 
HETATM   11  C   UNL     1      39.063 -15.883  -4.157  1.00  0.00     0.002 C 
HETATM   12  C   UNL     1      37.847 -15.469  -3.341  1.00  0.00     0.002 C 
HETATM   13  C   UNL     1      37.995 -14.027  -2.867  1.00  0.00     0.027 C 
HETATM   14  H   UNL     1      38.136 -13.812  -0.191  1.00  0.00     0.163 HD
ENDROOT
BRANCH   1  15
HETATM   15  C   UNL     1      41.063 -16.540  -0.172  1.00  0.00     0.146 C 
BRANCH  15  16
HETATM   16  C   UNL     1      41.417 -17.121   1.179  1.00  0.00     0.224 C 
HETATM   17  N   UNL     1      42.771 -17.376   1.276  1.00  0.00    -0.327 N 
HETATM   18  H   UNL     1      43.391 -16.918   0.619  1.00  0.00     0.169 HD
HETATM   19  O   UNL     1      40.560 -17.302   2.030  1.00  0.00    -0.273 OA
BRANCH  17  20
HETATM   20  C   UNL     1      43.412 -18.247   2.177  1.00  0.00     0.035 A 
HETATM   21  C   UNL     1      43.793 -17.879   3.469  1.00  0.00     0.036 A 
HETATM   22  C   UNL     1      44.330 -18.834   4.349  1.00  0.00    -0.059 A 
HETATM   23  C   UNL     1      44.732 -18.450   5.742  1.00  0.00     0.048 C 
HETATM   24  C   UNL     1      44.509 -20.151   3.909  1.00  0.00     0.013 A 
HETATM   25  C   UNL     1      44.132 -20.534   2.619  1.00  0.00    -0.059 A 
HETATM   26  C   UNL     1      43.591 -19.571   1.758  1.00  0.00     0.036 A 
HETATM   27  C   UNL     1      44.341 -21.948   2.160  1.00  0.00     0.048 C 
ENDBRANCH  17  20
ENDBRANCH  15  16
ENDBRANCH   1  15
TORSDOF 3
ENDMDL
MODEL 2
REMARK VINA RESULT:      -8.9      0.253      1.809
REMARK  3 active torsions:
REMARK  status: ('A' for Active; 'I' for Inactive)
REMARK    1  A    between atoms: C_4  and  N_5 
REMARK       I    between atoms: N_5  and  C_6 
REMARK    2  A    between atoms: C_6  and  C_7 
REMARK    3  A    between atoms: C_7  and  C_8 
ROOT
HETATM    1  C   UNL     1      41.265 -15.080   0.053  1.00  0.00     0.286 C 
HETATM    2  N   UNL     1      41.741 -14.582  -1.331  1.00  0.00    -0.056 N 
HETATM    3  H   UNL     1      42.107 -13.633  -1.166  1.00  0.00     0.278 HD
HETATM    4  H   UNL     1      42.554 -15.129  -1.644  1.00  0.00     0.278 HD
HETATM    5  C   UNL     1      40.693 -14.477  -2.425  1.00  0.00     0.209 C 
HETATM    6  C   UNL     1      39.379 -13.848  -1.875  1.00  0.00     0.115 C 
HETATM    7  N   UNL     1      39.007 -14.282  -0.530  1.00  0.00    -0.353 N 
HETATM    8  C   UNL     1      39.956 -14.389   0.459  1.00  0.00     0.249 C 
HETATM    9  O   UNL     1      39.705 -14.008   1.593  1.00  0.00    -0.271 OA
HETATM   10  C   UNL     1      40.557 -15.814  -3.162  1.00  0.00     0.035 C 
HETATM   11  C   UNL     1      39.335 -15.877  -4.071  1.00  0.00     0.002 C 
HETATM   12  C   UNL     1      38.071 -15.463  -3.330  1.00  0.00     0.002 C 
HETATM   13  C   UNL     1      38.198 -14.027  -2.831  1.00  0.00     0.027 C 
HETATM   14  H   UNL     1      38.167 -13.844  -0.149  1.00  0.00     0.163 HD
ENDROOT
BRANCH   1  15
HETATM   15  C   UNL     1      41.069 -16.593   0.027  1.00  0.00     0.146 C 
BRANCH  15  16
HETATM   16  C   UNL     1      41.434 -17.205   1.362  1.00  0.00     0.224 C 
HETATM   17  N   UNL     1      42.742 -17.650   1.367  1.00  0.00    -0.327 N 
HETATM   18  H   UNL     1      43.370 -17.292   0.659  1.00  0.00     0.169 HD
HETATM   19  O   UNL     1      40.624 -17.254   2.273  1.00  0.00    -0.273 OA
BRANCH  17  20
HETATM   20  C   UNL     1      43.317 -18.594   2.239  1.00  0.00     0.035 A 
HETATM   21  C   UNL     1      43.551 -19.926   1.892  1.00  0.00     0.036 A 
HETATM   22  C   UNL     1      44.227 -20.783   2.777  1.00  0.00    -0.059 A 
HETATM   23  C   UNL     1      44.492 -22.212   2.407  1.00  0.00     0.048 C 
HETATM   24  C   UNL     1      44.636 -20.297   4.025  1.00  0.00     0.013 A 
HETATM   25  C   UNL     1      44.409 -18.966   4.387  1.00  0.00    -0.059 A 
HETATM   26  C   UNL     1      43.742 -18.125   3.489  1.00  0.00     0.036 A 
HETATM   27  C   UNL     1      44.845 -18.465   5.734  1.00  0.00     0.048 C 
ENDBRANCH  17  20
ENDBRANCH  15  16
ENDBRANCH   1  15
TORSDOF 3
ENDMDL
MODEL 3
REMARK VINA RESULT:      -7.9      1.834      3.502
REMARK  3 active torsions:
REMARK  status: ('A' for Active; 'I' for Inactive)
REMARK    1  A    between atoms: C_4  and  N_5 
REMARK       I    between atoms: N_5  and  C_6 
REMARK    2  A    between atoms: C_6  and  C_7 
REMARK    3  A    between atoms: C_7  and  C_8 
ROOT
HETATM    1  C   UNL     1      40.795 -15.549  -0.887  1.00  0.00     0.286 C 
HETATM    2  N   UNL     1      39.706 -14.747  -0.138  1.00  0.00    -0.056 N 
HETATM    3  H   UNL     1      38.829 -14.945  -0.644  1.00  0.00     0.278 HD
HETATM    4  H   UNL     1      39.562 -15.137   0.803  1.00  0.00     0.278 HD
HETATM    5  C   UNL     1      39.868 -13.238  -0.092  1.00  0.00     0.209 C 
HETATM    6  C   UNL     1      40.307 -12.685  -1.479  1.00  0.00     0.115 C 
HETATM    7  N   UNL     1      41.277 -13.515  -2.192  1.00  0.00    -0.353 N 
HETATM    8  C   UNL     1      41.139 -14.882  -2.225  1.00  0.00     0.249 C 
HETATM    9  O   UNL     1      41.353 -15.495  -3.261  1.00  0.00    -0.271 OA
HETATM   10  C   UNL     1      40.726 -12.832   1.112  1.00  0.00     0.035 C 
HETATM   11  C   UNL     1      41.174 -11.376   1.065  1.00  0.00     0.002 C 
HETATM   12  C   UNL     1      41.810 -11.034  -0.276  1.00  0.00     0.002 C 
HETATM   13  C   UNL     1      40.806 -11.240  -1.405  1.00  0.00     0.027 C 
HETATM   14  H   UNL     1      41.540 -13.177  -3.118  1.00  0.00     0.163 HD
ENDROOT
BRANCH   1  15
HETATM   15  C   UNL     1      42.049 -15.661  -0.023  1.00  0.00     0.146 C 
BRANCH  15  16
HETATM   16  C   UNL     1      41.915 -16.791   0.974  1.00  0.00     0.224 C 
HETATM   17  N   UNL     1      43.099 -17.000   1.655  1.00  0.00    -0.327 N 
HETATM   18  H   UNL     1      43.790 -16.260   1.648  1.00  0.00     0.169 HD
HETATM   19  O   UNL     1      40.859 -17.388   1.111  1.00  0.00    -0.273 OA
BRANCH  17  20
HETATM   20  C   UNL     1      43.490 -18.162   2.348  1.00  0.00     0.035 A 
HETATM   21  C   UNL     1      43.592 -19.420   1.752  1.00  0.00     0.036 A 
HETATM   22  C   UNL     1      44.093 -20.512   2.480  1.00  0.00    -0.059 A 
HETATM   23  C   UNL     1      44.216 -21.865   1.844  1.00  0.00     0.048 C 
HETATM   24  C   UNL     1      44.458 -20.335   3.821  1.00  0.00     0.013 A 
HETATM   25  C   UNL     1      44.361 -19.081   4.431  1.00  0.00    -0.059 A 
HETATM   26  C   UNL     1      43.868 -18.002   3.687  1.00  0.00     0.036 A 
HETATM   27  C   UNL     1      44.746 -18.911   5.872  1.00  0.00     0.048 C 
ENDBRANCH  17  20
ENDBRANCH  15  16
ENDBRANCH   1  15
TORSDOF 3
ENDMDL
MODEL 4
REMARK VINA RESULT:      -7.7      2.387      7.393
REMARK  3 active torsions:
REMARK  status: ('A' for Active; 'I' for Inactive)
REMARK    1  A    between atoms: C_4  and  N_5 
REMARK       I    between atoms: N_5  and  C_6 
REMARK    2  A    between atoms: C_6  and  C_7 
REMARK    3  A    between atoms: C_7  and  C_8 
ROOT
HETATM    1  C   UNL     1      41.695 -14.937   3.820  1.00  0.00     0.286 C 
HETATM    2  N   UNL     1      40.796 -16.167   3.557  1.00  0.00    -0.056 N 
HETATM    3  H   UNL     1      40.128 -16.186   4.343  1.00  0.00     0.278 HD
HETATM    4  H   UNL     1      40.216 -16.010   2.721  1.00  0.00     0.278 HD
HETATM    5  C   UNL     1      41.477 -17.523   3.510  1.00  0.00     0.209 C 
HETATM    6  C   UNL     1      42.521 -17.659   4.655  1.00  0.00     0.115 C 
HETATM    7  N   UNL     1      43.295 -16.449   4.928  1.00  0.00    -0.353 N 
HETATM    8  C   UNL     1      42.683 -15.219   4.960  1.00  0.00     0.249 C 
HETATM    9  O   UNL     1      42.986 -14.405   5.820  1.00  0.00    -0.271 OA
HETATM   10  C   UNL     1      41.973 -17.820   2.090  1.00  0.00     0.035 C 
HETATM   11  C   UNL     1      42.913 -19.017   2.021  1.00  0.00     0.002 C 
HETATM   12  C   UNL     1      44.036 -18.901   3.044  1.00  0.00     0.002 C 
HETATM   13  C   UNL     1      43.461 -18.850   4.455  1.00  0.00     0.027 C 
HETATM   14  H   UNL     1      43.954 -16.520   5.704  1.00  0.00     0.163 HD
ENDROOT
BRANCH   1  15
HETATM   15  C   UNL     1      42.457 -14.565   2.550  1.00  0.00     0.146 C 
BRANCH  15  16
HETATM   16  C   UNL     1      41.501 -14.291   1.410  1.00  0.00     0.224 C 
HETATM   17  N   UNL     1      41.997 -14.774   0.214  1.00  0.00    -0.327 N 
HETATM   18  H   UNL     1      42.737 -15.464   0.249  1.00  0.00     0.169 HD
HETATM   19  O   UNL     1      40.439 -13.721   1.603  1.00  0.00    -0.273 OA
BRANCH  17  20
HETATM   20  C   UNL     1      41.616 -14.386  -1.084  1.00  0.00     0.035 A 
HETATM   21  C   UNL     1      42.100 -13.244  -1.724  1.00  0.00     0.036 A 
HETATM   22  C   UNL     1      41.758 -12.980  -3.061  1.00  0.00    -0.059 A 
HETATM   23  C   UNL     1      42.282 -11.761  -3.759  1.00  0.00     0.048 C 
HETATM   24  C   UNL     1      40.899 -13.857  -3.737  1.00  0.00     0.013 A 
HETATM   25  C   UNL     1      40.407 -15.005  -3.109  1.00  0.00    -0.059 A 
HETATM   26  C   UNL     1      40.766 -15.256  -1.780  1.00  0.00     0.036 A 
HETATM   27  C   UNL     1      39.479 -15.928  -3.845  1.00  0.00     0.048 C 
ENDBRANCH  17  20
ENDBRANCH  15  16
ENDBRANCH   1  15
TORSDOF 3
ENDMDL
MODEL 5
REMARK VINA RESULT:      -7.7      4.362      6.315
REMARK  3 active torsions:
REMARK  status: ('A' for Active; 'I' for Inactive)
REMARK    1  A    between atoms: C_4  and  N_5 
REMARK       I    between atoms: N_5  and  C_6 
REMARK    2  A    between atoms: C_6  and  C_7 
REMARK    3  A    between atoms: C_7  and  C_8 
ROOT
HETATM    1  C   UNL     1      42.000 -14.911   3.192  1.00  0.00     0.286 C 
HETATM    2  N   UNL     1      41.355 -15.363   4.522  1.00  0.00    -0.056 N 
HETATM    3  H   UNL     1      40.430 -14.908   4.541  1.00  0.00     0.278 HD
HETATM    4  H   UNL     1      41.153 -16.372   4.493  1.00  0.00     0.278 HD
HETATM    5  C   UNL     1      42.074 -14.980   5.804  1.00  0.00     0.209 C 
HETATM    6  C   UNL     1      42.573 -13.508   5.740  1.00  0.00     0.115 C 
HETATM    7  N   UNL     1      43.101 -13.094   4.441  1.00  0.00    -0.353 N 
HETATM    8  C   UNL     1      42.459 -13.449   3.279  1.00  0.00     0.249 C 
HETATM    9  O   UNL     1      42.343 -12.639   2.370  1.00  0.00    -0.271 OA
HETATM   10  C   UNL     1      43.116 -16.044   6.167  1.00  0.00     0.035 C 
HETATM   11  C   UNL     1      44.071 -15.596   7.267  1.00  0.00     0.002 C 
HETATM   12  C   UNL     1      44.677 -14.234   6.956  1.00  0.00     0.002 C 
HETATM   13  C   UNL     1      43.580 -13.180   6.844  1.00  0.00     0.027 C 
HETATM   14  H   UNL     1      43.395 -12.118   4.382  1.00  0.00     0.163 HD
ENDROOT
BRANCH   1  15
HETATM   15  C   UNL     1      43.187 -15.810   2.853  1.00  0.00     0.146 C 
BRANCH  15  16
HETATM   16  C   UNL     1      42.788 -17.268   2.903  1.00  0.00     0.224 C 
HETATM   17  N   UNL     1      43.778 -18.039   3.481  1.00  0.00    -0.327 N 
HETATM   18  H   UNL     1      44.482 -17.571   4.039  1.00  0.00     0.169 HD
HETATM   19  O   UNL     1      41.706 -17.639   2.477  1.00  0.00    -0.273 OA
BRANCH  17  20
HETATM   20  C   UNL     1      43.957 -19.429   3.357  1.00  0.00     0.035 A 
HETATM   21  C   UNL     1      43.849 -20.118   2.148  1.00  0.00     0.036 A 
HETATM   22  C   UNL     1      44.147 -21.490   2.082  1.00  0.00    -0.059 A 
HETATM   23  C   UNL     1      44.045 -22.235   0.785  1.00  0.00     0.048 C 
HETATM   24  C   UNL     1      44.523 -22.168   3.249  1.00  0.00     0.013 A 
HETATM   25  C   UNL     1      44.635 -21.491   4.467  1.00  0.00    -0.059 A 
HETATM   26  C   UNL     1      44.343 -20.123   4.511  1.00  0.00     0.036 A 
HETATM   27  C   UNL     1      45.028 -22.236   5.710  1.00  0.00     0.048 C 
ENDBRANCH  17  20
ENDBRANCH  15  16
ENDBRANCH   1  15
TORSDOF 3
ENDMDL
MODEL 6
REMARK VINA RESULT:      -7.7      3.207      8.069
REMARK  3 active torsions:
REMARK  status: ('A' for Active; 'I' for Inactive)
REMARK    1  A    between atoms: C_4  and  N_5 
REMARK       I    between atoms: N_5  and  C_6 
REMARK    2  A    between atoms: C_6  and  C_7 
REMARK    3  A    between atoms: C_7  and  C_8 
ROOT
HETATM    1  C   UNL     1      41.100 -14.727   1.284  1.00  0.00     0.286 C 
HETATM    2  N   UNL     1      40.447 -15.888   2.070  1.00  0.00    -0.056 N 
HETATM    3  H   UNL     1      39.984 -15.441   2.876  1.00  0.00     0.278 HD
HETATM    4  H   UNL     1      39.681 -16.301   1.521  1.00  0.00     0.278 HD
HETATM    5  C   UNL     1      41.373 -16.959   2.618  1.00  0.00     0.209 C 
HETATM    6  C   UNL     1      42.644 -16.322   3.250  1.00  0.00     0.115 C 
HETATM    7  N   UNL     1      43.184 -15.176   2.522  1.00  0.00    -0.353 N 
HETATM    8  C   UNL     1      42.347 -14.210   2.014  1.00  0.00     0.249 C 
HETATM    9  O   UNL     1      42.649 -13.029   2.101  1.00  0.00    -0.271 OA
HETATM   10  C   UNL     1      41.603 -18.051   1.567  1.00  0.00     0.035 C 
HETATM   11  C   UNL     1      42.739 -19.002   1.929  1.00  0.00     0.002 C 
HETATM   12  C   UNL     1      44.004 -18.239   2.298  1.00  0.00     0.002 C 
HETATM   13  C   UNL     1      43.750 -17.348   3.509  1.00  0.00     0.027 C 
HETATM   14  H   UNL     1      43.995 -14.729   2.952  1.00  0.00     0.163 HD
ENDROOT
BRANCH   1  15
HETATM   15  C   UNL     1      41.474 -15.192  -0.121  1.00  0.00     0.146 C 
BRANCH  15  16
HETATM   16  C   UNL     1      41.221 -14.097  -1.134  1.00  0.00     0.224 C 
HETATM   17  N   UNL     1      42.407 -13.564  -1.601  1.00  0.00    -0.327 N 
HETATM   18  H   UNL     1      43.256 -14.100  -1.469  1.00  0.00     0.169 HD
HETATM   19  O   UNL     1      40.085 -13.788  -1.455  1.00  0.00    -0.273 OA
BRANCH  17  20
HETATM   20  C   UNL     1      42.593 -12.315  -2.223  1.00  0.00     0.035 A 
HETATM   21  C   UNL     1      42.214 -12.042  -3.539  1.00  0.00     0.036 A 
HETATM   22  C   UNL     1      42.332 -10.742  -4.057  1.00  0.00    -0.059 A 
HETATM   23  C   UNL     1      41.917 -10.438  -5.466  1.00  0.00     0.048 C 
HETATM   24  C   UNL     1      42.863  -9.726  -3.251  1.00  0.00     0.013 A 
HETATM   25  C   UNL     1      43.246  -9.984  -1.932  1.00  0.00    -0.059 A 
HETATM   26  C   UNL     1      43.113 -11.284  -1.430  1.00  0.00     0.036 A 
HETATM   27  C   UNL     1      43.823  -8.886  -1.086  1.00  0.00     0.048 C 
ENDBRANCH  17  20
ENDBRANCH  15  16
ENDBRANCH   1  15
TORSDOF 3
ENDMDL
MODEL 7
REMARK VINA RESULT:      -7.7      2.009      3.115
REMARK  3 active torsions:
REMARK  status: ('A' for Active; 'I' for Inactive)
REMARK    1  A    between atoms: C_4  and  N_5 
REMARK       I    between atoms: N_5  and  C_6 
REMARK    2  A    between atoms: C_6  and  C_7 
REMARK    3  A    between atoms: C_7  and  C_8 
ROOT
HETATM    1  C   UNL     1      40.294 -15.635   1.467  1.00  0.00     0.286 C 
HETATM    2  N   UNL     1      39.279 -14.771   0.684  1.00  0.00    -0.056 N 
HETATM    3  H   UNL     1      38.674 -15.445   0.190  1.00  0.00     0.278 HD
HETATM    4  H   UNL     1      38.651 -14.282   1.337  1.00  0.00     0.278 HD
HETATM    5  C   UNL     1      39.840 -13.820  -0.359  1.00  0.00     0.209 C 
HETATM    6  C   UNL     1      40.954 -14.512  -1.196  1.00  0.00     0.115 C 
HETATM    7  N   UNL     1      41.844 -15.386  -0.433  1.00  0.00    -0.353 N 
HETATM    8  C   UNL     1      41.339 -16.239   0.519  1.00  0.00     0.249 C 
HETATM    9  O   UNL     1      41.774 -17.378   0.615  1.00  0.00    -0.271 OA
HETATM   10  C   UNL     1      40.200 -12.477   0.286  1.00  0.00     0.035 C 
HETATM   11  C   UNL     1      41.031 -11.579  -0.624  1.00  0.00     0.002 C 
HETATM   12  C   UNL     1      42.234 -12.322  -1.189  1.00  0.00     0.002 C 
HETATM   13  C   UNL     1      41.775 -13.516  -2.019  1.00  0.00     0.027 C 
HETATM   14  H   UNL     1      42.552 -15.872  -0.983  1.00  0.00     0.163 HD
ENDROOT
BRANCH   1  15
HETATM   15  C   UNL     1      40.985 -14.792   2.536  1.00  0.00     0.146 C 
BRANCH  15  16
HETATM   16  C   UNL     1      41.481 -15.663   3.669  1.00  0.00     0.224 C 
HETATM   17  N   UNL     1      42.783 -16.072   3.452  1.00  0.00    -0.327 N 
HETATM   18  H   UNL     1      43.337 -15.561   2.777  1.00  0.00     0.169 HD
HETATM   19  O   UNL     1      40.767 -15.919   4.625  1.00  0.00    -0.273 OA
BRANCH  17  20
HETATM   20  C   UNL     1      43.442 -17.166   4.044  1.00  0.00     0.035 A 
HETATM   21  C   UNL     1      43.755 -17.238   5.403  1.00  0.00     0.036 A 
HETATM   22  C   UNL     1      44.316 -18.408   5.942  1.00  0.00    -0.059 A 
HETATM   23  C   UNL     1      44.644 -18.497   7.402  1.00  0.00     0.048 C 
HETATM   24  C   UNL     1      44.589 -19.492   5.097  1.00  0.00     0.013 A 
HETATM   25  C   UNL     1      44.281 -19.434   3.735  1.00  0.00    -0.059 A 
HETATM   26  C   UNL     1      43.714 -18.264   3.217  1.00  0.00     0.036 A 
HETATM   27  C   UNL     1      44.590 -20.601   2.842  1.00  0.00     0.048 C 
ENDBRANCH  17  20
ENDBRANCH  15  16
ENDBRANCH   1  15
TORSDOF 3
ENDMDL
MODEL 8
REMARK VINA RESULT:      -7.6      2.354      7.544
REMARK  3 active torsions:
REMARK  status: ('A' for Active; 'I' for Inactive)
REMARK    1  A    between atoms: C_4  and  N_5 
REMARK       I    between atoms: N_5  and  C_6 
REMARK    2  A    between atoms: C_6  and  C_7 
REMARK    3  A    between atoms: C_7  and  C_8 
ROOT
HETATM    1  C   UNL     1      41.691 -14.889   3.715  1.00  0.00     0.286 C 
HETATM    2  N   UNL     1      40.793 -16.130   3.504  1.00  0.00    -0.056 N 
HETATM    3  H   UNL     1      40.132 -16.123   4.297  1.00  0.00     0.278 HD
HETATM    4  H   UNL     1      40.205 -16.005   2.669  1.00  0.00     0.278 HD
HETATM    5  C   UNL     1      41.477 -17.486   3.500  1.00  0.00     0.209 C 
HETATM    6  C   UNL     1      42.532 -17.578   4.640  1.00  0.00     0.115 C 
HETATM    7  N   UNL     1      43.305 -16.357   4.862  1.00  0.00    -0.353 N 
HETATM    8  C   UNL     1      42.690 -15.128   4.855  1.00  0.00     0.249 C 
HETATM    9  O   UNL     1      42.998 -14.282   5.683  1.00  0.00    -0.271 OA
HETATM   10  C   UNL     1      41.961 -17.832   2.087  1.00  0.00     0.035 C 
HETATM   11  C   UNL     1      42.904 -19.029   2.053  1.00  0.00     0.002 C 
HETATM   12  C   UNL     1      44.035 -18.873   3.061  1.00  0.00     0.002 C 
HETATM   13  C   UNL     1      43.473 -18.772   4.475  1.00  0.00     0.027 C 
HETATM   14  H   UNL     1      43.971 -16.398   5.634  1.00  0.00     0.163 HD
ENDROOT
BRANCH   1  15
HETATM   15  C   UNL     1      42.440 -14.561   2.426  1.00  0.00     0.146 C 
BRANCH  15  16
HETATM   16  C   UNL     1      41.475 -14.362   1.279  1.00  0.00     0.224 C 
HETATM   17  N   UNL     1      41.971 -14.904   0.108  1.00  0.00    -0.327 N 
HETATM   18  H   UNL     1      42.719 -15.582   0.176  1.00  0.00     0.169 HD
HETATM   19  O   UNL     1      40.407 -13.795   1.446  1.00  0.00    -0.273 OA
BRANCH  17  20
HETATM   20  C   UNL     1      41.577 -14.592  -1.208  1.00  0.00     0.035 A 
HETATM   21  C   UNL     1      40.682 -15.364  -1.950  1.00  0.00     0.036 A 
HETATM   22  C   UNL     1      40.254 -14.933  -3.217  1.00  0.00    -0.059 A 
HETATM   23  C   UNL     1      39.284 -15.750  -4.017  1.00  0.00     0.048 C 
HETATM   24  C   UNL     1      40.757 -13.736  -3.742  1.00  0.00     0.013 A 
HETATM   25  C   UNL     1      41.654 -12.952  -3.010  1.00  0.00    -0.059 A 
HETATM   26  C   UNL     1      42.063 -13.394  -1.746  1.00  0.00     0.036 A 
HETATM   27  C   UNL     1      42.192 -11.677  -3.593  1.00  0.00     0.048 C 
ENDBRANCH  17  20
ENDBRANCH  15  16
ENDBRANCH   1  15
TORSDOF 3
ENDMDL
MODEL 9
REMARK VINA RESULT:      -7.5      2.634      7.823
REMARK  3 active torsions:
REMARK  status: ('A' for Active; 'I' for Inactive)
REMARK    1  A    between atoms: C_4  and  N_5 
REMARK       I    between atoms: N_5  and  C_6 
REMARK    2  A    between atoms: C_6  and  C_7 
REMARK    3  A    between atoms: C_7  and  C_8 
ROOT
HETATM    1  C   UNL     1      40.627 -15.485   3.417  1.00  0.00     0.286 C 
HETATM    2  N   UNL     1      40.759 -17.024   3.492  1.00  0.00    -0.056 N 
HETATM    3  H   UNL     1      39.795 -17.372   3.609  1.00  0.00     0.278 HD
HETATM    4  H   UNL     1      41.067 -17.399   2.584  1.00  0.00     0.278 HD
HETATM    5  C   UNL     1      41.585 -17.592   4.633  1.00  0.00     0.209 C 
HETATM    6  C   UNL     1      41.267 -16.856   5.967  1.00  0.00     0.115 C 
HETATM    7  N   UNL     1      41.068 -15.414   5.841  1.00  0.00    -0.353 N 
HETATM    8  C   UNL     1      40.330 -14.896   4.802  1.00  0.00     0.249 C 
HETATM    9  O   UNL     1      39.548 -13.979   5.003  1.00  0.00    -0.271 OA
HETATM   10  C   UNL     1      43.062 -17.674   4.230  1.00  0.00     0.035 C 
HETATM   11  C   UNL     1      43.989 -17.956   5.406  1.00  0.00     0.002 C 
HETATM   12  C   UNL     1      43.729 -16.998   6.561  1.00  0.00     0.002 C 
HETATM   13  C   UNL     1      42.296 -17.151   7.060  1.00  0.00     0.027 C 
HETATM   14  H   UNL     1      40.821 -14.931   6.706  1.00  0.00     0.163 HD
ENDROOT
BRANCH   1  15
HETATM   15  C   UNL     1      41.909 -14.877   2.856  1.00  0.00     0.146 C 
BRANCH  15  16
HETATM   16  C   UNL     1      42.101 -15.268   1.407  1.00  0.00     0.224 C 
HETATM   17  N   UNL     1      41.961 -14.175   0.571  1.00  0.00    -0.327 N 
HETATM   18  H   UNL     1      42.037 -13.252   0.978  1.00  0.00     0.169 HD
HETATM   19  O   UNL     1      42.355 -16.420   1.094  1.00  0.00    -0.273 OA
BRANCH  17  20
HETATM   20  C   UNL     1      41.682 -14.189  -0.808  1.00  0.00     0.035 A 
HETATM   21  C   UNL     1      40.925 -15.181  -1.435  1.00  0.00     0.036 A 
HETATM   22  C   UNL     1      40.597 -15.070  -2.796  1.00  0.00    -0.059 A 
HETATM   23  C   UNL     1      39.776 -16.126  -3.474  1.00  0.00     0.048 C 
HETATM   24  C   UNL     1      41.063 -13.970  -3.528  1.00  0.00     0.013 A 
HETATM   25  C   UNL     1      41.820 -12.969  -2.914  1.00  0.00    -0.059 A 
HETATM   26  C   UNL     1      42.131 -13.092  -1.555  1.00  0.00     0.036 A 
HETATM   27  C   UNL     1      42.321 -11.803  -3.717  1.00  0.00     0.048 C 
ENDBRANCH  17  20
ENDBRANCH  15  16
ENDBRANCH   1  15
TORSDOF 3
ENDMDL
MODEL 10
REMARK VINA RESULT:      -7.5      2.152      2.697
REMARK  3 active torsions:
REMARK  status: ('A' for Active; 'I' for Inactive)
REMARK    1  A    between atoms: C_4  and  N_5 
REMARK       I    between atoms: N_5  and  C_6 
REMARK    2  A    between atoms: C_6  and  C_7 
REMARK    3  A    between atoms: C_7  and  C_8 
ROOT
HETATM    1  C   UNL     1      41.391 -14.475   1.839  1.00  0.00     0.286 C 
HETATM    2  N   UNL     1      41.431 -13.290   0.847  1.00  0.00    -0.056 N 
HETATM    3  H   UNL     1      42.042 -12.587   1.290  1.00  0.00     0.278 HD
HETATM    4  H   UNL     1      41.923 -13.564  -0.014  1.00  0.00     0.278 HD
HETATM    5  C   UNL     1      40.111 -12.606   0.534  1.00  0.00     0.209 C 
HETATM    6  C   UNL     1      39.274 -12.400   1.829  1.00  0.00     0.115 C 
HETATM    7  N   UNL     1      39.328 -13.509   2.780  1.00  0.00    -0.353 N 
HETATM    8  C   UNL     1      40.519 -14.137   3.056  1.00  0.00     0.249 C 
HETATM    9  O   UNL     1      40.796 -14.450   4.205  1.00  0.00    -0.271 OA
HETATM   10  C   UNL     1      39.410 -13.313  -0.631  1.00  0.00     0.035 C 
HETATM   11  C   UNL     1      37.962 -12.874  -0.815  1.00  0.00     0.002 C 
HETATM   12  C   UNL     1      37.189 -12.951   0.495  1.00  0.00     0.002 C 
HETATM   13  C   UNL     1      37.818 -12.031   1.535  1.00  0.00     0.027 C 
HETATM   14  H   UNL     1      38.812 -13.364   3.648  1.00  0.00     0.163 HD
ENDROOT
BRANCH   1  15
HETATM   15  C   UNL     1      40.854 -15.723   1.143  1.00  0.00     0.146 C 
BRANCH  15  16
HETATM   16  C   UNL     1      41.898 -16.818   1.121  1.00  0.00     0.224 C 
HETATM   17  N   UNL     1      41.782 -17.642   2.225  1.00  0.00    -0.327 N 
HETATM   18  H   UNL     1      40.911 -17.628   2.740  1.00  0.00     0.169 HD
HETATM   19  O   UNL     1      42.700 -16.903   0.206  1.00  0.00    -0.273 OA
BRANCH  17  20
HETATM   20  C   UNL     1      42.766 -18.496   2.757  1.00  0.00     0.035 A 
HETATM   21  C   UNL     1      43.400 -18.277   3.981  1.00  0.00     0.036 A 
HETATM   22  C   UNL     1      44.294 -19.230   4.498  1.00  0.00    -0.059 A 
HETATM   23  C   UNL     1      44.970 -19.008   5.818  1.00  0.00     0.048 C 
HETATM   24  C   UNL     1      44.568 -20.388   3.759  1.00  0.00     0.013 A 
HETATM   25  C   UNL     1      43.941 -20.620   2.531  1.00  0.00    -0.059 A 
HETATM   26  C   UNL     1      43.047 -19.664   2.036  1.00  0.00     0.036 A 
HETATM   27  C   UNL     1      44.255 -21.861   1.747  1.00  0.00     0.048 C 
ENDBRANCH  17  20
ENDBRANCH  15  16
ENDBRANCH   1  15
TORSDOF 3
ENDMDL
