MODEL 1
REMARK VINA RESULT:      -8.2      0.000      0.000
REMARK  7 active torsions:
REMARK  status: ('A' for Active; 'I' for Inactive)
REMARK    1  A    between atoms: C_2  and  C_3 
REMARK    2  A    between atoms: C_3  and  N_4 
REMARK       I    between atoms: N_4  and  C_5 
REMARK    3  A    between atoms: C_5  and  C_6 
REMARK    4  A    between atoms: C_8  and  N_9 
REMARK       I    between atoms: N_9  and  C_10 
REMARK    5  A    between atoms: C_10  and  C_11 
REMARK    6  A    between atoms: C_13  and  O_14 
REMARK    7  A    between atoms: O_14  and  C_15 
ROOT
HETATM    1  N   UNL     1      43.964 -15.002   7.477  1.00  0.00    -0.323 N 
HETATM    2  C   UNL     1      44.656 -13.941   6.918  1.00  0.00     0.256 C 
HETATM    3  O   UNL     1      44.936 -13.827   5.726  1.00  0.00    -0.267 OA
HETATM    4  H   UNL     1      43.963 -15.100   8.482  1.00  0.00     0.169 HD
ENDROOT
BRANCH   1   5
HETATM    5  C   UNL     1      43.323 -16.046   6.766  1.00  0.00     0.035 A 
HETATM    6  C   UNL     1      43.931 -17.274   6.498  1.00  0.00     0.046 A 
HETATM    7  C   UNL     1      43.242 -18.284   5.811  1.00  0.00     0.034 A 
HETATM    8  C   UNL     1      41.950 -18.041   5.337  1.00  0.00     0.017 A 
HETATM    9  C   UNL     1      41.345 -16.807   5.575  1.00  0.00     0.003 A 
HETATM   10  C   UNL     1      42.026 -15.817   6.289  1.00  0.00     0.029 A 
BRANCH   7  11
HETATM   11  C   UNL     1      43.871 -19.610   5.549  1.00  0.00     0.251 C 
HETATM   12  N   UNL     1      44.338 -19.816   4.266  1.00  0.00    -0.357 N 
HETATM   13  H   UNL     1      44.446 -19.014   3.658  1.00  0.00     0.162 HD
HETATM   14  O   UNL     1      43.977 -20.433   6.450  1.00  0.00    -0.268 OA
BRANCH  12  15
HETATM   15  C   UNL     1      45.033 -21.031   3.898  1.00  0.00     0.122 C 
BRANCH  15  16
HETATM   16  C   UNL     1      44.389 -21.711   2.694  1.00  0.00     0.015 C 
HETATM   17  C   UNL     1      43.552 -20.753   1.858  1.00  0.00     0.006 C 
ENDBRANCH  15  16
ENDBRANCH  12  15
ENDBRANCH   7  11
ENDBRANCH   1   5
BRANCH   2  18
HETATM   18  C   UNL     1      45.117 -12.856   7.838  1.00  0.00     0.037 A 
HETATM   19  C   UNL     1      44.285 -12.195   8.740  1.00  0.00     0.075 A 
HETATM   20  C   UNL     1      44.828 -11.157   9.477  1.00  0.00     0.165 A 
HETATM   21  N   UNL     1      46.109 -10.748   9.388  1.00  0.00    -0.237 NA
HETATM   22  C   UNL     1      46.897 -11.407   8.519  1.00  0.00     0.120 A 
HETATM   23  C   UNL     1      46.455 -12.452   7.732  1.00  0.00     0.036 A 
BRANCH  20  24
HETATM   24  O   UNL     1      43.987 -10.512  10.365  1.00  0.00    -0.329 OA
BRANCH  24  25
HETATM   25  C   UNL     1      42.950 -11.335  10.954  1.00  0.00     0.130 C 
HETATM   26  C   UNL     1      41.606 -10.660  11.326  1.00  0.00     0.032 C 
HETATM   27  C   UNL     1      42.138 -10.493  12.758  1.00  0.00     0.005 C 
HETATM   28  C   UNL     1      43.135 -11.625  12.464  1.00  0.00     0.032 C 
ENDBRANCH  24  25
ENDBRANCH  20  24
ENDBRANCH   2  18
TORSDOF 7
ENDMDL
MODEL 2
REMARK VINA RESULT:      -7.8      1.812      1.963
REMARK  7 active torsions:
REMARK  status: ('A' for Active; 'I' for Inactive)
REMARK    1  A    between atoms: C_2  and  C_3 
REMARK    2  A    between atoms: C_3  and  N_4 
REMARK       I    between atoms: N_4  and  C_5 
REMARK    3  A    between atoms: C_5  and  C_6 
REMARK    4  A    between atoms: C_8  and  N_9 
REMARK       I    between atoms: N_9  and  C_10 
REMARK    5  A    between atoms: C_10  and  C_11 
REMARK    6  A    between atoms: C_13  and  O_14 
REMARK    7  A    between atoms: O_14  and  C_15 
ROOT
HETATM    1  N   UNL     1      43.246 -13.834   6.367  1.00  0.00    -0.323 N 
HETATM    2  C   UNL     1      44.428 -14.036   7.060  1.00  0.00     0.256 C 
HETATM    3  O   UNL     1      45.096 -15.067   7.034  1.00  0.00    -0.267 OA
HETATM    4  H   UNL     1      42.675 -13.038   6.612  1.00  0.00     0.169 HD
ENDROOT
BRANCH   1   5
HETATM    5  C   UNL     1      42.692 -14.700   5.393  1.00  0.00     0.035 A 
HETATM    6  C   UNL     1      43.446 -15.640   4.687  1.00  0.00     0.046 A 
HETATM    7  C   UNL     1      42.842 -16.491   3.750  1.00  0.00     0.034 A 
HETATM    8  C   UNL     1      41.478 -16.361   3.476  1.00  0.00     0.017 A 
HETATM    9  C   UNL     1      40.722 -15.405   4.154  1.00  0.00     0.003 A 
HETATM   10  C   UNL     1      41.325 -14.583   5.111  1.00  0.00     0.029 A 
BRANCH   7  11
HETATM   11  C   UNL     1      43.634 -17.520   3.016  1.00  0.00     0.251 C 
HETATM   12  N   UNL     1      43.695 -18.768   3.604  1.00  0.00    -0.357 N 
HETATM   13  H   UNL     1      43.037 -18.987   4.341  1.00  0.00     0.162 HD
HETATM   14  O   UNL     1      44.160 -17.247   1.945  1.00  0.00    -0.268 OA
BRANCH  12  15
HETATM   15  C   UNL     1      44.371 -19.875   2.961  1.00  0.00     0.122 C 
BRANCH  15  16
HETATM   16  C   UNL     1      43.450 -20.623   2.002  1.00  0.00     0.015 C 
HETATM   17  C   UNL     1      44.052 -21.933   1.514  1.00  0.00     0.006 C 
ENDBRANCH  15  16
ENDBRANCH  12  15
ENDBRANCH   7  11
ENDBRANCH   1   5
BRANCH   2  18
HETATM   18  C   UNL     1      44.921 -12.920   7.925  1.00  0.00     0.037 A 
HETATM   19  C   UNL     1      44.100 -12.162   8.757  1.00  0.00     0.075 A 
HETATM   20  C   UNL     1      44.677 -11.107   9.444  1.00  0.00     0.165 A 
HETATM   21  N   UNL     1      45.979 -10.770   9.369  1.00  0.00    -0.237 NA
HETATM   22  C   UNL     1      46.755 -11.522   8.567  1.00  0.00     0.120 A 
HETATM   23  C   UNL     1      46.280 -12.591   7.834  1.00  0.00     0.036 A 
BRANCH  20  24
HETATM   24  O   UNL     1      43.847 -10.365  10.265  1.00  0.00    -0.329 OA
BRANCH  24  25
HETATM   25  C   UNL     1      44.012 -10.587  11.687  1.00  0.00     0.130 C 
HETATM   26  C   UNL     1      43.151 -11.688  12.358  1.00  0.00     0.032 C 
HETATM   27  C   UNL     1      42.145 -10.597  12.754  1.00  0.00     0.005 C 
HETATM   28  C   UNL     1      43.275  -9.567  12.590  1.00  0.00     0.032 C 
ENDBRANCH  24  25
ENDBRANCH  20  24
ENDBRANCH   2  18
TORSDOF 7
ENDMDL
MODEL 3
REMARK VINA RESULT:      -7.8      2.325      9.447
REMARK  7 active torsions:
REMARK  status: ('A' for Active; 'I' for Inactive)
REMARK    1  A    between atoms: C_2  and  C_3 
REMARK    2  A    between atoms: C_3  and  N_4 
REMARK       I    between atoms: N_4  and  C_5 
REMARK    3  A    between atoms: C_5  and  C_6 
REMARK    4  A    between atoms: C_8  and  N_9 
REMARK       I    between atoms: N_9  and  C_10 
REMARK    5  A    between atoms: C_10  and  C_11 
REMARK    6  A    between atoms: C_13  and  O_14 
REMARK    7  A    between atoms: O_14  and  C_15 
ROOT
HETATM    1  N   UNL     1      44.848 -14.554   6.793  1.00  0.00    -0.323 N 
HETATM    2  C   UNL     1      44.233 -15.735   7.172  1.00  0.00     0.256 C 
HETATM    3  O   UNL     1      43.896 -16.022   8.319  1.00  0.00    -0.267 OA
HETATM    4  H   UNL     1      45.264 -14.501   5.874  1.00  0.00     0.169 HD
ENDROOT
BRANCH   1   5
HETATM    5  C   UNL     1      45.047 -13.416   7.614  1.00  0.00     0.035 A 
HETATM    6  C   UNL     1      44.023 -12.816   8.350  1.00  0.00     0.046 A 
HETATM    7  C   UNL     1      44.279 -11.705   9.167  1.00  0.00     0.034 A 
HETATM    8  C   UNL     1      45.563 -11.155   9.203  1.00  0.00     0.017 A 
HETATM    9  C   UNL     1      46.586 -11.729   8.448  1.00  0.00     0.003 A 
HETATM   10  C   UNL     1      46.329 -12.857   7.662  1.00  0.00     0.029 A 
BRANCH   7  11
HETATM   11  C   UNL     1      43.199 -11.079   9.982  1.00  0.00     0.251 C 
HETATM   12  N   UNL     1      42.866 -11.734  11.151  1.00  0.00    -0.357 N 
HETATM   13  H   UNL     1      43.499 -12.440  11.506  1.00  0.00     0.162 HD
HETATM   14  O   UNL     1      42.682 -10.029   9.621  1.00  0.00    -0.268 OA
BRANCH  12  15
HETATM   15  C   UNL     1      41.884 -11.196  12.068  1.00  0.00     0.122 C 
BRANCH  15  16
HETATM   16  C   UNL     1      42.507 -10.816  13.408  1.00  0.00     0.015 C 
HETATM   17  C   UNL     1      43.365  -9.562  13.321  1.00  0.00     0.006 C 
ENDBRANCH  15  16
ENDBRANCH  12  15
ENDBRANCH   7  11
ENDBRANCH   1   5
BRANCH   2  18
HETATM   18  C   UNL     1      43.975 -16.752   6.106  1.00  0.00     0.037 A 
HETATM   19  C   UNL     1      42.973 -16.633   5.145  1.00  0.00     0.075 A 
HETATM   20  C   UNL     1      42.796 -17.688   4.265  1.00  0.00     0.165 A 
HETATM   21  N   UNL     1      43.533 -18.815   4.269  1.00  0.00    -0.237 NA
HETATM   22  C   UNL     1      44.503 -18.903   5.198  1.00  0.00     0.120 A 
HETATM   23  C   UNL     1      44.759 -17.913   6.126  1.00  0.00     0.036 A 
BRANCH  20  24
HETATM   24  O   UNL     1      41.796 -17.553   3.319  1.00  0.00    -0.329 OA
BRANCH  24  25
HETATM   25  C   UNL     1      42.183 -17.843   1.954  1.00  0.00     0.130 C 
HETATM   26  C   UNL     1      43.256 -16.942   1.293  1.00  0.00     0.032 C 
HETATM   27  C   UNL     1      42.118 -16.111   0.681  1.00  0.00     0.005 C 
HETATM   28  C   UNL     1      41.196 -17.326   0.878  1.00  0.00     0.032 C 
ENDBRANCH  24  25
ENDBRANCH  20  24
ENDBRANCH   2  18
TORSDOF 7
ENDMDL
MODEL 4
REMARK VINA RESULT:      -7.7      1.593      9.734
REMARK  7 active torsions:
REMARK  status: ('A' for Active; 'I' for Inactive)
REMARK    1  A    between atoms: C_2  and  C_3 
REMARK    2  A    between atoms: C_3  and  N_4 
REMARK       I    between atoms: N_4  and  C_5 
REMARK    3  A    between atoms: C_5  and  C_6 
REMARK    4  A    between atoms: C_8  and  N_9 
REMARK       I    between atoms: N_9  and  C_10 
REMARK    5  A    between atoms: C_10  and  C_11 
REMARK    6  A    between atoms: C_13  and  O_14 
REMARK    7  A    between atoms: O_14  and  C_15 
ROOT
HETATM    1  N   UNL     1      44.209 -14.217   6.666  1.00  0.00    -0.323 N 
HETATM    2  C   UNL     1      43.789 -15.489   7.017  1.00  0.00     0.256 C 
HETATM    3  O   UNL     1      43.942 -16.006   8.121  1.00  0.00    -0.267 OA
HETATM    4  H   UNL     1      44.219 -13.966   5.688  1.00  0.00     0.169 HD
ENDROOT
BRANCH   1   5
HETATM    5  C   UNL     1      44.734 -13.240   7.547  1.00  0.00     0.035 A 
HETATM    6  C   UNL     1      43.952 -12.551   8.477  1.00  0.00     0.046 A 
HETATM    7  C   UNL     1      44.527 -11.609   9.343  1.00  0.00     0.034 A 
HETATM    8  C   UNL     1      45.888 -11.313   9.238  1.00  0.00     0.017 A 
HETATM    9  C   UNL     1      46.672 -11.975   8.292  1.00  0.00     0.003 A 
HETATM   10  C   UNL     1      46.097 -12.936   7.454  1.00  0.00     0.029 A 
BRANCH   7  11
HETATM   11  C   UNL     1      43.706 -10.893  10.362  1.00  0.00     0.251 C 
HETATM   12  N   UNL     1      42.444 -11.405  10.591  1.00  0.00    -0.357 N 
HETATM   13  H   UNL     1      42.233 -12.336  10.254  1.00  0.00     0.162 HD
HETATM   14  O   UNL     1      44.167  -9.929  10.961  1.00  0.00    -0.268 OA
BRANCH  12  15
HETATM   15  C   UNL     1      41.573 -10.848  11.603  1.00  0.00     0.122 C 
BRANCH  15  16
HETATM   16  C   UNL     1      41.892 -11.395  12.991  1.00  0.00     0.015 C 
HETATM   17  C   UNL     1      42.313 -10.306  13.968  1.00  0.00     0.006 C 
ENDBRANCH  15  16
ENDBRANCH  12  15
ENDBRANCH   7  11
ENDBRANCH   1   5
BRANCH   2  18
HETATM   18  C   UNL     1      43.113 -16.308   5.963  1.00  0.00     0.037 A 
HETATM   19  C   UNL     1      43.521 -17.587   5.592  1.00  0.00     0.075 A 
HETATM   20  C   UNL     1      42.851 -18.200   4.546  1.00  0.00     0.165 A 
HETATM   21  N   UNL     1      41.827 -17.646   3.870  1.00  0.00    -0.237 NA
HETATM   22  C   UNL     1      41.442 -16.414   4.252  1.00  0.00     0.120 A 
HETATM   23  C   UNL     1      42.045 -15.713   5.277  1.00  0.00     0.036 A 
BRANCH  20  24
HETATM   24  O   UNL     1      43.271 -19.468   4.191  1.00  0.00    -0.329 OA
BRANCH  24  25
HETATM   25  C   UNL     1      44.065 -19.549   2.982  1.00  0.00     0.130 C 
HETATM   26  C   UNL     1      43.399 -20.133   1.710  1.00  0.00     0.032 C 
HETATM   27  C   UNL     1      44.006 -21.497   2.072  1.00  0.00     0.005 C 
HETATM   28  C   UNL     1      45.042 -20.750   2.929  1.00  0.00     0.032 C 
ENDBRANCH  24  25
ENDBRANCH  20  24
ENDBRANCH   2  18
TORSDOF 7
ENDMDL
MODEL 5
REMARK VINA RESULT:      -7.5      5.109      8.464
REMARK  7 active torsions:
REMARK  status: ('A' for Active; 'I' for Inactive)
REMARK    1  A    between atoms: C_2  and  C_3 
REMARK    2  A    between atoms: C_3  and  N_4 
REMARK       I    between atoms: N_4  and  C_5 
REMARK    3  A    between atoms: C_5  and  C_6 
REMARK    4  A    between atoms: C_8  and  N_9 
REMARK       I    between atoms: N_9  and  C_10 
REMARK    5  A    between atoms: C_10  and  C_11 
REMARK    6  A    between atoms: C_13  and  O_14 
REMARK    7  A    between atoms: O_14  and  C_15 
ROOT
HETATM    1  N   UNL     1      42.893 -15.589   3.208  1.00  0.00    -0.323 N 
HETATM    2  C   UNL     1      41.577 -15.450   2.799  1.00  0.00     0.256 C 
HETATM    3  O   UNL     1      40.613 -16.014   3.311  1.00  0.00    -0.267 OA
HETATM    4  H   UNL     1      43.625 -15.248   2.601  1.00  0.00     0.169 HD
ENDROOT
BRANCH   1   5
HETATM    5  C   UNL     1      43.338 -16.263   4.372  1.00  0.00     0.035 A 
HETATM    6  C   UNL     1      43.470 -17.652   4.447  1.00  0.00     0.046 A 
HETATM    7  C   UNL     1      43.938 -18.268   5.617  1.00  0.00     0.034 A 
HETATM    8  C   UNL     1      44.223 -17.490   6.742  1.00  0.00     0.017 A 
HETATM    9  C   UNL     1      44.066 -16.105   6.686  1.00  0.00     0.003 A 
HETATM   10  C   UNL     1      43.630 -15.496   5.505  1.00  0.00     0.029 A 
BRANCH   7  11
HETATM   11  C   UNL     1      44.114 -19.747   5.695  1.00  0.00     0.251 C 
HETATM   12  N   UNL     1      44.671 -20.349   4.584  1.00  0.00    -0.357 N 
HETATM   13  H   UNL     1      45.134 -19.765   3.900  1.00  0.00     0.162 HD
HETATM   14  O   UNL     1      43.799 -20.354   6.711  1.00  0.00    -0.268 OA
BRANCH  12  15
HETATM   15  C   UNL     1      44.961 -21.767   4.557  1.00  0.00     0.122 C 
BRANCH  15  16
HETATM   16  C   UNL     1      44.479 -22.420   3.265  1.00  0.00     0.015 C 
HETATM   17  C   UNL     1      44.212 -21.408   2.161  1.00  0.00     0.006 C 
ENDBRANCH  15  16
ENDBRANCH  12  15
ENDBRANCH   7  11
ENDBRANCH   1   5
BRANCH   2  18
HETATM   18  C   UNL     1      41.310 -14.558   1.628  1.00  0.00     0.037 A 
HETATM   19  C   UNL     1      40.383 -14.847   0.629  1.00  0.00     0.075 A 
HETATM   20  C   UNL     1      40.293 -13.970  -0.439  1.00  0.00     0.165 A 
HETATM   21  N   UNL     1      41.034 -12.853  -0.572  1.00  0.00    -0.237 NA
HETATM   22  C   UNL     1      41.914 -12.589   0.410  1.00  0.00     0.120 A 
HETATM   23  C   UNL     1      42.088 -13.399   1.515  1.00  0.00     0.036 A 
BRANCH  20  24
HETATM   24  O   UNL     1      39.369 -14.273  -1.422  1.00  0.00    -0.329 OA
BRANCH  24  25
HETATM   25  C   UNL     1      39.905 -14.423  -2.760  1.00  0.00     0.130 C 
HETATM   26  C   UNL     1      39.030 -15.137  -3.821  1.00  0.00     0.032 C 
HETATM   27  C   UNL     1      39.772 -16.441  -3.491  1.00  0.00     0.005 C 
HETATM   28  C   UNL     1      40.916 -15.586  -2.923  1.00  0.00     0.032 C 
ENDBRANCH  24  25
ENDBRANCH  20  24
ENDBRANCH   2  18
TORSDOF 7
ENDMDL
MODEL 6
REMARK VINA RESULT:      -7.5      5.031      8.238
REMARK  7 active torsions:
REMARK  status: ('A' for Active; 'I' for Inactive)
REMARK    1  A    between atoms: C_2  and  C_3 
REMARK    2  A    between atoms: C_3  and  N_4 
REMARK       I    between atoms: N_4  and  C_5 
REMARK    3  A    between atoms: C_5  and  C_6 
REMARK    4  A    between atoms: C_8  and  N_9 
REMARK       I    between atoms: N_9  and  C_10 
REMARK    5  A    between atoms: C_10  and  C_11 
REMARK    6  A    between atoms: C_13  and  O_14 
REMARK    7  A    between atoms: O_14  and  C_15 
ROOT
HETATM    1  N   UNL     1      41.857 -16.036   4.012  1.00  0.00    -0.323 N 
HETATM    2  C   UNL     1      42.152 -15.677   2.708  1.00  0.00     0.256 C 
HETATM    3  O   UNL     1      43.271 -15.708   2.200  1.00  0.00    -0.267 OA
HETATM    4  H   UNL     1      40.955 -15.783   4.389  1.00  0.00     0.169 HD
ENDROOT
BRANCH   1   5
HETATM    5  C   UNL     1      42.746 -16.648   4.930  1.00  0.00     0.035 A 
HETATM    6  C   UNL     1      42.913 -18.032   5.025  1.00  0.00     0.046 A 
HETATM    7  C   UNL     1      43.825 -18.585   5.935  1.00  0.00     0.034 A 
HETATM    8  C   UNL     1      44.536 -17.748   6.799  1.00  0.00     0.017 A 
HETATM    9  C   UNL     1      44.354 -16.367   6.731  1.00  0.00     0.003 A 
HETATM   10  C   UNL     1      43.467 -15.820   5.799  1.00  0.00     0.029 A 
BRANCH   7  11
HETATM   11  C   UNL     1      44.034 -20.060   6.021  1.00  0.00     0.251 C 
HETATM   12  N   UNL     1      44.670 -20.644   4.943  1.00  0.00    -0.357 N 
HETATM   13  H   UNL     1      45.156 -20.045   4.287  1.00  0.00     0.162 HD
HETATM   14  O   UNL     1      43.676 -20.678   7.015  1.00  0.00    -0.268 OA
BRANCH  12  15
HETATM   15  C   UNL     1      44.997 -22.054   4.930  1.00  0.00     0.122 C 
BRANCH  15  16
HETATM   16  C   UNL     1      44.629 -22.710   3.603  1.00  0.00     0.015 C 
HETATM   17  C   UNL     1      44.285 -21.694   2.522  1.00  0.00     0.006 C 
ENDBRANCH  15  16
ENDBRANCH  12  15
ENDBRANCH   7  11
ENDBRANCH   1   5
BRANCH   2  18
HETATM   18  C   UNL     1      41.024 -15.194   1.853  1.00  0.00     0.037 A 
HETATM   19  C   UNL     1      41.195 -14.582   0.613  1.00  0.00     0.075 A 
HETATM   20  C   UNL     1      40.066 -14.112  -0.036  1.00  0.00     0.165 A 
HETATM   21  N   UNL     1      38.812 -14.215   0.447  1.00  0.00    -0.237 NA
HETATM   22  C   UNL     1      38.669 -14.819   1.641  1.00  0.00     0.120 A 
HETATM   23  C   UNL     1      39.729 -15.317   2.373  1.00  0.00     0.036 A 
BRANCH  20  24
HETATM   24  O   UNL     1      40.255 -13.507  -1.265  1.00  0.00    -0.329 OA
BRANCH  24  25
HETATM   25  C   UNL     1      41.519 -13.791  -1.913  1.00  0.00     0.130 C 
HETATM   26  C   UNL     1      42.514 -12.621  -2.117  1.00  0.00     0.032 C 
HETATM   27  C   UNL     1      41.947 -12.445  -3.534  1.00  0.00     0.005 C 
HETATM   28  C   UNL     1      41.444 -13.895  -3.457  1.00  0.00     0.032 C 
ENDBRANCH  24  25
ENDBRANCH  20  24
ENDBRANCH   2  18
TORSDOF 7
ENDMDL
MODEL 7
REMARK VINA RESULT:      -7.3      6.713      9.510
REMARK  7 active torsions:
REMARK  status: ('A' for Active; 'I' for Inactive)
REMARK    1  A    between atoms: C_2  and  C_3 
REMARK    2  A    between atoms: C_3  and  N_4 
REMARK       I    between atoms: N_4  and  C_5 
REMARK    3  A    between atoms: C_5  and  C_6 
REMARK    4  A    between atoms: C_8  and  N_9 
REMARK       I    between atoms: N_9  and  C_10 
REMARK    5  A    between atoms: C_10  and  C_11 
REMARK    6  A    between atoms: C_13  and  O_14 
REMARK    7  A    between atoms: O_14  and  C_15 
ROOT
HETATM    1  N   UNL     1      41.131 -15.972   1.071  1.00  0.00    -0.323 N 
HETATM    2  C   UNL     1      41.526 -14.780   0.487  1.00  0.00     0.256 C 
HETATM    3  O   UNL     1      42.031 -13.832   1.084  1.00  0.00    -0.267 OA
HETATM    4  H   UNL     1      40.547 -16.599   0.537  1.00  0.00     0.169 HD
ENDROOT
BRANCH   1   5
HETATM    5  C   UNL     1      41.384 -16.370   2.406  1.00  0.00     0.035 A 
HETATM    6  C   UNL     1      42.204 -17.450   2.740  1.00  0.00     0.046 A 
HETATM    7  C   UNL     1      42.441 -17.787   4.081  1.00  0.00     0.034 A 
HETATM    8  C   UNL     1      41.805 -17.070   5.097  1.00  0.00     0.017 A 
HETATM    9  C   UNL     1      40.961 -16.007   4.773  1.00  0.00     0.003 A 
HETATM   10  C   UNL     1      40.756 -15.657   3.435  1.00  0.00     0.029 A 
BRANCH   7  11
HETATM   11  C   UNL     1      43.341 -18.918   4.447  1.00  0.00     0.251 C 
HETATM   12  N   UNL     1      43.976 -19.551   3.396  1.00  0.00    -0.357 N 
HETATM   13  H   UNL     1      43.991 -19.091   2.494  1.00  0.00     0.162 HD
HETATM   14  O   UNL     1      43.507 -19.222   5.622  1.00  0.00    -0.268 OA
BRANCH  12  15
HETATM   15  C   UNL     1      44.930 -20.616   3.618  1.00  0.00     0.122 C 
BRANCH  15  16
HETATM   16  C   UNL     1      44.473 -21.928   2.987  1.00  0.00     0.015 C 
HETATM   17  C   UNL     1      43.788 -21.725   1.643  1.00  0.00     0.006 C 
ENDBRANCH  15  16
ENDBRANCH  12  15
ENDBRANCH   7  11
ENDBRANCH   1   5
BRANCH   2  18
HETATM   18  C   UNL     1      41.302 -14.625  -0.984  1.00  0.00     0.037 A 
HETATM   19  C   UNL     1      41.300 -13.398  -1.645  1.00  0.00     0.075 A 
HETATM   20  C   UNL     1      41.002 -13.394  -2.997  1.00  0.00     0.165 A 
HETATM   21  N   UNL     1      40.722 -14.497  -3.718  1.00  0.00    -0.237 NA
HETATM   22  C   UNL     1      40.741 -15.672  -3.062  1.00  0.00     0.120 A 
HETATM   23  C   UNL     1      41.020 -15.786  -1.715  1.00  0.00     0.036 A 
BRANCH  20  24
HETATM   24  O   UNL     1      41.003 -12.168  -3.635  1.00  0.00    -0.329 OA
BRANCH  24  25
HETATM   25  C   UNL     1      42.307 -11.575  -3.849  1.00  0.00     0.130 C 
HETATM   26  C   UNL     1      42.686 -10.324  -3.017  1.00  0.00     0.032 C 
HETATM   27  C   UNL     1      42.215  -9.454  -4.193  1.00  0.00     0.005 C 
HETATM   28  C   UNL     1      42.410 -10.675  -5.106  1.00  0.00     0.032 C 
ENDBRANCH  24  25
ENDBRANCH  20  24
ENDBRANCH   2  18
TORSDOF 7
ENDMDL
MODEL 8
REMARK VINA RESULT:      -7.3      5.980      9.162
REMARK  7 active torsions:
REMARK  status: ('A' for Active; 'I' for Inactive)
REMARK    1  A    between atoms: C_2  and  C_3 
REMARK    2  A    between atoms: C_3  and  N_4 
REMARK       I    between atoms: N_4  and  C_5 
REMARK    3  A    between atoms: C_5  and  C_6 
REMARK    4  A    between atoms: C_8  and  N_9 
REMARK       I    between atoms: N_9  and  C_10 
REMARK    5  A    between atoms: C_10  and  C_11 
REMARK    6  A    between atoms: C_13  and  O_14 
REMARK    7  A    between atoms: O_14  and  C_15 
ROOT
HETATM    1  N   UNL     1      42.849 -16.955   0.745  1.00  0.00    -0.323 N 
HETATM    2  C   UNL     1      41.622 -16.322   0.642  1.00  0.00     0.256 C 
HETATM    3  O   UNL     1      40.652 -16.536   1.365  1.00  0.00    -0.267 OA
HETATM    4  H   UNL     1      43.506 -16.857  -0.016  1.00  0.00     0.169 HD
ENDROOT
BRANCH   1   5
HETATM    5  C   UNL     1      43.253 -17.826   1.786  1.00  0.00     0.035 A 
HETATM    6  C   UNL     1      43.511 -17.392   3.089  1.00  0.00     0.046 A 
HETATM    7  C   UNL     1      43.885 -18.302   4.089  1.00  0.00     0.034 A 
HETATM    8  C   UNL     1      44.059 -19.650   3.768  1.00  0.00     0.017 A 
HETATM    9  C   UNL     1      43.833 -20.088   2.463  1.00  0.00     0.003 A 
HETATM   10  C   UNL     1      43.428 -19.180   1.479  1.00  0.00     0.029 A 
BRANCH   7  11
HETATM   11  C   UNL     1      44.129 -17.853   5.490  1.00  0.00     0.251 C 
HETATM   12  N   UNL     1      43.774 -16.550   5.779  1.00  0.00    -0.357 N 
HETATM   13  H   UNL     1      43.172 -16.059   5.129  1.00  0.00     0.162 HD
HETATM   14  O   UNL     1      44.592 -18.630   6.316  1.00  0.00    -0.268 OA
BRANCH  12  15
HETATM   15  C   UNL     1      43.892 -16.012   7.117  1.00  0.00     0.122 C 
BRANCH  15  16
HETATM   16  C   UNL     1      44.429 -14.584   7.109  1.00  0.00     0.015 C 
HETATM   17  C   UNL     1      43.523 -13.621   6.354  1.00  0.00     0.006 C 
ENDBRANCH  15  16
ENDBRANCH  12  15
ENDBRANCH   7  11
ENDBRANCH   1   5
BRANCH   2  18
HETATM   18  C   UNL     1      41.455 -15.312  -0.449  1.00  0.00     0.037 A 
HETATM   19  C   UNL     1      41.702 -13.950  -0.292  1.00  0.00     0.075 A 
HETATM   20  C   UNL     1      41.431 -13.117  -1.365  1.00  0.00     0.165 A 
HETATM   21  N   UNL     1      40.955 -13.537  -2.553  1.00  0.00    -0.237 NA
HETATM   22  C   UNL     1      40.735 -14.858  -2.686  1.00  0.00     0.120 A 
HETATM   23  C   UNL     1      40.965 -15.773  -1.678  1.00  0.00     0.036 A 
BRANCH  20  24
HETATM   24  O   UNL     1      41.681 -11.769  -1.189  1.00  0.00    -0.329 OA
BRANCH  24  25
HETATM   25  C   UNL     1      42.902 -11.275  -1.792  1.00  0.00     0.130 C 
HETATM   26  C   UNL     1      43.630 -10.094  -1.103  1.00  0.00     0.032 C 
HETATM   27  C   UNL     1      42.898  -9.141  -2.060  1.00  0.00     0.005 C 
HETATM   28  C   UNL     1      42.689 -10.335  -3.006  1.00  0.00     0.032 C 
ENDBRANCH  24  25
ENDBRANCH  20  24
ENDBRANCH   2  18
TORSDOF 7
ENDMDL
MODEL 9
REMARK VINA RESULT:      -7.3      2.732      3.413
REMARK  7 active torsions:
REMARK  status: ('A' for Active; 'I' for Inactive)
REMARK    1  A    between atoms: C_2  and  C_3 
REMARK    2  A    between atoms: C_3  and  N_4 
REMARK       I    between atoms: N_4  and  C_5 
REMARK    3  A    between atoms: C_5  and  C_6 
REMARK    4  A    between atoms: C_8  and  N_9 
REMARK       I    between atoms: N_9  and  C_10 
REMARK    5  A    between atoms: C_10  and  C_11 
REMARK    6  A    between atoms: C_13  and  O_14 
REMARK    7  A    between atoms: O_14  and  C_15 
ROOT
HETATM    1  N   UNL     1      42.891 -14.257   5.043  1.00  0.00    -0.323 N 
HETATM    2  C   UNL     1      41.699 -13.554   4.998  1.00  0.00     0.256 C 
HETATM    3  O   UNL     1      40.795 -13.743   4.186  1.00  0.00    -0.267 OA
HETATM    4  H   UNL     1      43.643 -13.893   5.610  1.00  0.00     0.169 HD
ENDROOT
BRANCH   1   5
HETATM    5  C   UNL     1      43.209 -15.408   4.282  1.00  0.00     0.035 A 
HETATM    6  C   UNL     1      43.392 -16.672   4.848  1.00  0.00     0.046 A 
HETATM    7  C   UNL     1      43.683 -17.785   4.046  1.00  0.00     0.034 A 
HETATM    8  C   UNL     1      43.848 -17.620   2.668  1.00  0.00     0.017 A 
HETATM    9  C   UNL     1      43.697 -16.357   2.097  1.00  0.00     0.003 A 
HETATM   10  C   UNL     1      43.375 -15.258   2.900  1.00  0.00     0.029 A 
BRANCH   7  11
HETATM   11  C   UNL     1      43.847 -19.144   4.638  1.00  0.00     0.251 C 
HETATM   12  N   UNL     1      44.479 -20.078   3.841  1.00  0.00    -0.357 N 
HETATM   13  H   UNL     1      44.992 -19.754   3.031  1.00  0.00     0.162 HD
HETATM   14  O   UNL     1      43.457 -19.374   5.776  1.00  0.00    -0.268 OA
BRANCH  12  15
HETATM   15  C   UNL     1      44.764 -21.414   4.321  1.00  0.00     0.122 C 
BRANCH  15  16
HETATM   16  C   UNL     1      44.559 -22.464   3.233  1.00  0.00     0.015 C 
HETATM   17  C   UNL     1      44.148 -21.855   1.900  1.00  0.00     0.006 C 
ENDBRANCH  15  16
ENDBRANCH  12  15
ENDBRANCH   7  11
ENDBRANCH   1   5
BRANCH   2  18
HETATM   18  C   UNL     1      41.502 -12.464   6.002  1.00  0.00     0.037 A 
HETATM   19  C   UNL     1      42.497 -12.017   6.870  1.00  0.00     0.075 A 
HETATM   20  C   UNL     1      42.154 -11.054   7.803  1.00  0.00     0.165 A 
HETATM   21  N   UNL     1      40.926 -10.513   7.923  1.00  0.00    -0.237 NA
HETATM   22  C   UNL     1      39.984 -10.950   7.068  1.00  0.00     0.120 A 
HETATM   23  C   UNL     1      40.218 -11.911   6.105  1.00  0.00     0.036 A 
BRANCH  20  24
HETATM   24  O   UNL     1      43.154 -10.624   8.656  1.00  0.00    -0.329 OA
BRANCH  24  25
HETATM   25  C   UNL     1      44.026 -11.661   9.170  1.00  0.00     0.130 C 
HETATM   26  C   UNL     1      44.093 -11.862  10.705  1.00  0.00     0.032 C 
HETATM   27  C   UNL     1      45.335 -10.958  10.724  1.00  0.00     0.005 C 
HETATM   28  C   UNL     1      45.525 -11.274   9.232  1.00  0.00     0.032 C 
ENDBRANCH  24  25
ENDBRANCH  20  24
ENDBRANCH   2  18
TORSDOF 7
ENDMDL
MODEL 10
REMARK VINA RESULT:      -7.2      6.934      9.681
REMARK  7 active torsions:
REMARK  status: ('A' for Active; 'I' for Inactive)
REMARK    1  A    between atoms: C_2  and  C_3 
REMARK    2  A    between atoms: C_3  and  N_4 
REMARK       I    between atoms: N_4  and  C_5 
REMARK    3  A    between atoms: C_5  and  C_6 
REMARK    4  A    between atoms: C_8  and  N_9 
REMARK       I    between atoms: N_9  and  C_10 
REMARK    5  A    between atoms: C_10  and  C_11 
REMARK    6  A    between atoms: C_13  and  O_14 
REMARK    7  A    between atoms: O_14  and  C_15 
ROOT
HETATM    1  N   UNL     1      42.464 -16.163   0.271  1.00  0.00    -0.323 N 
HETATM    2  C   UNL     1      41.268 -15.501   0.049  1.00  0.00     0.256 C 
HETATM    3  O   UNL     1      40.341 -15.423   0.852  1.00  0.00    -0.267 OA
HETATM    4  H   UNL     1      43.070 -16.341  -0.517  1.00  0.00     0.169 HD
ENDROOT
BRANCH   1   5
HETATM    5  C   UNL     1      42.893 -16.717   1.502  1.00  0.00     0.035 A 
HETATM    6  C   UNL     1      43.229 -18.064   1.658  1.00  0.00     0.046 A 
HETATM    7  C   UNL     1      43.672 -18.557   2.894  1.00  0.00     0.034 A 
HETATM    8  C   UNL     1      43.725 -17.705   4.000  1.00  0.00     0.017 A 
HETATM    9  C   UNL     1      43.364 -16.364   3.861  1.00  0.00     0.003 A 
HETATM   10  C   UNL     1      42.955 -15.873   2.617  1.00  0.00     0.029 A 
BRANCH   7  11
HETATM   11  C   UNL     1      44.064 -19.986   3.062  1.00  0.00     0.251 C 
HETATM   12  N   UNL     1      44.715 -20.301   4.238  1.00  0.00    -0.357 N 
HETATM   13  H   UNL     1      44.685 -19.634   5.000  1.00  0.00     0.162 HD
HETATM   14  O   UNL     1      43.783 -20.810   2.200  1.00  0.00    -0.268 OA
BRANCH  12  15
HETATM   15  C   UNL     1      45.088 -21.662   4.557  1.00  0.00     0.122 C 
BRANCH  15  16
HETATM   16  C   UNL     1      44.461 -22.131   5.867  1.00  0.00     0.015 C 
HETATM   17  C   UNL     1      43.811 -20.995   6.645  1.00  0.00     0.006 C 
ENDBRANCH  15  16
ENDBRANCH  12  15
ENDBRANCH   7  11
ENDBRANCH   1   5
BRANCH   2  18
HETATM   18  C   UNL     1      41.079 -14.846  -1.283  1.00  0.00     0.037 A 
HETATM   19  C   UNL     1      41.193 -13.474  -1.497  1.00  0.00     0.075 A 
HETATM   20  C   UNL     1      40.916 -12.995  -2.766  1.00  0.00     0.165 A 
HETATM   21  N   UNL     1      40.552 -13.766  -3.809  1.00  0.00    -0.237 NA
HETATM   22  C   UNL     1      40.459 -15.089  -3.582  1.00  0.00     0.120 A 
HETATM   23  C   UNL     1      40.707 -15.669  -2.354  1.00  0.00     0.036 A 
BRANCH  20  24
HETATM   24  O   UNL     1      41.033 -11.631  -2.960  1.00  0.00    -0.329 OA
BRANCH  24  25
HETATM   25  C   UNL     1      42.353 -11.163  -3.331  1.00  0.00     0.130 C 
HETATM   26  C   UNL     1      42.823  -9.794  -2.780  1.00  0.00     0.032 C 
HETATM   27  C   UNL     1      42.343  -9.151  -4.090  1.00  0.00     0.005 C 
HETATM   28  C   UNL     1      42.442 -10.537  -4.746  1.00  0.00     0.032 C 
ENDBRANCH  24  25
ENDBRANCH  20  24
ENDBRANCH   2  18
TORSDOF 7
ENDMDL
