MODEL 1
REMARK VINA RESULT:      -6.6      0.000      0.000
REMARK  3 active torsions:
REMARK  status: ('A' for Active; 'I' for Inactive)
REMARK    1  A    between atoms: C_2  and  C_3 
REMARK    2  A    between atoms: C_4  and  N_5 
REMARK    3  A    between atoms: C_18  and  C_19 
ROOT
HETATM    1  N   UNL     1      41.734 -15.858   4.805  1.00  0.00    -0.320 N 
HETATM    2  C   UNL     1      40.657 -15.586   5.712  1.00  0.00     0.141 C 
HETATM    3  N   UNL     1      40.498 -16.241   6.827  1.00  0.00    -0.380 N 
HETATM    4  H   UNL     1      41.155 -16.973   7.063  1.00  0.00     0.158 HD
HETATM    5  H   UNL     1      39.725 -16.015   7.436  1.00  0.00     0.158 HD
HETATM    6  S   UNL     1      39.617 -14.314   5.175  1.00  0.00    -0.086 SA
HETATM    7  C   UNL     1      40.392 -14.364   3.527  1.00  0.00     0.093 C 
HETATM    8  C   UNL     1      41.853 -14.765   3.828  1.00  0.00     0.121 C 
HETATM    9  C   UNL     1      40.497 -13.142   2.648  1.00  0.00     0.158 C 
HETATM   10  S   UNL     1      41.822 -13.627   1.521  1.00  0.00     0.147 S 
HETATM   11  O   UNL     1      41.229 -14.121   0.298  1.00  0.00    -0.228 OA
HETATM   12  O   UNL     1      42.832 -12.591   1.539  1.00  0.00    -0.228 OA
HETATM   13  C   UNL     1      42.437 -15.035   2.462  1.00  0.00     0.167 C 
ENDROOT
BRANCH   1  14
HETATM   14  C   UNL     1      42.910 -16.556   5.138  1.00  0.00     0.049 A 
HETATM   15  C   UNL     1      43.133 -17.832   4.559  1.00  0.00    -0.031 A 
HETATM   16  C   UNL     1      44.250 -18.589   4.954  1.00  0.00     0.009 A 
HETATM   17  C   UNL     1      45.148 -18.101   5.894  1.00  0.00     0.001 A 
HETATM   18  C   UNL     1      44.941 -16.849   6.457  1.00  0.00     0.009 A 
HETATM   19  C   UNL     1      43.830 -16.062   6.098  1.00  0.00    -0.031 A 
BRANCH  15  20
HETATM   20  C   UNL     1      42.190 -18.449   3.542  1.00  0.00     0.036 C 
HETATM   21  C   UNL     1      42.893 -18.866   2.255  1.00  0.00     0.010 C 
ENDBRANCH  15  20
BRANCH  19  22
HETATM   22  C   UNL     1      43.706 -14.714   6.779  1.00  0.00     0.036 C 
HETATM   23  C   UNL     1      45.056 -14.025   6.942  1.00  0.00     0.010 C 
ENDBRANCH  19  22
ENDBRANCH   1  14
TORSDOF 3
ENDMDL
MODEL 2
REMARK VINA RESULT:      -6.6      1.923      3.014
REMARK  3 active torsions:
REMARK  status: ('A' for Active; 'I' for Inactive)
REMARK    1  A    between atoms: C_2  and  C_3 
REMARK    2  A    between atoms: C_4  and  N_5 
REMARK    3  A    between atoms: C_18  and  C_19 
ROOT
HETATM    1  N   UNL     1      42.034 -17.256   4.152  1.00  0.00    -0.320 N 
HETATM    2  C   UNL     1      41.056 -17.354   5.196  1.00  0.00     0.141 C 
HETATM    3  N   UNL     1      40.506 -18.485   5.537  1.00  0.00    -0.380 N 
HETATM    4  H   UNL     1      40.774 -19.327   5.047  1.00  0.00     0.158 HD
HETATM    5  H   UNL     1      39.821 -18.505   6.280  1.00  0.00     0.158 HD
HETATM    6  S   UNL     1      40.697 -15.835   5.940  1.00  0.00    -0.086 SA
HETATM    7  C   UNL     1      41.585 -14.964   4.609  1.00  0.00     0.093 C 
HETATM    8  C   UNL     1      42.708 -15.950   4.219  1.00  0.00     0.121 C 
HETATM    9  C   UNL     1      42.286 -13.647   4.835  1.00  0.00     0.158 C 
HETATM   10  S   UNL     1      43.431 -13.608   3.439  1.00  0.00     0.147 S 
HETATM   11  O   UNL     1      42.847 -12.806   2.387  1.00  0.00    -0.228 OA
HETATM   12  O   UNL     1      44.763 -13.376   3.953  1.00  0.00    -0.228 OA
HETATM   13  C   UNL     1      43.298 -15.343   2.969  1.00  0.00     0.167 C 
ENDROOT
BRANCH   1  14
HETATM   14  C   UNL     1      42.774 -18.339   3.640  1.00  0.00     0.049 A 
HETATM   15  C   UNL     1      42.478 -18.808   2.333  1.00  0.00    -0.031 A 
HETATM   16  C   UNL     1      43.135 -19.950   1.840  1.00  0.00     0.009 A 
HETATM   17  C   UNL     1      44.080 -20.618   2.607  1.00  0.00     0.001 A 
HETATM   18  C   UNL     1      44.381 -20.157   3.882  1.00  0.00     0.009 A 
HETATM   19  C   UNL     1      43.739 -19.025   4.419  1.00  0.00    -0.031 A 
BRANCH  15  20
HETATM   20  C   UNL     1      41.444 -18.150   1.438  1.00  0.00     0.036 C 
HETATM   21  C   UNL     1      42.044 -17.109   0.500  1.00  0.00     0.010 C 
ENDBRANCH  15  20
BRANCH  19  22
HETATM   22  C   UNL     1      44.147 -18.617   5.820  1.00  0.00     0.036 C 
HETATM   23  C   UNL     1      43.820 -19.691   6.851  1.00  0.00     0.010 C 
ENDBRANCH  19  22
ENDBRANCH   1  14
TORSDOF 3
ENDMDL
MODEL 3
REMARK VINA RESULT:      -6.5      1.917      3.652
REMARK  3 active torsions:
REMARK  status: ('A' for Active; 'I' for Inactive)
REMARK    1  A    between atoms: C_2  and  C_3 
REMARK    2  A    between atoms: C_4  and  N_5 
REMARK    3  A    between atoms: C_18  and  C_19 
ROOT
HETATM    1  N   UNL     1      41.963 -17.249   4.179  1.00  0.00    -0.320 N 
HETATM    2  C   UNL     1      41.004 -17.313   5.244  1.00  0.00     0.141 C 
HETATM    3  N   UNL     1      40.422 -18.424   5.597  1.00  0.00    -0.380 N 
HETATM    4  H   UNL     1      40.651 -19.275   5.102  1.00  0.00     0.158 HD
HETATM    5  H   UNL     1      39.753 -18.421   6.354  1.00  0.00     0.158 HD
HETATM    6  S   UNL     1      40.715 -15.783   5.994  1.00  0.00    -0.086 SA
HETATM    7  C   UNL     1      41.604 -14.943   4.644  1.00  0.00     0.093 C 
HETATM    8  C   UNL     1      42.683 -15.968   4.231  1.00  0.00     0.121 C 
HETATM    9  C   UNL     1      42.356 -13.651   4.855  1.00  0.00     0.158 C 
HETATM   10  S   UNL     1      43.471 -13.652   3.434  1.00  0.00     0.147 S 
HETATM   11  O   UNL     1      42.893 -12.830   2.394  1.00  0.00    -0.228 OA
HETATM   12  O   UNL     1      44.821 -13.467   3.920  1.00  0.00    -0.228 OA
HETATM   13  C   UNL     1      43.268 -15.381   2.969  1.00  0.00     0.167 C 
ENDROOT
BRANCH   1  14
HETATM   14  C   UNL     1      42.653 -18.357   3.651  1.00  0.00     0.049 A 
HETATM   15  C   UNL     1      43.659 -18.972   4.441  1.00  0.00    -0.031 A 
HETATM   16  C   UNL     1      44.430 -20.014   3.895  1.00  0.00     0.009 A 
HETATM   17  C   UNL     1      44.212 -20.462   2.599  1.00  0.00     0.001 A 
HETATM   18  C   UNL     1      43.222 -19.870   1.825  1.00  0.00     0.009 A 
HETATM   19  C   UNL     1      42.435 -18.817   2.328  1.00  0.00    -0.031 A 
BRANCH  15  20
HETATM   20  C   UNL     1      43.978 -18.530   5.858  1.00  0.00     0.036 C 
HETATM   21  C   UNL     1      43.764 -19.634   6.887  1.00  0.00     0.010 C 
ENDBRANCH  15  20
BRANCH  19  22
HETATM   22  C   UNL     1      41.387 -18.249   1.392  1.00  0.00     0.036 C 
HETATM   23  C   UNL     1      41.934 -17.110   0.539  1.00  0.00     0.010 C 
ENDBRANCH  19  22
ENDBRANCH   1  14
TORSDOF 3
ENDMDL
MODEL 4
REMARK VINA RESULT:      -6.5      2.118      3.385
REMARK  3 active torsions:
REMARK  status: ('A' for Active; 'I' for Inactive)
REMARK    1  A    between atoms: C_2  and  C_3 
REMARK    2  A    between atoms: C_4  and  N_5 
REMARK    3  A    between atoms: C_18  and  C_19 
ROOT
HETATM    1  N   UNL     1      42.584 -15.808   4.210  1.00  0.00    -0.320 N 
HETATM    2  C   UNL     1      43.237 -14.668   4.784  1.00  0.00     0.141 C 
HETATM    3  N   UNL     1      44.152 -14.775   5.704  1.00  0.00    -0.380 N 
HETATM    4  H   UNL     1      44.414 -15.696   6.030  1.00  0.00     0.158 HD
HETATM    5  H   UNL     1      44.586 -13.943   6.079  1.00  0.00     0.158 HD
HETATM    6  S   UNL     1      42.687 -13.165   4.130  1.00  0.00    -0.086 SA
HETATM    7  C   UNL     1      41.290 -14.016   3.326  1.00  0.00     0.093 C 
HETATM    8  C   UNL     1      41.863 -15.411   2.990  1.00  0.00     0.121 C 
HETATM    9  C   UNL     1      40.682 -13.525   2.035  1.00  0.00     0.158 C 
HETATM   10  S   UNL     1      39.843 -15.013   1.448  1.00  0.00     0.147 S 
HETATM   11  O   UNL     1      38.448 -14.932   1.820  1.00  0.00    -0.228 OA
HETATM   12  O   UNL     1      40.279 -15.271   0.093  1.00  0.00    -0.228 OA
HETATM   13  C   UNL     1      40.654 -16.194   2.540  1.00  0.00     0.167 C 
ENDROOT
BRANCH   1  14
HETATM   14  C   UNL     1      43.069 -17.128   4.270  1.00  0.00     0.049 A 
HETATM   15  C   UNL     1      42.846 -17.882   5.452  1.00  0.00    -0.031 A 
HETATM   16  C   UNL     1      43.408 -19.166   5.573  1.00  0.00     0.009 A 
HETATM   17  C   UNL     1      44.166 -19.714   4.548  1.00  0.00     0.001 A 
HETATM   18  C   UNL     1      44.379 -18.985   3.385  1.00  0.00     0.009 A 
HETATM   19  C   UNL     1      43.844 -17.693   3.226  1.00  0.00    -0.031 A 
BRANCH  15  20
HETATM   20  C   UNL     1      42.049 -17.350   6.629  1.00  0.00     0.036 C 
HETATM   21  C   UNL     1      42.877 -17.230   7.903  1.00  0.00     0.010 C 
ENDBRANCH  15  20
BRANCH  19  22
HETATM   22  C   UNL     1      44.144 -16.992   1.916  1.00  0.00     0.036 C 
HETATM   23  C   UNL     1      43.556 -17.732   0.720  1.00  0.00     0.010 C 
ENDBRANCH  19  22
ENDBRANCH   1  14
TORSDOF 3
ENDMDL
MODEL 5
REMARK VINA RESULT:      -6.5      2.110      2.551
REMARK  3 active torsions:
REMARK  status: ('A' for Active; 'I' for Inactive)
REMARK    1  A    between atoms: C_2  and  C_3 
REMARK    2  A    between atoms: C_4  and  N_5 
REMARK    3  A    between atoms: C_18  and  C_19 
ROOT
HETATM    1  N   UNL     1      42.636 -15.766   4.394  1.00  0.00    -0.320 N 
HETATM    2  C   UNL     1      43.246 -14.578   4.915  1.00  0.00     0.141 C 
HETATM    3  N   UNL     1      44.149 -14.608   5.853  1.00  0.00    -0.380 N 
HETATM    4  H   UNL     1      44.432 -15.501   6.232  1.00  0.00     0.158 HD
HETATM    5  H   UNL     1      44.552 -13.744   6.189  1.00  0.00     0.158 HD
HETATM    6  S   UNL     1      42.662 -13.129   4.173  1.00  0.00    -0.086 SA
HETATM    7  C   UNL     1      41.305 -14.064   3.396  1.00  0.00     0.093 C 
HETATM    8  C   UNL     1      41.924 -15.457   3.144  1.00  0.00     0.121 C 
HETATM    9  C   UNL     1      40.703 -13.661   2.072  1.00  0.00     0.158 C 
HETATM   10  S   UNL     1      39.919 -15.203   1.553  1.00  0.00     0.147 S 
HETATM   11  O   UNL     1      38.516 -15.146   1.900  1.00  0.00    -0.228 OA
HETATM   12  O   UNL     1      40.384 -15.520   0.221  1.00  0.00    -0.228 OA
HETATM   13  C   UNL     1      40.746 -16.300   2.720  1.00  0.00     0.167 C 
ENDROOT
BRANCH   1  14
HETATM   14  C   UNL     1      43.159 -17.066   4.533  1.00  0.00     0.049 A 
HETATM   15  C   UNL     1      43.836 -17.649   3.430  1.00  0.00    -0.031 A 
HETATM   16  C   UNL     1      44.278 -18.982   3.513  1.00  0.00     0.009 A 
HETATM   17  C   UNL     1      44.076 -19.733   4.663  1.00  0.00     0.001 A 
HETATM   18  C   UNL     1      43.422 -19.164   5.748  1.00  0.00     0.009 A 
HETATM   19  C   UNL     1      42.954 -17.837   5.705  1.00  0.00    -0.031 A 
BRANCH  15  20
HETATM   20  C   UNL     1      44.080 -16.907   2.128  1.00  0.00     0.036 C 
HETATM   21  C   UNL     1      43.707 -17.727   0.898  1.00  0.00     0.010 C 
ENDBRANCH  15  20
BRANCH  19  22
HETATM   22  C   UNL     1      42.255 -17.324   6.948  1.00  0.00     0.036 C 
HETATM   23  C   UNL     1      43.197 -17.233   8.142  1.00  0.00     0.010 C 
ENDBRANCH  19  22
ENDBRANCH   1  14
TORSDOF 3
ENDMDL
MODEL 6
REMARK VINA RESULT:      -6.3      2.504      3.245
REMARK  3 active torsions:
REMARK  status: ('A' for Active; 'I' for Inactive)
REMARK    1  A    between atoms: C_2  and  C_3 
REMARK    2  A    between atoms: C_4  and  N_5 
REMARK    3  A    between atoms: C_18  and  C_19 
ROOT
HETATM    1  N   UNL     1      41.349 -16.103   3.076  1.00  0.00    -0.320 N 
HETATM    2  C   UNL     1      40.352 -16.407   2.091  1.00  0.00     0.141 C 
HETATM    3  N   UNL     1      40.337 -17.532   1.434  1.00  0.00    -0.380 N 
HETATM    4  H   UNL     1      41.056 -18.217   1.621  1.00  0.00     0.158 HD
HETATM    5  H   UNL     1      39.615 -17.703   0.749  1.00  0.00     0.158 HD
HETATM    6  S   UNL     1      39.193 -15.142   1.878  1.00  0.00    -0.086 SA
HETATM    7  C   UNL     1      40.239 -14.009   2.849  1.00  0.00     0.093 C 
HETATM    8  C   UNL     1      40.926 -14.940   3.873  1.00  0.00     0.121 C 
HETATM    9  C   UNL     1      39.661 -12.885   3.674  1.00  0.00     0.158 C 
HETATM   10  S   UNL     1      41.016 -12.551   4.820  1.00  0.00     0.147 S 
HETATM   11  O   UNL     1      41.777 -11.427   4.318  1.00  0.00    -0.228 OA
HETATM   12  O   UNL     1      40.491 -12.602   6.167  1.00  0.00    -0.228 OA
HETATM   13  C   UNL     1      41.962 -14.055   4.521  1.00  0.00     0.167 C 
ENDROOT
BRANCH   1  14
HETATM   14  C   UNL     1      42.171 -17.054   3.709  1.00  0.00     0.049 A 
HETATM   15  C   UNL     1      43.412 -17.389   3.109  1.00  0.00    -0.031 A 
HETATM   16  C   UNL     1      44.202 -18.408   3.669  1.00  0.00     0.009 A 
HETATM   17  C   UNL     1      43.794 -19.083   4.812  1.00  0.00     0.001 A 
HETATM   18  C   UNL     1      42.584 -18.752   5.410  1.00  0.00     0.009 A 
HETATM   19  C   UNL     1      41.757 -17.746   4.875  1.00  0.00    -0.031 A 
BRANCH  15  20
HETATM   20  C   UNL     1      43.923 -16.717   1.847  1.00  0.00     0.036 C 
HETATM   21  C   UNL     1      43.755 -17.583   0.603  1.00  0.00     0.010 C 
ENDBRANCH  15  20
BRANCH  19  22
HETATM   22  C   UNL     1      40.461 -17.473   5.611  1.00  0.00     0.036 C 
HETATM   23  C   UNL     1      40.684 -16.688   6.899  1.00  0.00     0.010 C 
ENDBRANCH  19  22
ENDBRANCH   1  14
TORSDOF 3
ENDMDL
MODEL 7
REMARK VINA RESULT:      -6.2      2.551      3.892
REMARK  3 active torsions:
REMARK  status: ('A' for Active; 'I' for Inactive)
REMARK    1  A    between atoms: C_2  and  C_3 
REMARK    2  A    between atoms: C_4  and  N_5 
REMARK    3  A    between atoms: C_18  and  C_19 
ROOT
HETATM    1  N   UNL     1      41.840 -15.999   4.578  1.00  0.00    -0.320 N 
HETATM    2  C   UNL     1      40.499 -15.570   4.309  1.00  0.00     0.141 C 
HETATM    3  N   UNL     1      39.796 -14.888   5.168  1.00  0.00    -0.380 N 
HETATM    4  H   UNL     1      40.207 -14.653   6.061  1.00  0.00     0.158 HD
HETATM    5  H   UNL     1      38.854 -14.607   4.935  1.00  0.00     0.158 HD
HETATM    6  S   UNL     1      39.930 -16.045   2.747  1.00  0.00    -0.086 SA
HETATM    7  C   UNL     1      41.359 -17.160   2.557  1.00  0.00     0.093 C 
HETATM    8  C   UNL     1      42.484 -16.439   3.331  1.00  0.00     0.121 C 
HETATM    9  C   UNL     1      41.957 -17.481   1.210  1.00  0.00     0.158 C 
HETATM   10  S   UNL     1      43.600 -18.066   1.680  1.00  0.00     0.147 S 
HETATM   11  O   UNL     1      43.582 -19.511   1.713  1.00  0.00    -0.228 OA
HETATM   12  O   UNL     1      44.579 -17.311   0.929  1.00  0.00    -0.228 OA
HETATM   13  C   UNL     1      43.596 -17.460   3.377  1.00  0.00     0.167 C 
ENDROOT
BRANCH   1  14
HETATM   14  C   UNL     1      42.672 -15.460   5.578  1.00  0.00     0.049 A 
HETATM   15  C   UNL     1      43.268 -14.191   5.357  1.00  0.00    -0.031 A 
HETATM   16  C   UNL     1      44.181 -13.679   6.297  1.00  0.00     0.009 A 
HETATM   17  C   UNL     1      44.497 -14.390   7.447  1.00  0.00     0.001 A 
HETATM   18  C   UNL     1      43.909 -15.628   7.673  1.00  0.00     0.009 A 
HETATM   19  C   UNL     1      42.999 -16.182   6.753  1.00  0.00    -0.031 A 
BRANCH  15  20
HETATM   20  C   UNL     1      42.995 -13.359   4.117  1.00  0.00     0.036 C 
HETATM   21  C   UNL     1      41.996 -12.234   4.365  1.00  0.00     0.010 C 
ENDBRANCH  15  20
BRANCH  19  22
HETATM   22  C   UNL     1      42.423 -17.539   7.105  1.00  0.00     0.036 C 
HETATM   23  C   UNL     1      43.494 -18.621   7.169  1.00  0.00     0.010 C 
ENDBRANCH  19  22
ENDBRANCH   1  14
TORSDOF 3
ENDMDL
MODEL 8
REMARK VINA RESULT:      -6.0      2.552      3.582
REMARK  3 active torsions:
REMARK  status: ('A' for Active; 'I' for Inactive)
REMARK    1  A    between atoms: C_2  and  C_3 
REMARK    2  A    between atoms: C_4  and  N_5 
REMARK    3  A    between atoms: C_18  and  C_19 
ROOT
HETATM    1  N   UNL     1      41.903 -16.061   4.557  1.00  0.00    -0.320 N 
HETATM    2  C   UNL     1      40.548 -15.642   4.343  1.00  0.00     0.141 C 
HETATM    3  N   UNL     1      39.879 -14.956   5.224  1.00  0.00    -0.380 N 
HETATM    4  H   UNL     1      40.327 -14.710   6.096  1.00  0.00     0.158 HD
HETATM    5  H   UNL     1      38.926 -14.683   5.029  1.00  0.00     0.158 HD
HETATM    6  S   UNL     1      39.916 -16.137   2.811  1.00  0.00    -0.086 SA
HETATM    7  C   UNL     1      41.342 -17.245   2.570  1.00  0.00     0.093 C 
HETATM    8  C   UNL     1      42.495 -16.510   3.288  1.00  0.00     0.121 C 
HETATM    9  C   UNL     1      41.884 -17.577   1.202  1.00  0.00     0.158 C 
HETATM   10  S   UNL     1      43.549 -18.146   1.606  1.00  0.00     0.147 S 
HETATM   11  O   UNL     1      43.542 -19.592   1.655  1.00  0.00    -0.228 OA
HETATM   12  O   UNL     1      44.490 -17.394   0.806  1.00  0.00    -0.228 OA
HETATM   13  C   UNL     1      43.614 -17.523   3.296  1.00  0.00     0.167 C 
ENDROOT
BRANCH   1  14
HETATM   14  C   UNL     1      42.773 -15.507   5.515  1.00  0.00     0.049 A 
HETATM   15  C   UNL     1      43.057 -16.252   6.689  1.00  0.00    -0.031 A 
HETATM   16  C   UNL     1      43.843 -15.677   7.704  1.00  0.00     0.009 A 
HETATM   17  C   UNL     1      44.359 -14.395   7.569  1.00  0.00     0.001 A 
HETATM   18  C   UNL     1      44.092 -13.665   6.418  1.00  0.00     0.009 A 
HETATM   19  C   UNL     1      43.301 -14.198   5.382  1.00  0.00    -0.031 A 
BRANCH  15  20
HETATM   20  C   UNL     1      42.516 -17.650   6.927  1.00  0.00     0.036 C 
HETATM   21  C   UNL     1      43.616 -18.688   7.123  1.00  0.00     0.010 C 
ENDBRANCH  15  20
BRANCH  19  22
HETATM   22  C   UNL     1      43.077 -13.309   4.175  1.00  0.00     0.036 C 
HETATM   23  C   UNL     1      42.008 -12.252   4.430  1.00  0.00     0.010 C 
ENDBRANCH  19  22
ENDBRANCH   1  14
TORSDOF 3
ENDMDL
MODEL 9
REMARK VINA RESULT:      -6.0      2.730      3.516
REMARK  3 active torsions:
REMARK  status: ('A' for Active; 'I' for Inactive)
REMARK    1  A    between atoms: C_2  and  C_3 
REMARK    2  A    between atoms: C_4  and  N_5 
REMARK    3  A    between atoms: C_18  and  C_19 
ROOT
HETATM    1  N   UNL     1      42.653 -14.103   4.669  1.00  0.00    -0.320 N 
HETATM    2  C   UNL     1      43.009 -14.206   3.284  1.00  0.00     0.141 C 
HETATM    3  N   UNL     1      43.842 -15.103   2.840  1.00  0.00    -0.380 N 
HETATM    4  H   UNL     1      44.258 -15.751   3.494  1.00  0.00     0.158 HD
HETATM    5  H   UNL     1      44.063 -15.137   1.855  1.00  0.00     0.158 HD
HETATM    6  S   UNL     1      42.222 -13.031   2.288  1.00  0.00    -0.086 SA
HETATM    7  C   UNL     1      41.673 -12.128   3.772  1.00  0.00     0.093 C 
HETATM    8  C   UNL     1      41.467 -13.244   4.819  1.00  0.00     0.121 C 
HETATM    9  C   UNL     1      40.395 -11.326   3.802  1.00  0.00     0.158 C 
HETATM   10  S   UNL     1      40.089 -11.210   5.577  1.00  0.00     0.147 S 
HETATM   11  O   UNL     1      40.580  -9.933   6.047  1.00  0.00    -0.228 OA
HETATM   12  O   UNL     1      38.743 -11.674   5.835  1.00  0.00    -0.228 OA
HETATM   13  C   UNL     1      41.242 -12.489   6.106  1.00  0.00     0.167 C 
ENDROOT
BRANCH   1  14
HETATM   14  C   UNL     1      42.837 -15.120   5.624  1.00  0.00     0.049 A 
HETATM   15  C   UNL     1      41.919 -16.202   5.653  1.00  0.00    -0.031 A 
HETATM   16  C   UNL     1      42.024 -17.177   6.662  1.00  0.00     0.009 A 
HETATM   17  C   UNL     1      43.023 -17.105   7.624  1.00  0.00     0.001 A 
HETATM   18  C   UNL     1      43.930 -16.053   7.595  1.00  0.00     0.009 A 
HETATM   19  C   UNL     1      43.854 -15.051   6.609  1.00  0.00    -0.031 A 
BRANCH  15  20
HETATM   20  C   UNL     1      40.785 -16.345   4.654  1.00  0.00     0.036 C 
HETATM   21  C   UNL     1      41.108 -17.314   3.522  1.00  0.00     0.010 C 
ENDBRANCH  15  20
BRANCH  19  22
HETATM   22  C   UNL     1      44.896 -13.953   6.679  1.00  0.00     0.036 C 
HETATM   23  C   UNL     1      44.869 -13.216   8.013  1.00  0.00     0.010 C 
ENDBRANCH  19  22
ENDBRANCH   1  14
TORSDOF 3
ENDMDL
MODEL 10
REMARK VINA RESULT:      -6.0      2.698      4.451
REMARK  3 active torsions:
REMARK  status: ('A' for Active; 'I' for Inactive)
REMARK    1  A    between atoms: C_2  and  C_3 
REMARK    2  A    between atoms: C_4  and  N_5 
REMARK    3  A    between atoms: C_18  and  C_19 
ROOT
HETATM    1  N   UNL     1      42.612 -14.126   4.748  1.00  0.00    -0.320 N 
HETATM    2  C   UNL     1      43.016 -14.265   3.379  1.00  0.00     0.141 C 
HETATM    3  N   UNL     1      43.853 -15.181   2.985  1.00  0.00    -0.380 N 
HETATM    4  H   UNL     1      44.238 -15.819   3.668  1.00  0.00     0.158 HD
HETATM    5  H   UNL     1      44.108 -15.241   2.009  1.00  0.00     0.158 HD
HETATM    6  S   UNL     1      42.279 -13.105   2.330  1.00  0.00    -0.086 SA
HETATM    7  C   UNL     1      41.689 -12.161   3.772  1.00  0.00     0.093 C 
HETATM    8  C   UNL     1      41.433 -13.251   4.836  1.00  0.00     0.121 C 
HETATM    9  C   UNL     1      40.421 -11.345   3.738  1.00  0.00     0.158 C 
HETATM   10  S   UNL     1      40.053 -11.183   5.499  1.00  0.00     0.147 S 
HETATM   11  O   UNL     1      40.544  -9.902   5.956  1.00  0.00    -0.228 OA
HETATM   12  O   UNL     1      38.694 -11.626   5.719  1.00  0.00    -0.228 OA
HETATM   13  C   UNL     1      41.171 -12.464   6.098  1.00  0.00     0.167 C 
ENDROOT
BRANCH   1  14
HETATM   14  C   UNL     1      42.750 -15.123   5.732  1.00  0.00     0.049 A 
HETATM   15  C   UNL     1      43.818 -15.021   6.660  1.00  0.00    -0.031 A 
HETATM   16  C   UNL     1      44.035 -16.056   7.587  1.00  0.00     0.009 A 
HETATM   17  C   UNL     1      43.209 -17.172   7.619  1.00  0.00     0.001 A 
HETATM   18  C   UNL     1      42.156 -17.273   6.719  1.00  0.00     0.009 A 
HETATM   19  C   UNL     1      41.910 -16.265   5.768  1.00  0.00    -0.031 A 
BRANCH  15  20
HETATM   20  C   UNL     1      44.781 -13.847   6.681  1.00  0.00     0.036 C 
HETATM   21  C   UNL     1      44.871 -13.176   8.047  1.00  0.00     0.010 C 
ENDBRANCH  15  20
BRANCH  19  22
HETATM   22  C   UNL     1      40.734 -16.484   4.837  1.00  0.00     0.036 C 
HETATM   23  C   UNL     1      41.099 -17.361   3.645  1.00  0.00     0.010 C 
ENDBRANCH  19  22
ENDBRANCH   1  14
TORSDOF 3
ENDMDL
