MODEL 1
REMARK VINA RESULT:      -8.4      0.000      0.000
REMARK  2 active torsions:
REMARK  status: ('A' for Active; 'I' for Inactive)
REMARK    1  A    between atoms: C_5  and  O_6 
REMARK    2  A    between atoms: C_5  and  C_7 
ROOT
HETATM    1  C   UNL     1      45.565 -13.754   6.816  1.00  0.00     0.050 C 
HETATM    2  C   UNL     1      44.363 -14.618   6.590  1.00  0.00    -0.034 A 
HETATM    3  C   UNL     1      43.627 -14.580   5.414  1.00  0.00     0.052 A 
HETATM    4  C   UNL     1      42.516 -15.404   5.177  1.00  0.00     0.039 A 
HETATM    5  C   UNL     1      41.934 -15.083   3.826  1.00  0.00     0.200 A 
HETATM    6  C   UNL     1      42.900 -13.951   3.324  1.00  0.00     0.266 A 
HETATM    7  O   UNL     1      42.857 -13.317   2.278  1.00  0.00    -0.269 OA
HETATM    8  N   UNL     1      43.851 -13.751   4.322  1.00  0.00    -0.323 N 
HETATM    9  C   UNL     1      42.099 -16.287   6.159  1.00  0.00     0.046 A 
HETATM   10 CL   UNL     1      40.715 -17.288   5.960  1.00  0.00    -0.084 Cl
HETATM   11  C   UNL     1      42.831 -16.365   7.348  1.00  0.00     0.025 A 
HETATM   12  C   UNL     1      43.954 -15.545   7.558  1.00  0.00     0.011 A 
HETATM   13  H   UNL     1      44.574 -13.053   4.240  1.00  0.00     0.169 HD
ENDROOT
BRANCH   5  14
HETATM   14  O   UNL     1      40.611 -14.602   4.042  1.00  0.00    -0.371 OA
HETATM   15  H   UNL     1      40.617 -14.219   4.936  1.00  0.00     0.212 HD
ENDBRANCH   5  14
BRANCH   5  16
HETATM   16  C   UNL     1      42.002 -16.278   2.887  1.00  0.00     0.025 A 
HETATM   17  C   UNL     1      42.816 -17.477   2.962  1.00  0.00     0.003 A 
HETATM   18  C   UNL     1      42.505 -18.266   1.853  1.00  0.00     0.043 A 
HETATM   19  C   UNL     1      43.793 -17.980   3.854  1.00  0.00     0.014 A 
HETATM   20  C   UNL     1      43.087 -19.517   1.607  1.00  0.00     0.030 A 
HETATM   21  N   UNL     1      41.583 -17.579   1.108  1.00  0.00    -0.359 N 
HETATM   22  C   UNL     1      44.031 -19.989   2.520  1.00  0.00     0.002 A 
HETATM   23  C   UNL     1      44.384 -19.229   3.627  1.00  0.00     0.001 A 
HETATM   24  H   UNL     1      41.207 -17.908   0.230  1.00  0.00     0.166 HD
HETATM   25  C   UNL     1      41.299 -16.371   1.683  1.00  0.00     0.016 A 
HETATM   26  C   UNL     1      40.396 -15.405   0.996  1.00  0.00     0.069 C 
ENDBRANCH   5  16
TORSDOF 2
ENDMDL
MODEL 2
REMARK VINA RESULT:      -7.9      2.516      4.299
REMARK  2 active torsions:
REMARK  status: ('A' for Active; 'I' for Inactive)
REMARK    1  A    between atoms: C_5  and  O_6 
REMARK    2  A    between atoms: C_5  and  C_7 
ROOT
HETATM    1  C   UNL     1      40.615 -13.784   2.542  1.00  0.00     0.050 C 
HETATM    2  C   UNL     1      41.660 -14.142   3.553  1.00  0.00    -0.034 A 
HETATM    3  C   UNL     1      41.588 -15.296   4.322  1.00  0.00     0.052 A 
HETATM    4  C   UNL     1      42.574 -15.660   5.251  1.00  0.00     0.039 A 
HETATM    5  C   UNL     1      42.170 -16.940   5.934  1.00  0.00     0.200 A 
HETATM    6  C   UNL     1      40.800 -17.254   5.234  1.00  0.00     0.266 A 
HETATM    7  O   UNL     1      40.031 -18.184   5.442  1.00  0.00    -0.269 OA
HETATM    8  N   UNL     1      40.570 -16.239   4.309  1.00  0.00    -0.323 N 
HETATM    9  C   UNL     1      43.668 -14.832   5.447  1.00  0.00     0.046 A 
HETATM   10 CL   UNL     1      44.887 -15.187   6.608  1.00  0.00    -0.084 Cl
HETATM   11  C   UNL     1      43.781 -13.673   4.673  1.00  0.00     0.025 A 
HETATM   12  C   UNL     1      42.792 -13.336   3.731  1.00  0.00     0.011 A 
HETATM   13  H   UNL     1      39.734 -16.210   3.745  1.00  0.00     0.169 HD
ENDROOT
BRANCH   5  14
HETATM   14  O   UNL     1      42.010 -16.646   7.319  1.00  0.00    -0.371 OA
HETATM   15  H   UNL     1      42.911 -16.518   7.662  1.00  0.00     0.212 HD
ENDBRANCH   5  14
BRANCH   5  16
HETATM   16  C   UNL     1      43.163 -18.059   5.660  1.00  0.00     0.025 A 
HETATM   17  C   UNL     1      43.440 -18.779   4.431  1.00  0.00     0.003 A 
HETATM   18  C   UNL     1      44.439 -19.714   4.708  1.00  0.00     0.043 A 
HETATM   19  C   UNL     1      42.946 -18.742   3.106  1.00  0.00     0.014 A 
HETATM   20  C   UNL     1      44.978 -20.579   3.744  1.00  0.00     0.030 A 
HETATM   21  N   UNL     1      44.736 -19.613   6.041  1.00  0.00    -0.359 N 
HETATM   22  C   UNL     1      44.480 -20.498   2.444  1.00  0.00     0.002 A 
HETATM   23  C   UNL     1      43.473 -19.595   2.127  1.00  0.00     0.001 A 
HETATM   24  H   UNL     1      45.406 -20.200   6.518  1.00  0.00     0.166 HD
HETATM   25  C   UNL     1      43.957 -18.661   6.640  1.00  0.00     0.016 A 
HETATM   26  C   UNL     1      44.032 -18.444   8.112  1.00  0.00     0.069 C 
ENDBRANCH   5  16
TORSDOF 2
ENDMDL
MODEL 3
REMARK VINA RESULT:      -7.9      2.460      3.555
REMARK  2 active torsions:
REMARK  status: ('A' for Active; 'I' for Inactive)
REMARK    1  A    between atoms: C_5  and  O_6 
REMARK    2  A    between atoms: C_5  and  C_7 
ROOT
HETATM    1  C   UNL     1      38.722 -12.387   5.491  1.00  0.00     0.050 C 
HETATM    2  C   UNL     1      40.054 -12.853   4.992  1.00  0.00    -0.034 A 
HETATM    3  C   UNL     1      40.527 -14.138   5.216  1.00  0.00     0.052 A 
HETATM    4  C   UNL     1      41.760 -14.598   4.730  1.00  0.00     0.039 A 
HETATM    5  C   UNL     1      41.979 -16.018   5.181  1.00  0.00     0.200 A 
HETATM    6  C   UNL     1      40.664 -16.299   5.994  1.00  0.00     0.266 A 
HETATM    7  O   UNL     1      40.343 -17.312   6.600  1.00  0.00    -0.269 OA
HETATM    8  N   UNL     1      39.892 -15.142   5.935  1.00  0.00    -0.323 N 
HETATM    9  C   UNL     1      42.574 -13.738   4.011  1.00  0.00     0.046 A 
HETATM   10 CL   UNL     1      44.122 -14.215   3.431  1.00  0.00    -0.084 Cl
HETATM   11  C   UNL     1      42.118 -12.442   3.749  1.00  0.00     0.025 A 
HETATM   12  C   UNL     1      40.869 -12.007   4.228  1.00  0.00     0.011 A 
HETATM   13  H   UNL     1      39.002 -15.070   6.404  1.00  0.00     0.169 HD
ENDROOT
BRANCH   5  14
HETATM   14  O   UNL     1      43.135 -16.021   6.013  1.00  0.00    -0.371 OA
HETATM   15  H   UNL     1      42.891 -15.502   6.799  1.00  0.00     0.212 HD
ENDBRANCH   5  14
BRANCH   5  16
HETATM   16  C   UNL     1      42.075 -16.973   4.002  1.00  0.00     0.025 A 
HETATM   17  C   UNL     1      42.967 -18.097   3.782  1.00  0.00     0.003 A 
HETATM   18  C   UNL     1      42.652 -18.648   2.539  1.00  0.00     0.043 A 
HETATM   19  C   UNL     1      44.017 -18.708   4.508  1.00  0.00     0.014 A 
HETATM   20  C   UNL     1      43.300 -19.770   2.004  1.00  0.00     0.030 A 
HETATM   21  N   UNL     1      41.653 -17.885   1.995  1.00  0.00    -0.359 N 
HETATM   22  C   UNL     1      44.316 -20.358   2.758  1.00  0.00     0.002 A 
HETATM   23  C   UNL     1      44.675 -19.833   3.992  1.00  0.00     0.001 A 
HETATM   24  H   UNL     1      41.255 -18.042   1.080  1.00  0.00     0.166 HD
HETATM   25  C   UNL     1      41.320 -16.854   2.831  1.00  0.00     0.016 A 
HETATM   26  C   UNL     1      40.325 -15.830   2.405  1.00  0.00     0.069 C 
ENDBRANCH   5  16
TORSDOF 2
ENDMDL
MODEL 4
REMARK VINA RESULT:      -7.8      3.004      5.083
REMARK  2 active torsions:
REMARK  status: ('A' for Active; 'I' for Inactive)
REMARK    1  A    between atoms: C_5  and  O_6 
REMARK    2  A    between atoms: C_5  and  C_7 
ROOT
HETATM    1  C   UNL     1      41.056 -16.177   6.263  1.00  0.00     0.050 C 
HETATM    2  C   UNL     1      41.714 -16.434   4.943  1.00  0.00    -0.034 A 
HETATM    3  C   UNL     1      41.099 -16.140   3.734  1.00  0.00     0.052 A 
HETATM    4  C   UNL     1      41.714 -16.349   2.490  1.00  0.00     0.039 A 
HETATM    5  C   UNL     1      40.762 -15.959   1.389  1.00  0.00     0.200 A 
HETATM    6  C   UNL     1      39.509 -15.483   2.207  1.00  0.00     0.266 A 
HETATM    7  O   UNL     1      38.431 -15.083   1.789  1.00  0.00    -0.269 OA
HETATM    8  N   UNL     1      39.823 -15.621   3.556  1.00  0.00    -0.323 N 
HETATM    9  C   UNL     1      42.985 -16.896   2.439  1.00  0.00     0.046 A 
HETATM   10 CL   UNL     1      43.779 -17.229   0.950  1.00  0.00    -0.084 Cl
HETATM   11  C   UNL     1      43.641 -17.184   3.641  1.00  0.00     0.025 A 
HETATM   12  C   UNL     1      43.015 -16.948   4.878  1.00  0.00     0.011 A 
HETATM   13  H   UNL     1      39.163 -15.396   4.285  1.00  0.00     0.169 HD
ENDROOT
BRANCH   5  14
HETATM   14  O   UNL     1      40.493 -17.135   0.631  1.00  0.00    -0.371 OA
HETATM   15  H   UNL     1      41.345 -17.598   0.560  1.00  0.00     0.212 HD
ENDBRANCH   5  14
BRANCH   5  16
HETATM   16  C   UNL     1      41.308 -14.809   0.557  1.00  0.00     0.025 A 
HETATM   17  C   UNL     1      41.370 -14.649  -0.884  1.00  0.00     0.003 A 
HETATM   18  C   UNL     1      41.965 -13.414  -1.145  1.00  0.00     0.043 A 
HETATM   19  C   UNL     1      40.986 -15.425  -2.003  1.00  0.00     0.014 A 
HETATM   20  C   UNL     1      42.170 -12.912  -2.438  1.00  0.00     0.030 A 
HETATM   21  N   UNL     1      42.295 -12.856   0.062  1.00  0.00    -0.359 N 
HETATM   22  C   UNL     1      41.760 -13.697  -3.515  1.00  0.00     0.002 A 
HETATM   23  C   UNL     1      41.179 -14.940  -3.303  1.00  0.00     0.001 A 
HETATM   24  H   UNL     1      42.772 -11.971   0.165  1.00  0.00     0.166 HD
HETATM   25  C   UNL     1      41.951 -13.689   1.091  1.00  0.00     0.016 A 
HETATM   26  C   UNL     1      42.306 -13.338   2.495  1.00  0.00     0.069 C 
ENDBRANCH   5  16
TORSDOF 2
ENDMDL
MODEL 5
REMARK VINA RESULT:      -7.8      2.313      4.072
REMARK  2 active torsions:
REMARK  status: ('A' for Active; 'I' for Inactive)
REMARK    1  A    between atoms: C_5  and  O_6 
REMARK    2  A    between atoms: C_5  and  C_7 
ROOT
HETATM    1  C   UNL     1      39.512 -11.917   3.094  1.00  0.00     0.050 C 
HETATM    2  C   UNL     1      39.841 -13.318   2.682  1.00  0.00    -0.034 A 
HETATM    3  C   UNL     1      41.110 -13.860   2.830  1.00  0.00     0.052 A 
HETATM    4  C   UNL     1      41.425 -15.181   2.475  1.00  0.00     0.039 A 
HETATM    5  C   UNL     1      42.888 -15.432   2.732  1.00  0.00     0.200 A 
HETATM    6  C   UNL     1      43.354 -14.045   3.302  1.00  0.00     0.266 A 
HETATM    7  O   UNL     1      44.475 -13.699   3.650  1.00  0.00    -0.269 OA
HETATM    8  N   UNL     1      42.235 -13.216   3.325  1.00  0.00    -0.323 N 
HETATM    9  C   UNL     1      40.448 -15.993   1.925  1.00  0.00     0.046 A 
HETATM   10 CL   UNL     1      40.775 -17.603   1.417  1.00  0.00    -0.084 Cl
HETATM   11  C   UNL     1      39.153 -15.483   1.782  1.00  0.00     0.025 A 
HETATM   12  C   UNL     1      38.852 -14.163   2.163  1.00  0.00     0.011 A 
HETATM   13  H   UNL     1      42.287 -12.257   3.635  1.00  0.00     0.169 HD
ENDROOT
BRANCH   5  14
HETATM   14  O   UNL     1      43.491 -15.725   1.474  1.00  0.00    -0.371 OA
HETATM   15  H   UNL     1      44.444 -15.793   1.653  1.00  0.00     0.212 HD
ENDBRANCH   5  14
BRANCH   5  16
HETATM   16  C   UNL     1      43.096 -16.520   3.774  1.00  0.00     0.025 A 
HETATM   17  C   UNL     1      43.629 -17.861   3.628  1.00  0.00     0.003 A 
HETATM   18  C   UNL     1      43.609 -18.462   4.888  1.00  0.00     0.043 A 
HETATM   19  C   UNL     1      44.125 -18.639   2.554  1.00  0.00     0.014 A 
HETATM   20  C   UNL     1      44.074 -19.762   5.132  1.00  0.00     0.030 A 
HETATM   21  N   UNL     1      43.056 -17.563   5.760  1.00  0.00    -0.359 N 
HETATM   22  C   UNL     1      44.575 -20.489   4.053  1.00  0.00     0.002 A 
HETATM   23  C   UNL     1      44.598 -19.939   2.778  1.00  0.00     0.001 A 
HETATM   24  H   UNL     1      42.891 -17.751   6.739  1.00  0.00     0.166 HD
HETATM   25  C   UNL     1      42.703 -16.411   5.111  1.00  0.00     0.016 A 
HETATM   26  C   UNL     1      41.988 -15.326   5.839  1.00  0.00     0.069 C 
ENDBRANCH   5  16
TORSDOF 2
ENDMDL
MODEL 6
REMARK VINA RESULT:      -7.8      2.748      3.746
REMARK  2 active torsions:
REMARK  status: ('A' for Active; 'I' for Inactive)
REMARK    1  A    between atoms: C_5  and  O_6 
REMARK    2  A    between atoms: C_5  and  C_7 
ROOT
HETATM    1  C   UNL     1      40.111 -11.356   7.255  1.00  0.00     0.050 C 
HETATM    2  C   UNL     1      40.267 -12.031   5.928  1.00  0.00    -0.034 A 
HETATM    3  C   UNL     1      41.369 -12.815   5.615  1.00  0.00     0.052 A 
HETATM    4  C   UNL     1      41.515 -13.478   4.387  1.00  0.00     0.039 A 
HETATM    5  C   UNL     1      42.833 -14.206   4.364  1.00  0.00     0.200 A 
HETATM    6  C   UNL     1      43.411 -13.861   5.783  1.00  0.00     0.266 A 
HETATM    7  O   UNL     1      44.485 -14.188   6.271  1.00  0.00    -0.269 OA
HETATM    8  N   UNL     1      42.470 -13.059   6.425  1.00  0.00    -0.323 N 
HETATM    9  C   UNL     1      40.538 -13.338   3.415  1.00  0.00     0.046 A 
HETATM   10 CL   UNL     1      40.676 -14.076   1.867  1.00  0.00    -0.084 Cl
HETATM   11  C   UNL     1      39.404 -12.572   3.706  1.00  0.00     0.025 A 
HETATM   12  C   UNL     1      39.268 -11.933   4.951  1.00  0.00     0.011 A 
HETATM   13  H   UNL     1      42.626 -12.690   7.350  1.00  0.00     0.169 HD
ENDROOT
BRANCH   5  14
HETATM   14  O   UNL     1      43.611 -13.634   3.315  1.00  0.00    -0.371 OA
HETATM   15  H   UNL     1      44.499 -14.017   3.413  1.00  0.00     0.212 HD
ENDBRANCH   5  14
BRANCH   5  16
HETATM   16  C   UNL     1      42.643 -15.708   4.230  1.00  0.00     0.025 A 
HETATM   17  C   UNL     1      43.110 -16.620   3.203  1.00  0.00     0.003 A 
HETATM   18  C   UNL     1      42.666 -17.899   3.541  1.00  0.00     0.043 A 
HETATM   19  C   UNL     1      43.863 -16.496   2.011  1.00  0.00     0.014 A 
HETATM   20  C   UNL     1      42.951 -19.043   2.782  1.00  0.00     0.030 A 
HETATM   21  N   UNL     1      41.928 -17.785   4.689  1.00  0.00    -0.359 N 
HETATM   22  C   UNL     1      43.714 -18.884   1.625  1.00  0.00     0.002 A 
HETATM   23  C   UNL     1      44.162 -17.627   1.240  1.00  0.00     0.001 A 
HETATM   24  H   UNL     1      41.458 -18.558   5.140  1.00  0.00     0.166 HD
HETATM   25  C   UNL     1      41.864 -16.481   5.097  1.00  0.00     0.016 A 
HETATM   26  C   UNL     1      41.029 -16.099   6.270  1.00  0.00     0.069 C 
ENDBRANCH   5  16
TORSDOF 2
ENDMDL
MODEL 7
REMARK VINA RESULT:      -7.6      2.675      4.888
REMARK  2 active torsions:
REMARK  status: ('A' for Active; 'I' for Inactive)
REMARK    1  A    between atoms: C_5  and  O_6 
REMARK    2  A    between atoms: C_5  and  C_7 
ROOT
HETATM    1  C   UNL     1      38.861 -15.922   2.083  1.00  0.00     0.050 C 
HETATM    2  C   UNL     1      40.345 -16.082   1.972  1.00  0.00    -0.034 A 
HETATM    3  C   UNL     1      41.147 -16.384   3.065  1.00  0.00     0.052 A 
HETATM    4  C   UNL     1      42.535 -16.566   2.970  1.00  0.00     0.039 A 
HETATM    5  C   UNL     1      43.097 -16.845   4.339  1.00  0.00     0.200 A 
HETATM    6  C   UNL     1      41.803 -16.805   5.229  1.00  0.00     0.266 A 
HETATM    7  O   UNL     1      41.704 -16.946   6.440  1.00  0.00    -0.269 OA
HETATM    8  N   UNL     1      40.731 -16.542   4.380  1.00  0.00    -0.323 N 
HETATM    9  C   UNL     1      43.162 -16.419   1.744  1.00  0.00     0.046 A 
HETATM   10 CL   UNL     1      44.865 -16.574   1.563  1.00  0.00    -0.084 Cl
HETATM   11  C   UNL     1      42.380 -16.135   0.619  1.00  0.00     0.025 A 
HETATM   12  C   UNL     1      40.987 -15.977   0.731  1.00  0.00     0.011 A 
HETATM   13  H   UNL     1      39.788 -16.447   4.724  1.00  0.00     0.169 HD
ENDROOT
BRANCH   5  14
HETATM   14  O   UNL     1      43.994 -15.783   4.649  1.00  0.00    -0.371 OA
HETATM   15  H   UNL     1      44.710 -15.848   3.993  1.00  0.00     0.212 HD
ENDBRANCH   5  14
BRANCH   5  16
HETATM   16  C   UNL     1      43.737 -18.223   4.413  1.00  0.00     0.025 A 
HETATM   17  C   UNL     1      43.648 -19.343   3.495  1.00  0.00     0.003 A 
HETATM   18  C   UNL     1      44.419 -20.381   4.020  1.00  0.00     0.043 A 
HETATM   19  C   UNL     1      42.989 -19.591   2.267  1.00  0.00     0.014 A 
HETATM   20  C   UNL     1      44.584 -21.620   3.385  1.00  0.00     0.030 A 
HETATM   21  N   UNL     1      44.923 -19.949   5.219  1.00  0.00    -0.359 N 
HETATM   22  C   UNL     1      43.935 -21.820   2.167  1.00  0.00     0.002 A 
HETATM   23  C   UNL     1      43.144 -20.821   1.615  1.00  0.00     0.001 A 
HETATM   24  H   UNL     1      45.492 -20.517   5.831  1.00  0.00     0.166 HD
HETATM   25  C   UNL     1      44.495 -18.679   5.495  1.00  0.00     0.016 A 
HETATM   26  C   UNL     1      44.835 -18.037   6.796  1.00  0.00     0.069 C 
ENDBRANCH   5  16
TORSDOF 2
ENDMDL
MODEL 8
REMARK VINA RESULT:      -7.6      2.569      5.779
REMARK  2 active torsions:
REMARK  status: ('A' for Active; 'I' for Inactive)
REMARK    1  A    between atoms: C_5  and  O_6 
REMARK    2  A    between atoms: C_5  and  C_7 
ROOT
HETATM    1  C   UNL     1      44.985 -20.312   4.274  1.00  0.00     0.050 C 
HETATM    2  C   UNL     1      43.937 -19.308   3.908  1.00  0.00    -0.034 A 
HETATM    3  C   UNL     1      43.285 -18.531   4.856  1.00  0.00     0.052 A 
HETATM    4  C   UNL     1      42.323 -17.565   4.526  1.00  0.00     0.039 A 
HETATM    5  C   UNL     1      41.794 -16.934   5.787  1.00  0.00     0.200 A 
HETATM    6  C   UNL     1      42.619 -17.688   6.890  1.00  0.00     0.266 A 
HETATM    7  O   UNL     1      42.556 -17.570   8.106  1.00  0.00    -0.269 OA
HETATM    8  N   UNL     1      43.461 -18.582   6.233  1.00  0.00    -0.323 N 
HETATM    9  C   UNL     1      41.971 -17.377   3.200  1.00  0.00     0.046 A 
HETATM   10 CL   UNL     1      40.761 -16.249   2.726  1.00  0.00    -0.084 Cl
HETATM   11  C   UNL     1      42.624 -18.128   2.217  1.00  0.00     0.025 A 
HETATM   12  C   UNL     1      43.602 -19.077   2.568  1.00  0.00     0.011 A 
HETATM   13  H   UNL     1      44.080 -19.200   6.734  1.00  0.00     0.169 HD
ENDROOT
BRANCH   5  14
HETATM   14  O   UNL     1      40.403 -17.237   5.857  1.00  0.00    -0.371 OA
HETATM   15  H   UNL     1      39.995 -16.756   5.116  1.00  0.00     0.212 HD
ENDBRANCH   5  14
BRANCH   5  16
HETATM   16  C   UNL     1      42.095 -15.445   5.839  1.00  0.00     0.025 A 
HETATM   17  C   UNL     1      41.226 -14.309   5.597  1.00  0.00     0.003 A 
HETATM   18  C   UNL     1      41.987 -13.151   5.769  1.00  0.00     0.043 A 
HETATM   19  C   UNL     1      39.866 -14.135   5.243  1.00  0.00     0.014 A 
HETATM   20  C   UNL     1      41.467 -11.856   5.636  1.00  0.00     0.030 A 
HETATM   21  N   UNL     1      43.267 -13.544   6.059  1.00  0.00    -0.359 N 
HETATM   22  C   UNL     1      40.118 -11.726   5.307  1.00  0.00     0.002 A 
HETATM   23  C   UNL     1      39.326 -12.850   5.108  1.00  0.00     0.001 A 
HETATM   24  H   UNL     1      44.037 -12.905   6.200  1.00  0.00     0.166 HD
HETATM   25  C   UNL     1      43.366 -14.908   6.065  1.00  0.00     0.016 A 
HETATM   26  C   UNL     1      44.689 -15.566   6.256  1.00  0.00     0.069 C 
ENDBRANCH   5  16
TORSDOF 2
ENDMDL
MODEL 9
REMARK VINA RESULT:      -7.6      2.297      4.874
REMARK  2 active torsions:
REMARK  status: ('A' for Active; 'I' for Inactive)
REMARK    1  A    between atoms: C_5  and  O_6 
REMARK    2  A    between atoms: C_5  and  C_7 
ROOT
HETATM    1  C   UNL     1      43.962 -19.340   6.931  1.00  0.00     0.050 C 
HETATM    2  C   UNL     1      43.646 -18.924   5.529  1.00  0.00    -0.034 A 
HETATM    3  C   UNL     1      42.712 -17.941   5.235  1.00  0.00     0.052 A 
HETATM    4  C   UNL     1      42.427 -17.521   3.927  1.00  0.00     0.039 A 
HETATM    5  C   UNL     1      41.346 -16.472   3.962  1.00  0.00     0.200 A 
HETATM    6  C   UNL     1      41.069 -16.353   5.504  1.00  0.00     0.266 A 
HETATM    7  O   UNL     1      40.251 -15.649   6.081  1.00  0.00    -0.269 OA
HETATM    8  N   UNL     1      41.928 -17.243   6.144  1.00  0.00    -0.323 N 
HETATM    9  C   UNL     1      43.078 -18.117   2.860  1.00  0.00     0.046 A 
HETATM   10 CL   UNL     1      42.741 -17.691   1.228  1.00  0.00    -0.084 Cl
HETATM   11  C   UNL     1      44.042 -19.097   3.123  1.00  0.00     0.025 A 
HETATM   12  C   UNL     1      44.327 -19.490   4.443  1.00  0.00     0.011 A 
HETATM   13  H   UNL     1      41.923 -17.364   7.145  1.00  0.00     0.169 HD
ENDROOT
BRANCH   5  14
HETATM   14  O   UNL     1      40.227 -16.998   3.255  1.00  0.00    -0.371 OA
HETATM   15  H   UNL     1      39.533 -16.320   3.326  1.00  0.00     0.212 HD
ENDBRANCH   5  14
BRANCH   5  16
HETATM   16  C   UNL     1      41.839 -15.140   3.418  1.00  0.00     0.025 A 
HETATM   17  C   UNL     1      41.499 -14.453   2.186  1.00  0.00     0.003 A 
HETATM   18  C   UNL     1      42.226 -13.262   2.154  1.00  0.00     0.043 A 
HETATM   19  C   UNL     1      40.649 -14.716   1.085  1.00  0.00     0.014 A 
HETATM   20  C   UNL     1      42.132 -12.327   1.113  1.00  0.00     0.030 A 
HETATM   21  N   UNL     1      43.007 -13.229   3.279  1.00  0.00    -0.359 N 
HETATM   22  C   UNL     1      41.269 -12.612   0.056  1.00  0.00     0.002 A 
HETATM   23  C   UNL     1      40.539 -13.793   0.037  1.00  0.00     0.001 A 
HETATM   24  H   UNL     1      43.661 -12.489   3.492  1.00  0.00     0.166 HD
HETATM   25  C   UNL     1      42.825 -14.359   4.028  1.00  0.00     0.016 A 
HETATM   26  C   UNL     1      43.646 -14.593   5.249  1.00  0.00     0.069 C 
ENDBRANCH   5  16
TORSDOF 2
ENDMDL
MODEL 10
REMARK VINA RESULT:      -7.5      2.683      5.669
REMARK  2 active torsions:
REMARK  status: ('A' for Active; 'I' for Inactive)
REMARK    1  A    between atoms: C_5  and  O_6 
REMARK    2  A    between atoms: C_5  and  C_7 
ROOT
HETATM    1  C   UNL     1      44.372 -18.792   4.520  1.00  0.00     0.050 C 
HETATM    2  C   UNL     1      43.649 -18.124   3.393  1.00  0.00    -0.034 A 
HETATM    3  C   UNL     1      42.609 -17.228   3.601  1.00  0.00     0.052 A 
HETATM    4  C   UNL     1      41.941 -16.571   2.556  1.00  0.00     0.039 A 
HETATM    5  C   UNL     1      40.851 -15.703   3.126  1.00  0.00     0.200 A 
HETATM    6  C   UNL     1      41.012 -15.960   4.667  1.00  0.00     0.266 A 
HETATM    7  O   UNL     1      40.348 -15.510   5.591  1.00  0.00    -0.269 OA
HETATM    8  N   UNL     1      42.071 -16.851   4.824  1.00  0.00    -0.323 N 
HETATM    9  C   UNL     1      42.302 -16.832   1.244  1.00  0.00     0.046 A 
HETATM   10 CL   UNL     1      41.492 -16.106  -0.088  1.00  0.00    -0.084 Cl
HETATM   11  C   UNL     1      43.360 -17.714   1.000  1.00  0.00     0.025 A 
HETATM   12  C   UNL     1      44.030 -18.347   2.063  1.00  0.00     0.011 A 
HETATM   13  H   UNL     1      42.356 -17.188   5.732  1.00  0.00     0.169 HD
ENDROOT
BRANCH   5  14
HETATM   14  O   UNL     1      39.613 -16.200   2.626  1.00  0.00    -0.371 OA
HETATM   15  H   UNL     1      39.778 -16.415   1.692  1.00  0.00     0.212 HD
ENDBRANCH   5  14
BRANCH   5  16
HETATM   16  C   UNL     1      41.086 -14.233   2.817  1.00  0.00     0.025 A 
HETATM   17  C   UNL     1      40.193 -13.249   2.234  1.00  0.00     0.003 A 
HETATM   18  C   UNL     1      40.889 -12.041   2.157  1.00  0.00     0.043 A 
HETATM   19  C   UNL     1      38.861 -13.253   1.755  1.00  0.00     0.014 A 
HETATM   20  C   UNL     1      40.328 -10.855   1.663  1.00  0.00     0.030 A 
HETATM   21  N   UNL     1      42.156 -12.270   2.625  1.00  0.00    -0.359 N 
HETATM   22  C   UNL     1      39.006 -10.894   1.219  1.00  0.00     0.002 A 
HETATM   23  C   UNL     1      38.281 -12.077   1.260  1.00  0.00     0.001 A 
HETATM   24  H   UNL     1      42.884 -11.570   2.651  1.00  0.00     0.166 HD
HETATM   25  C   UNL     1      42.310 -13.580   2.985  1.00  0.00     0.016 A 
HETATM   26  C   UNL     1      43.639 -14.087   3.429  1.00  0.00     0.069 C 
ENDBRANCH   5  16
TORSDOF 2
ENDMDL
