MODEL 1
REMARK VINA RESULT:     -10.1      0.000      0.000
REMARK  6 active torsions:
REMARK  status: ('A' for Active; 'I' for Inactive)
REMARK    1  A    between atoms: N_9  and  C_10 
REMARK    2  A    between atoms: C_10  and  C_11 
REMARK       I    between atoms: C_11  and  N_12 
REMARK    3  A    between atoms: N_12  and  C_13 
REMARK    4  A    between atoms: C_14  and  C_15 
REMARK       I    between atoms: C_15  and  N_16 
REMARK    5  A    between atoms: N_16  and  C_17 
REMARK    6  A    between atoms: C_17  and  C_18 
ROOT
HETATM    1  C   UNL     1      41.896 -14.252   1.661  1.00  0.00     0.240 C 
HETATM    2  N   UNL     1      41.242 -14.190   2.881  1.00  0.00    -0.325 N 
HETATM    3  O   UNL     1      42.529 -13.325   1.159  1.00  0.00    -0.271 OA
HETATM    4  H   UNL     1      41.180 -15.079   3.366  1.00  0.00     0.169 HD
ENDROOT
BRANCH   1   5
HETATM    5  C   UNL     1      41.818 -15.641   1.021  1.00  0.00     0.240 C 
BRANCH   5   6
HETATM    6  N   UNL     1      42.145 -16.628   2.014  1.00  0.00    -0.259 N 
HETATM    7  C   UNL     1      41.222 -17.140   2.870  1.00  0.00     0.326 C 
HETATM    8  N   UNL     1      41.817 -18.122   3.614  1.00  0.00    -0.320 N 
HETATM    9  O   UNL     1      40.063 -16.778   2.978  1.00  0.00    -0.247 OA
HETATM   10  C   UNL     1      43.248 -18.181   3.413  1.00  0.00     0.144 C 
HETATM   11  H   UNL     1      41.285 -18.687   4.260  1.00  0.00     0.165 HD
HETATM   12  C   UNL     1      43.709 -19.596   3.115  1.00  0.00    -0.014 A 
HETATM   13  C   UNL     1      43.374 -17.188   2.232  1.00  0.00     0.261 C 
HETATM   14  C   UNL     1      43.962 -17.568   4.632  1.00  0.00     0.047 C 
HETATM   15  C   UNL     1      44.344 -20.369   4.112  1.00  0.00    -0.049 A 
HETATM   16  C   UNL     1      43.488 -20.176   1.852  1.00  0.00     0.011 A 
HETATM   17  C   UNL     1      44.778 -21.671   3.812  1.00  0.00     0.007 A 
HETATM   18  C   UNL     1      44.648 -19.821   5.487  1.00  0.00     0.039 C 
HETATM   19  C   UNL     1      44.573 -22.216   2.547  1.00  0.00     0.001 A 
HETATM   20  C   UNL     1      43.925 -21.471   1.569  1.00  0.00     0.001 A 
HETATM   21  C   UNL     1      43.910 -18.528   5.815  1.00  0.00     0.008 C 
HETATM   22  O   UNL     1      44.404 -16.888   1.643  1.00  0.00    -0.270 OA
ENDBRANCH   5   6
ENDBRANCH   1   5
BRANCH   2  23
HETATM   23  C   UNL     1      41.193 -13.050   3.716  1.00  0.00     0.050 A 
HETATM   24  C   UNL     1      41.997 -12.785   4.841  1.00  0.00     0.058 A 
HETATM   25  C   UNL     1      41.839 -11.557   5.520  1.00  0.00     0.019 A 
HETATM   26  C   UNL     1      40.913 -10.603   5.102  1.00  0.00     0.001 A 
HETATM   27  C   UNL     1      40.143 -10.850   3.976  1.00  0.00     0.002 A 
HETATM   28  C   UNL     1      40.293 -12.054   3.284  1.00  0.00     0.030 A 
BRANCH  24  29
HETATM   29  C   UNL     1      43.180 -13.555   5.318  1.00  0.00     0.254 C 
HETATM   30  N   UNL     1      43.175 -13.999   6.612  1.00  0.00    -0.351 N 
HETATM   31  H   UNL     1      42.327 -13.895   7.167  1.00  0.00     0.163 HD
HETATM   32  O   UNL     1      44.163 -13.633   4.584  1.00  0.00    -0.268 OA
BRANCH  30  33
HETATM   33  C   UNL     1      44.392 -14.360   7.305  1.00  0.00     0.187 C 
BRANCH  33  34
HETATM   34  C   UNL     1      45.076 -13.187   7.905  1.00  0.00     0.070 A 
HETATM   35  O   UNL     1      46.297 -12.867   7.381  1.00  0.00    -0.325 OA
HETATM   36  C   UNL     1      46.794 -11.841   8.118  1.00  0.00     0.142 A 
HETATM   37  C   UNL     1      45.904 -11.481   9.103  1.00  0.00     0.027 A 
HETATM   38  C   UNL     1      44.797 -12.353   8.968  1.00  0.00     0.036 A 
ENDBRANCH  33  34
ENDBRANCH  30  33
ENDBRANCH  24  29
ENDBRANCH   2  23
TORSDOF 6
ENDMDL
MODEL 2
REMARK VINA RESULT:      -9.8      2.592      6.891
REMARK  6 active torsions:
REMARK  status: ('A' for Active; 'I' for Inactive)
REMARK    1  A    between atoms: N_9  and  C_10 
REMARK    2  A    between atoms: C_10  and  C_11 
REMARK       I    between atoms: C_11  and  N_12 
REMARK    3  A    between atoms: N_12  and  C_13 
REMARK    4  A    between atoms: C_14  and  C_15 
REMARK       I    between atoms: C_15  and  N_16 
REMARK    5  A    between atoms: N_16  and  C_17 
REMARK    6  A    between atoms: C_17  and  C_18 
ROOT
HETATM    1  C   UNL     1      41.544 -16.972   3.464  1.00  0.00     0.240 C 
HETATM    2  N   UNL     1      42.838 -17.261   3.062  1.00  0.00    -0.325 N 
HETATM    3  O   UNL     1      40.761 -17.790   3.945  1.00  0.00    -0.271 OA
HETATM    4  H   UNL     1      43.481 -16.480   3.135  1.00  0.00     0.169 HD
ENDROOT
BRANCH   1   5
HETATM    5  C   UNL     1      41.200 -15.486   3.321  1.00  0.00     0.240 C 
BRANCH   5   6
HETATM    6  N   UNL     1      40.977 -15.195   1.931  1.00  0.00    -0.259 N 
HETATM    7  C   UNL     1      39.737 -14.978   1.418  1.00  0.00     0.326 C 
HETATM    8  N   UNL     1      39.867 -14.626   0.103  1.00  0.00    -0.320 N 
HETATM    9  O   UNL     1      38.681 -15.094   2.016  1.00  0.00    -0.247 OA
HETATM   10  C   UNL     1      41.220 -14.780  -0.383  1.00  0.00     0.144 C 
HETATM   11  H   UNL     1      39.067 -14.346  -0.448  1.00  0.00     0.165 HD
HETATM   12  C   UNL     1      41.699 -13.530  -1.097  1.00  0.00    -0.014 A 
HETATM   13  C   UNL     1      41.932 -15.082   0.958  1.00  0.00     0.261 C 
HETATM   14  C   UNL     1      41.309 -16.039  -1.265  1.00  0.00     0.047 C 
HETATM   15  C   UNL     1      41.756 -13.486  -2.508  1.00  0.00    -0.049 A 
HETATM   16  C   UNL     1      42.068 -12.381  -0.373  1.00  0.00     0.011 A 
HETATM   17  C   UNL     1      42.217 -12.326  -3.151  1.00  0.00     0.007 A 
HETATM   18  C   UNL     1      41.406 -14.679  -3.367  1.00  0.00     0.039 C 
HETATM   19  C   UNL     1      42.603 -11.209  -2.413  1.00  0.00     0.001 A 
HETATM   20  C   UNL     1      42.525 -11.235  -1.026  1.00  0.00     0.001 A 
HETATM   21  C   UNL     1      40.663 -15.782  -2.622  1.00  0.00     0.008 C 
HETATM   22  O   UNL     1      43.131 -15.269   1.118  1.00  0.00    -0.270 OA
ENDBRANCH   5   6
ENDBRANCH   1   5
BRANCH   2  23
HETATM   23  C   UNL     1      43.440 -18.539   3.129  1.00  0.00     0.050 A 
HETATM   24  C   UNL     1      44.119 -19.101   4.226  1.00  0.00     0.058 A 
HETATM   25  C   UNL     1      44.607 -20.423   4.123  1.00  0.00     0.019 A 
HETATM   26  C   UNL     1      44.427 -21.182   2.969  1.00  0.00     0.001 A 
HETATM   27  C   UNL     1      43.730 -20.640   1.900  1.00  0.00     0.002 A 
HETATM   28  C   UNL     1      43.230 -19.339   1.987  1.00  0.00     0.030 A 
BRANCH  24  29
HETATM   29  C   UNL     1      44.227 -18.557   5.609  1.00  0.00     0.254 C 
HETATM   30  N   UNL     1      43.076 -18.159   6.233  1.00  0.00    -0.351 N 
HETATM   31  H   UNL     1      42.181 -18.352   5.786  1.00  0.00     0.163 HD
HETATM   32  O   UNL     1      45.348 -18.355   6.073  1.00  0.00    -0.268 OA
BRANCH  30  33
HETATM   33  C   UNL     1      43.085 -17.246   7.354  1.00  0.00     0.187 C 
BRANCH  33  34
HETATM   34  C   UNL     1      43.465 -15.866   6.961  1.00  0.00     0.070 A 
HETATM   35  O   UNL     1      42.503 -15.134   6.323  1.00  0.00    -0.325 OA
HETATM   36  C   UNL     1      43.069 -13.952   5.966  1.00  0.00     0.142 A 
HETATM   37  C   UNL     1      44.380 -13.903   6.378  1.00  0.00     0.027 A 
HETATM   38  C   UNL     1      44.637 -15.139   7.017  1.00  0.00     0.036 A 
ENDBRANCH  33  34
ENDBRANCH  30  33
ENDBRANCH  24  29
ENDBRANCH   2  23
TORSDOF 6
ENDMDL
MODEL 3
REMARK VINA RESULT:      -9.8      2.706      3.998
REMARK  6 active torsions:
REMARK  status: ('A' for Active; 'I' for Inactive)
REMARK    1  A    between atoms: N_9  and  C_10 
REMARK    2  A    between atoms: C_10  and  C_11 
REMARK       I    between atoms: C_11  and  N_12 
REMARK    3  A    between atoms: N_12  and  C_13 
REMARK    4  A    between atoms: C_14  and  C_15 
REMARK       I    between atoms: C_15  and  N_16 
REMARK    5  A    between atoms: N_16  and  C_17 
REMARK    6  A    between atoms: C_17  and  C_18 
ROOT
HETATM    1  C   UNL     1      42.035 -14.538   0.463  1.00  0.00     0.240 C 
HETATM    2  N   UNL     1      41.683 -13.709  -0.590  1.00  0.00    -0.325 N 
HETATM    3  O   UNL     1      42.513 -14.152   1.529  1.00  0.00    -0.271 OA
HETATM    4  H   UNL     1      40.921 -14.060  -1.160  1.00  0.00     0.169 HD
ENDROOT
BRANCH   1   5
HETATM    5  C   UNL     1      41.693 -16.007   0.195  1.00  0.00     0.240 C 
BRANCH   5   6
HETATM    6  N   UNL     1      42.045 -16.783   1.354  1.00  0.00    -0.259 N 
HETATM    7  C   UNL     1      41.140 -17.123   2.309  1.00  0.00     0.326 C 
HETATM    8  N   UNL     1      41.754 -17.941   3.218  1.00  0.00    -0.320 N 
HETATM    9  O   UNL     1      39.980 -16.751   2.366  1.00  0.00    -0.247 OA
HETATM   10  C   UNL     1      43.182 -18.033   3.006  1.00  0.00     0.144 C 
HETATM   11  H   UNL     1      41.238 -18.373   3.971  1.00  0.00     0.165 HD
HETATM   12  C   UNL     1      43.648 -19.476   2.978  1.00  0.00    -0.014 A 
HETATM   13  C   UNL     1      43.281 -17.286   1.654  1.00  0.00     0.261 C 
HETATM   14  C   UNL     1      43.913 -17.193   4.070  1.00  0.00     0.047 C 
HETATM   15  C   UNL     1      44.306 -20.040   4.094  1.00  0.00    -0.049 A 
HETATM   16  C   UNL     1      43.410 -20.290   1.855  1.00  0.00     0.011 A 
HETATM   17  C   UNL     1      44.744 -21.374   4.043  1.00  0.00     0.007 A 
HETATM   18  C   UNL     1      44.630 -19.236   5.331  1.00  0.00     0.039 C 
HETATM   19  C   UNL     1      44.521 -22.154   2.911  1.00  0.00     0.001 A 
HETATM   20  C   UNL     1      43.851 -21.614   1.819  1.00  0.00     0.001 A 
HETATM   21  C   UNL     1      43.888 -17.907   5.418  1.00  0.00     0.008 C 
HETATM   22  O   UNL     1      44.299 -17.101   0.999  1.00  0.00    -0.270 OA
ENDBRANCH   5   6
ENDBRANCH   1   5
BRANCH   2  23
HETATM   23  C   UNL     1      41.836 -12.303  -0.598  1.00  0.00     0.050 A 
HETATM   24  C   UNL     1      41.084 -11.362   0.131  1.00  0.00     0.058 A 
HETATM   25  C   UNL     1      41.424  -9.995   0.035  1.00  0.00     0.019 A 
HETATM   26  C   UNL     1      42.485  -9.557  -0.756  1.00  0.00     0.001 A 
HETATM   27  C   UNL     1      43.245 -10.487  -1.448  1.00  0.00     0.002 A 
HETATM   28  C   UNL     1      42.932 -11.845  -1.357  1.00  0.00     0.030 A 
BRANCH  24  29
HETATM   29  C   UNL     1      40.069 -11.627   1.189  1.00  0.00     0.254 C 
HETATM   30  N   UNL     1      40.517 -12.023   2.421  1.00  0.00    -0.351 N 
HETATM   31  H   UNL     1      41.517 -12.011   2.609  1.00  0.00     0.163 HD
HETATM   32  O   UNL     1      38.881 -11.620   0.876  1.00  0.00    -0.268 OA
BRANCH  30  33
HETATM   33  C   UNL     1      39.662 -12.707   3.365  1.00  0.00     0.187 C 
BRANCH  33  34
HETATM   34  C   UNL     1      40.421 -13.594   4.281  1.00  0.00     0.070 A 
HETATM   35  O   UNL     1      39.717 -14.623   4.845  1.00  0.00    -0.325 OA
HETATM   36  C   UNL     1      40.552 -15.251   5.713  1.00  0.00     0.142 A 
HETATM   37  C   UNL     1      41.790 -14.653   5.708  1.00  0.00     0.027 A 
HETATM   38  C   UNL     1      41.704 -13.581   4.787  1.00  0.00     0.036 A 
ENDBRANCH  33  34
ENDBRANCH  30  33
ENDBRANCH  24  29
ENDBRANCH   2  23
TORSDOF 6
ENDMDL
MODEL 4
REMARK VINA RESULT:      -9.5      3.334      6.456
REMARK  6 active torsions:
REMARK  status: ('A' for Active; 'I' for Inactive)
REMARK    1  A    between atoms: N_9  and  C_10 
REMARK    2  A    between atoms: C_10  and  C_11 
REMARK       I    between atoms: C_11  and  N_12 
REMARK    3  A    between atoms: N_12  and  C_13 
REMARK    4  A    between atoms: C_14  and  C_15 
REMARK       I    between atoms: C_15  and  N_16 
REMARK    5  A    between atoms: N_16  and  C_17 
REMARK    6  A    between atoms: C_17  and  C_18 
ROOT
HETATM    1  C   UNL     1      41.443 -14.579   0.575  1.00  0.00     0.240 C 
HETATM    2  N   UNL     1      40.099 -14.262   0.685  1.00  0.00    -0.325 N 
HETATM    3  O   UNL     1      42.367 -13.811   0.839  1.00  0.00    -0.271 OA
HETATM    4  H   UNL     1      39.500 -15.054   0.892  1.00  0.00     0.169 HD
ENDROOT
BRANCH   1   5
HETATM    5  C   UNL     1      41.674 -16.035   0.160  1.00  0.00     0.240 C 
BRANCH   5   6
HETATM    6  N   UNL     1      42.019 -16.800   1.328  1.00  0.00    -0.259 N 
HETATM    7  C   UNL     1      41.103 -17.165   2.262  1.00  0.00     0.326 C 
HETATM    8  N   UNL     1      41.718 -17.966   3.185  1.00  0.00    -0.320 N 
HETATM    9  O   UNL     1      39.932 -16.827   2.291  1.00  0.00    -0.247 OA
HETATM   10  C   UNL     1      43.153 -18.018   3.007  1.00  0.00     0.144 C 
HETATM   11  H   UNL     1      41.196 -18.412   3.926  1.00  0.00     0.165 HD
HETATM   12  C   UNL     1      43.659 -19.448   2.990  1.00  0.00    -0.014 A 
HETATM   13  C   UNL     1      43.262 -17.269   1.656  1.00  0.00     0.261 C 
HETATM   14  C   UNL     1      43.835 -17.158   4.087  1.00  0.00     0.047 C 
HETATM   15  C   UNL     1      44.306 -19.993   4.122  1.00  0.00    -0.049 A 
HETATM   16  C   UNL     1      43.470 -20.268   1.862  1.00  0.00     0.011 A 
HETATM   17  C   UNL     1      44.783 -21.314   4.082  1.00  0.00     0.007 A 
HETATM   18  C   UNL     1      44.579 -19.180   5.366  1.00  0.00     0.039 C 
HETATM   19  C   UNL     1      44.608 -22.100   2.945  1.00  0.00     0.001 A 
HETATM   20  C   UNL     1      43.949 -21.579   1.838  1.00  0.00     0.001 A 
HETATM   21  C   UNL     1      43.798 -17.872   5.434  1.00  0.00     0.008 C 
HETATM   22  O   UNL     1      44.289 -17.055   1.025  1.00  0.00    -0.270 OA
ENDBRANCH   5   6
ENDBRANCH   1   5
BRANCH   2  23
HETATM   23  C   UNL     1      39.594 -13.007   1.098  1.00  0.00     0.050 A 
HETATM   24  C   UNL     1      39.367 -11.876   0.291  1.00  0.00     0.058 A 
HETATM   25  C   UNL     1      38.800 -10.723   0.877  1.00  0.00     0.019 A 
HETATM   26  C   UNL     1      38.457 -10.680   2.227  1.00  0.00     0.001 A 
HETATM   27  C   UNL     1      38.651 -11.805   3.014  1.00  0.00     0.002 A 
HETATM   28  C   UNL     1      39.199 -12.959   2.450  1.00  0.00     0.030 A 
BRANCH  24  29
HETATM   29  C   UNL     1      39.452 -11.781  -1.193  1.00  0.00     0.254 C 
HETATM   30  N   UNL     1      38.500 -12.430  -1.932  1.00  0.00    -0.351 N 
HETATM   31  H   UNL     1      37.708 -12.854  -1.453  1.00  0.00     0.163 HD
HETATM   32  O   UNL     1      40.444 -11.252  -1.690  1.00  0.00    -0.268 OA
BRANCH  30  33
HETATM   33  C   UNL     1      38.708 -12.772  -3.322  1.00  0.00     0.187 C 
BRANCH  33  34
HETATM   34  C   UNL     1      39.131 -14.182  -3.505  1.00  0.00     0.070 A 
HETATM   35  O   UNL     1      38.215 -15.016  -4.084  1.00  0.00    -0.325 OA
HETATM   36  C   UNL     1      38.748 -16.265  -4.075  1.00  0.00     0.142 A 
HETATM   37  C   UNL     1      40.002 -16.249  -3.512  1.00  0.00     0.027 A 
HETATM   38  C   UNL     1      40.248 -14.906  -3.140  1.00  0.00     0.036 A 
ENDBRANCH  33  34
ENDBRANCH  30  33
ENDBRANCH  24  29
ENDBRANCH   2  23
TORSDOF 6
ENDMDL
MODEL 5
REMARK VINA RESULT:      -9.5      2.422      8.363
REMARK  6 active torsions:
REMARK  status: ('A' for Active; 'I' for Inactive)
REMARK    1  A    between atoms: N_9  and  C_10 
REMARK    2  A    between atoms: C_10  and  C_11 
REMARK       I    between atoms: C_11  and  N_12 
REMARK    3  A    between atoms: N_12  and  C_13 
REMARK    4  A    between atoms: C_14  and  C_15 
REMARK       I    between atoms: C_15  and  N_16 
REMARK    5  A    between atoms: N_16  and  C_17 
REMARK    6  A    between atoms: C_17  and  C_18 
ROOT
HETATM    1  C   UNL     1      42.473 -16.379   5.209  1.00  0.00     0.240 C 
HETATM    2  N   UNL     1      43.245 -16.598   4.079  1.00  0.00    -0.325 N 
HETATM    3  O   UNL     1      41.742 -17.219   5.732  1.00  0.00    -0.271 OA
HETATM    4  H   UNL     1      44.092 -16.042   4.040  1.00  0.00     0.169 HD
ENDROOT
BRANCH   1   5
HETATM    5  C   UNL     1      42.682 -14.982   5.803  1.00  0.00     0.240 C 
BRANCH   5   6
HETATM    6  N   UNL     1      42.093 -14.011   4.920  1.00  0.00    -0.259 N 
HETATM    7  C   UNL     1      42.803 -13.375   3.953  1.00  0.00     0.326 C 
HETATM    8  N   UNL     1      41.945 -12.600   3.222  1.00  0.00    -0.320 N 
HETATM    9  O   UNL     1      44.005 -13.460   3.770  1.00  0.00    -0.247 OA
HETATM   10  C   UNL     1      40.622 -12.536   3.804  1.00  0.00     0.144 C 
HETATM   11  H   UNL     1      42.256 -12.100   2.401  1.00  0.00     0.165 HD
HETATM   12  C   UNL     1      39.548 -12.836   2.775  1.00  0.00    -0.014 A 
HETATM   13  C   UNL     1      40.786 -13.607   4.910  1.00  0.00     0.261 C 
HETATM   14  C   UNL     1      40.426 -11.170   4.487  1.00  0.00     0.047 C 
HETATM   15  C   UNL     1      38.780 -11.790   2.214  1.00  0.00    -0.049 A 
HETATM   16  C   UNL     1      39.314 -14.153   2.337  1.00  0.00     0.011 A 
HETATM   17  C   UNL     1      37.779 -12.089   1.275  1.00  0.00     0.007 A 
HETATM   18  C   UNL     1      38.942 -10.351   2.643  1.00  0.00     0.039 C 
HETATM   19  C   UNL     1      37.546 -13.403   0.875  1.00  0.00     0.001 A 
HETATM   20  C   UNL     1      38.316 -14.433   1.403  1.00  0.00     0.001 A 
HETATM   21  C   UNL     1      40.212 -10.081   3.441  1.00  0.00     0.008 C 
HETATM   22  O   UNL     1      39.924 -13.976   5.698  1.00  0.00    -0.270 OA
ENDBRANCH   5   6
ENDBRANCH   1   5
BRANCH   2  23
HETATM   23  C   UNL     1      43.291 -17.812   3.354  1.00  0.00     0.050 A 
HETATM   24  C   UNL     1      42.606 -18.116   2.163  1.00  0.00     0.058 A 
HETATM   25  C   UNL     1      42.825 -19.370   1.551  1.00  0.00     0.019 A 
HETATM   26  C   UNL     1      43.703 -20.307   2.093  1.00  0.00     0.001 A 
HETATM   27  C   UNL     1      44.401 -19.994   3.250  1.00  0.00     0.002 A 
HETATM   28  C   UNL     1      44.208 -18.755   3.863  1.00  0.00     0.030 A 
BRANCH  24  29
HETATM   29  C   UNL     1      41.807 -17.194   1.308  1.00  0.00     0.254 C 
HETATM   30  N   UNL     1      42.460 -16.155   0.701  1.00  0.00    -0.351 N 
HETATM   31  H   UNL     1      43.476 -16.112   0.755  1.00  0.00     0.163 HD
HETATM   32  O   UNL     1      40.584 -17.316   1.300  1.00  0.00    -0.268 OA
BRANCH  30  33
HETATM   33  C   UNL     1      41.761 -14.983   0.223  1.00  0.00     0.187 C 
BRANCH  33  34
HETATM   34  C   UNL     1      41.465 -15.049  -1.230  1.00  0.00     0.070 A 
HETATM   35  O   UNL     1      41.814 -13.952  -1.967  1.00  0.00    -0.325 OA
HETATM   36  C   UNL     1      41.379 -14.166  -3.235  1.00  0.00     0.142 A 
HETATM   37  C   UNL     1      40.767 -15.393  -3.333  1.00  0.00     0.027 A 
HETATM   38  C   UNL     1      40.819 -15.961  -2.038  1.00  0.00     0.036 A 
ENDBRANCH  33  34
ENDBRANCH  30  33
ENDBRANCH  24  29
ENDBRANCH   2  23
TORSDOF 6
ENDMDL
MODEL 6
REMARK VINA RESULT:      -9.5      3.127      8.021
REMARK  6 active torsions:
REMARK  status: ('A' for Active; 'I' for Inactive)
REMARK    1  A    between atoms: N_9  and  C_10 
REMARK    2  A    between atoms: C_10  and  C_11 
REMARK       I    between atoms: C_11  and  N_12 
REMARK    3  A    between atoms: N_12  and  C_13 
REMARK    4  A    between atoms: C_14  and  C_15 
REMARK       I    between atoms: C_15  and  N_16 
REMARK    5  A    between atoms: N_16  and  C_17 
REMARK    6  A    between atoms: C_17  and  C_18 
ROOT
HETATM    1  C   UNL     1      40.776 -11.944   4.768  1.00  0.00     0.240 C 
HETATM    2  N   UNL     1      39.834 -12.899   4.421  1.00  0.00    -0.325 N 
HETATM    3  O   UNL     1      41.982 -12.036   4.541  1.00  0.00    -0.271 OA
HETATM    4  H   UNL     1      38.909 -12.523   4.237  1.00  0.00     0.169 HD
ENDROOT
BRANCH   1   5
HETATM    5  C   UNL     1      40.149 -10.702   5.407  1.00  0.00     0.240 C 
BRANCH   5   6
HETATM    6  N   UNL     1      40.475 -10.686   6.808  1.00  0.00    -0.259 N 
HETATM    7  C   UNL     1      39.882 -11.515   7.706  1.00  0.00     0.326 C 
HETATM    8  N   UNL     1      40.477 -11.332   8.924  1.00  0.00    -0.320 N 
HETATM    9  O   UNL     1      38.963 -12.283   7.479  1.00  0.00    -0.247 OA
HETATM   10  C   UNL     1      41.388 -10.208   8.934  1.00  0.00     0.144 C 
HETATM   11  H   UNL     1      40.238 -11.908   9.719  1.00  0.00     0.165 HD
HETATM   12  C   UNL     1      42.736 -10.591   9.517  1.00  0.00    -0.014 A 
HETATM   13  C   UNL     1      41.398  -9.884   7.420  1.00  0.00     0.261 C 
HETATM   14  C   UNL     1      40.736  -9.025   9.672  1.00  0.00     0.047 C 
HETATM   15  C   UNL     1      43.083 -10.211  10.833  1.00  0.00    -0.049 A 
HETATM   16  C   UNL     1      43.654 -11.355   8.772  1.00  0.00     0.011 A 
HETATM   17  C   UNL     1      44.341 -10.561  11.349  1.00  0.00     0.007 A 
HETATM   18  C   UNL     1      42.173  -9.367  11.695  1.00  0.00     0.039 C 
HETATM   19  C   UNL     1      45.246 -11.294  10.586  1.00  0.00     0.001 A 
HETATM   20  C   UNL     1      44.901 -11.694   9.300  1.00  0.00     0.001 A 
HETATM   21  C   UNL     1      40.743  -9.271  11.177  1.00  0.00     0.008 C 
HETATM   22  O   UNL     1      42.052  -9.008   6.869  1.00  0.00    -0.270 OA
ENDBRANCH   5   6
ENDBRANCH   1   5
BRANCH   2  23
HETATM   23  C   UNL     1      40.122 -14.122   3.771  1.00  0.00     0.050 A 
HETATM   24  C   UNL     1      40.916 -15.176   4.260  1.00  0.00     0.058 A 
HETATM   25  C   UNL     1      41.042 -16.351   3.485  1.00  0.00     0.019 A 
HETATM   26  C   UNL     1      40.397 -16.493   2.259  1.00  0.00     0.001 A 
HETATM   27  C   UNL     1      39.589 -15.467   1.793  1.00  0.00     0.002 A 
HETATM   28  C   UNL     1      39.442 -14.302   2.549  1.00  0.00     0.030 A 
BRANCH  24  29
HETATM   29  C   UNL     1      41.504 -15.321   5.621  1.00  0.00     0.254 C 
HETATM   30  N   UNL     1      42.803 -14.931   5.803  1.00  0.00    -0.351 N 
HETATM   31  H   UNL     1      43.285 -14.451   5.044  1.00  0.00     0.163 HD
HETATM   32  O   UNL     1      40.854 -15.914   6.479  1.00  0.00    -0.268 OA
BRANCH  30  33
HETATM   33  C   UNL     1      43.600 -15.405   6.913  1.00  0.00     0.187 C 
BRANCH  33  34
HETATM   34  C   UNL     1      43.849 -16.867   6.851  1.00  0.00     0.070 A 
HETATM   35  O   UNL     1      43.438 -17.594   7.933  1.00  0.00    -0.325 OA
HETATM   36  C   UNL     1      43.837 -18.876   7.730  1.00  0.00     0.142 A 
HETATM   37  C   UNL     1      44.488 -18.991   6.524  1.00  0.00     0.027 A 
HETATM   38  C   UNL     1      44.499 -17.694   5.959  1.00  0.00     0.036 A 
ENDBRANCH  33  34
ENDBRANCH  30  33
ENDBRANCH  24  29
ENDBRANCH   2  23
TORSDOF 6
ENDMDL
MODEL 7
REMARK VINA RESULT:      -9.4      2.614      5.834
REMARK  6 active torsions:
REMARK  status: ('A' for Active; 'I' for Inactive)
REMARK    1  A    between atoms: N_9  and  C_10 
REMARK    2  A    between atoms: C_10  and  C_11 
REMARK       I    between atoms: C_11  and  N_12 
REMARK    3  A    between atoms: N_12  and  C_13 
REMARK    4  A    between atoms: C_14  and  C_15 
REMARK       I    between atoms: C_15  and  N_16 
REMARK    5  A    between atoms: N_16  and  C_17 
REMARK    6  A    between atoms: C_17  and  C_18 
ROOT
HETATM    1  C   UNL     1      40.512 -13.426   4.986  1.00  0.00     0.240 C 
HETATM    2  N   UNL     1      40.630 -12.511   3.952  1.00  0.00    -0.325 N 
HETATM    3  O   UNL     1      39.445 -13.858   5.420  1.00  0.00    -0.271 OA
HETATM    4  H   UNL     1      41.485 -12.600   3.414  1.00  0.00     0.169 HD
ENDROOT
BRANCH   1   5
HETATM    5  C   UNL     1      41.869 -13.916   5.498  1.00  0.00     0.240 C 
BRANCH   5   6
HETATM    6  N   UNL     1      42.346 -14.953   4.623  1.00  0.00    -0.259 N 
HETATM    7  C   UNL     1      43.233 -14.716   3.622  1.00  0.00     0.326 C 
HETATM    8  N   UNL     1      43.566 -15.911   3.044  1.00  0.00    -0.320 N 
HETATM    9  O   UNL     1      43.653 -13.625   3.276  1.00  0.00    -0.247 OA
HETATM   10  C   UNL     1      42.751 -17.006   3.523  1.00  0.00     0.144 C 
HETATM   11  H   UNL     1      44.274 -15.969   2.326  1.00  0.00     0.165 HD
HETATM   12  C   UNL     1      43.603 -18.184   3.956  1.00  0.00    -0.014 A 
HETATM   13  C   UNL     1      42.008 -16.278   4.670  1.00  0.00     0.261 C 
HETATM   14  C   UNL     1      41.716 -17.384   2.448  1.00  0.00     0.047 C 
HETATM   15  C   UNL     1      43.723 -19.325   3.130  1.00  0.00    -0.049 A 
HETATM   16  C   UNL     1      44.313 -18.155   5.171  1.00  0.00     0.011 A 
HETATM   17  C   UNL     1      44.503 -20.412   3.555  1.00  0.00     0.007 A 
HETATM   18  C   UNL     1      42.976 -19.457   1.823  1.00  0.00     0.039 C 
HETATM   19  C   UNL     1      45.176 -20.373   4.774  1.00  0.00     0.001 A 
HETATM   20  C   UNL     1      45.084 -19.244   5.579  1.00  0.00     0.001 A 
HETATM   21  C   UNL     1      42.387 -18.147   1.311  1.00  0.00     0.008 C 
HETATM   22  O   UNL     1      41.195 -16.775   5.439  1.00  0.00    -0.270 OA
ENDBRANCH   5   6
ENDBRANCH   1   5
BRANCH   2  23
HETATM   23  C   UNL     1      39.544 -11.930   3.257  1.00  0.00     0.050 A 
HETATM   24  C   UNL     1      38.910 -12.429   2.104  1.00  0.00     0.058 A 
HETATM   25  C   UNL     1      37.796 -11.733   1.583  1.00  0.00     0.019 A 
HETATM   26  C   UNL     1      37.310 -10.573   2.183  1.00  0.00     0.001 A 
HETATM   27  C   UNL     1      37.916 -10.100   3.337  1.00  0.00     0.002 A 
HETATM   28  C   UNL     1      39.011 -10.780   3.875  1.00  0.00     0.030 A 
BRANCH  24  29
HETATM   29  C   UNL     1      39.121 -13.747   1.443  1.00  0.00     0.254 C 
HETATM   30  N   UNL     1      40.369 -14.025   0.952  1.00  0.00    -0.351 N 
HETATM   31  H   UNL     1      41.132 -13.382   1.154  1.00  0.00     0.163 HD
HETATM   32  O   UNL     1      38.144 -14.463   1.238  1.00  0.00    -0.268 OA
BRANCH  30  33
HETATM   33  C   UNL     1      40.589 -15.037  -0.056  1.00  0.00     0.187 C 
BRANCH  33  34
HETATM   34  C   UNL     1      41.144 -14.477  -1.314  1.00  0.00     0.070 A 
HETATM   35  O   UNL     1      42.039 -13.453  -1.175  1.00  0.00    -0.325 OA
HETATM   36  C   UNL     1      42.351 -13.021  -2.424  1.00  0.00     0.142 A 
HETATM   37  C   UNL     1      41.683 -13.761  -3.370  1.00  0.00     0.027 A 
HETATM   38  C   UNL     1      40.900 -14.698  -2.654  1.00  0.00     0.036 A 
ENDBRANCH  33  34
ENDBRANCH  30  33
ENDBRANCH  24  29
ENDBRANCH   2  23
TORSDOF 6
ENDMDL
MODEL 8
REMARK VINA RESULT:      -9.2      2.928      7.394
REMARK  6 active torsions:
REMARK  status: ('A' for Active; 'I' for Inactive)
REMARK    1  A    between atoms: N_9  and  C_10 
REMARK    2  A    between atoms: C_10  and  C_11 
REMARK       I    between atoms: C_11  and  N_12 
REMARK    3  A    between atoms: N_12  and  C_13 
REMARK    4  A    between atoms: C_14  and  C_15 
REMARK       I    between atoms: C_15  and  N_16 
REMARK    5  A    between atoms: N_16  and  C_17 
REMARK    6  A    between atoms: C_17  and  C_18 
ROOT
HETATM    1  C   UNL     1      42.895 -16.503   2.617  1.00  0.00     0.240 C 
HETATM    2  N   UNL     1      42.495 -17.714   3.157  1.00  0.00    -0.325 N 
HETATM    3  O   UNL     1      43.988 -16.297   2.093  1.00  0.00    -0.271 OA
HETATM    4  H   UNL     1      41.494 -17.877   3.118  1.00  0.00     0.169 HD
ENDROOT
BRANCH   1   5
HETATM    5  C   UNL     1      41.791 -15.442   2.668  1.00  0.00     0.240 C 
BRANCH   5   6
HETATM    6  N   UNL     1      41.370 -15.147   1.324  1.00  0.00    -0.259 N 
HETATM    7  C   UNL     1      40.968 -16.111   0.455  1.00  0.00     0.326 C 
HETATM    8  N   UNL     1      40.535 -15.507  -0.693  1.00  0.00    -0.320 N 
HETATM    9  O   UNL     1      41.000 -17.314   0.650  1.00  0.00    -0.247 OA
HETATM   10  C   UNL     1      40.814 -14.088  -0.714  1.00  0.00     0.144 C 
HETATM   11  H   UNL     1      40.119 -16.041  -1.444  1.00  0.00     0.165 HD
HETATM   12  C   UNL     1      39.580 -13.285  -1.082  1.00  0.00    -0.014 A 
HETATM   13  C   UNL     1      41.300 -13.910   0.745  1.00  0.00     0.261 C 
HETATM   14  C   UNL     1      42.004 -13.812  -1.651  1.00  0.00     0.047 C 
HETATM   15  C   UNL     1      39.437 -12.744  -2.380  1.00  0.00    -0.049 A 
HETATM   16  C   UNL     1      38.542 -13.088  -0.152  1.00  0.00     0.011 A 
HETATM   17  C   UNL     1      38.295 -11.990  -2.696  1.00  0.00     0.007 A 
HETATM   18  C   UNL     1      40.511 -12.880  -3.434  1.00  0.00     0.039 C 
HETATM   19  C   UNL     1      37.292 -11.784  -1.752  1.00  0.00     0.001 A 
HETATM   20  C   UNL     1      37.414 -12.337  -0.483  1.00  0.00     0.001 A 
HETATM   21  C   UNL     1      41.569 -13.928  -3.108  1.00  0.00     0.008 C 
HETATM   22  O   UNL     1      41.642 -12.860   1.274  1.00  0.00    -0.270 OA
ENDBRANCH   5   6
ENDBRANCH   1   5
BRANCH   2  23
HETATM   23  C   UNL     1      43.289 -18.883   3.199  1.00  0.00     0.050 A 
HETATM   24  C   UNL     1      44.121 -19.307   4.253  1.00  0.00     0.058 A 
HETATM   25  C   UNL     1      44.798 -20.541   4.134  1.00  0.00     0.019 A 
HETATM   26  C   UNL     1      44.658 -21.348   3.006  1.00  0.00     0.001 A 
HETATM   27  C   UNL     1      43.814 -20.945   1.983  1.00  0.00     0.002 A 
HETATM   28  C   UNL     1      43.127 -19.734   2.087  1.00  0.00     0.030 A 
BRANCH  24  29
HETATM   29  C   UNL     1      44.239 -18.719   5.617  1.00  0.00     0.254 C 
HETATM   30  N   UNL     1      43.085 -18.381   6.271  1.00  0.00    -0.351 N 
HETATM   31  H   UNL     1      42.191 -18.646   5.862  1.00  0.00     0.163 HD
HETATM   32  O   UNL     1      45.358 -18.430   6.035  1.00  0.00    -0.268 OA
BRANCH  30  33
HETATM   33  C   UNL     1      43.071 -17.438   7.367  1.00  0.00     0.187 C 
BRANCH  33  34
HETATM   34  C   UNL     1      43.301 -16.042   6.920  1.00  0.00     0.070 A 
HETATM   35  O   UNL     1      42.291 -15.465   6.200  1.00  0.00    -0.325 OA
HETATM   36  C   UNL     1      42.727 -14.240   5.808  1.00  0.00     0.142 A 
HETATM   37  C   UNL     1      43.999 -14.010   6.277  1.00  0.00     0.027 A 
HETATM   38  C   UNL     1      44.371 -15.174   6.991  1.00  0.00     0.036 A 
ENDBRANCH  33  34
ENDBRANCH  30  33
ENDBRANCH  24  29
ENDBRANCH   2  23
TORSDOF 6
ENDMDL
MODEL 9
REMARK VINA RESULT:      -9.2      2.602      5.965
REMARK  6 active torsions:
REMARK  status: ('A' for Active; 'I' for Inactive)
REMARK    1  A    between atoms: N_9  and  C_10 
REMARK    2  A    between atoms: C_10  and  C_11 
REMARK       I    between atoms: C_11  and  N_12 
REMARK    3  A    between atoms: N_12  and  C_13 
REMARK    4  A    between atoms: C_14  and  C_15 
REMARK       I    between atoms: C_15  and  N_16 
REMARK    5  A    between atoms: N_16  and  C_17 
REMARK    6  A    between atoms: C_17  and  C_18 
ROOT
HETATM    1  C   UNL     1      41.020 -12.008   3.629  1.00  0.00     0.240 C 
HETATM    2  N   UNL     1      39.653 -11.918   3.833  1.00  0.00    -0.325 N 
HETATM    3  O   UNL     1      41.576 -11.867   2.541  1.00  0.00    -0.271 OA
HETATM    4  H   UNL     1      39.391 -11.595   4.759  1.00  0.00     0.169 HD
ENDROOT
BRANCH   1   5
HETATM    5  C   UNL     1      41.797 -12.229   4.931  1.00  0.00     0.240 C 
BRANCH   5   6
HETATM    6  N   UNL     1      42.072 -13.633   5.073  1.00  0.00    -0.259 N 
HETATM    7  C   UNL     1      41.159 -14.513   5.561  1.00  0.00     0.326 C 
HETATM    8  N   UNL     1      41.681 -15.774   5.474  1.00  0.00    -0.320 N 
HETATM    9  O   UNL     1      40.065 -14.233   6.020  1.00  0.00    -0.247 OA
HETATM   10  C   UNL     1      43.075 -15.774   5.088  1.00  0.00     0.144 C 
HETATM   11  H   UNL     1      41.133 -16.588   5.713  1.00  0.00     0.165 HD
HETATM   12  C   UNL     1      43.333 -16.730   3.938  1.00  0.00    -0.014 A 
HETATM   13  C   UNL     1      43.235 -14.273   4.741  1.00  0.00     0.261 C 
HETATM   14  C   UNL     1      43.949 -16.075   6.319  1.00  0.00     0.047 C 
HETATM   15  C   UNL     1      43.940 -17.984   4.171  1.00  0.00    -0.049 A 
HETATM   16  C   UNL     1      42.949 -16.400   2.625  1.00  0.00     0.011 A 
HETATM   17  C   UNL     1      44.186 -18.848   3.091  1.00  0.00     0.007 A 
HETATM   18  C   UNL     1      44.412 -18.411   5.541  1.00  0.00     0.039 C 
HETATM   19  C   UNL     1      43.822 -18.491   1.795  1.00  0.00     0.001 A 
HETATM   20  C   UNL     1      43.201 -17.270   1.563  1.00  0.00     0.001 A 
HETATM   21  C   UNL     1      43.866 -17.555   6.678  1.00  0.00     0.008 C 
HETATM   22  O   UNL     1      44.248 -13.729   4.320  1.00  0.00    -0.270 OA
ENDBRANCH   5   6
ENDBRANCH   1   5
BRANCH   2  23
HETATM   23  C   UNL     1      38.698 -11.667   2.820  1.00  0.00     0.050 A 
HETATM   24  C   UNL     1      38.404 -12.482   1.711  1.00  0.00     0.058 A 
HETATM   25  C   UNL     1      37.370 -12.089   0.832  1.00  0.00     0.019 A 
HETATM   26  C   UNL     1      36.634 -10.924   1.039  1.00  0.00     0.001 A 
HETATM   27  C   UNL     1      36.903 -10.139   2.149  1.00  0.00     0.002 A 
HETATM   28  C   UNL     1      37.914 -10.516   3.037  1.00  0.00     0.030 A 
BRANCH  24  29
HETATM   29  C   UNL     1      38.905 -13.856   1.428  1.00  0.00     0.254 C 
HETATM   30  N   UNL     1      40.170 -13.984   0.920  1.00  0.00    -0.351 N 
HETATM   31  H   UNL     1      40.764 -13.159   0.862  1.00  0.00     0.163 HD
HETATM   32  O   UNL     1      38.120 -14.797   1.524  1.00  0.00    -0.268 OA
BRANCH  30  33
HETATM   33  C   UNL     1      40.598 -15.174   0.219  1.00  0.00     0.187 C 
BRANCH  33  34
HETATM   34  C   UNL     1      40.972 -14.900  -1.191  1.00  0.00     0.070 A 
HETATM   35  O   UNL     1      41.359 -13.620  -1.475  1.00  0.00    -0.325 OA
HETATM   36  C   UNL     1      41.564 -13.552  -2.816  1.00  0.00     0.142 A 
HETATM   37  C   UNL     1      41.328 -14.773  -3.402  1.00  0.00     0.027 A 
HETATM   38  C   UNL     1      40.942 -15.642  -2.354  1.00  0.00     0.036 A 
ENDBRANCH  33  34
ENDBRANCH  30  33
ENDBRANCH  24  29
ENDBRANCH   2  23
TORSDOF 6
ENDMDL
MODEL 10
REMARK VINA RESULT:      -9.2      2.993      7.702
REMARK  6 active torsions:
REMARK  status: ('A' for Active; 'I' for Inactive)
REMARK    1  A    between atoms: N_9  and  C_10 
REMARK    2  A    between atoms: C_10  and  C_11 
REMARK       I    between atoms: C_11  and  N_12 
REMARK    3  A    between atoms: N_12  and  C_13 
REMARK    4  A    between atoms: C_14  and  C_15 
REMARK       I    between atoms: C_15  and  N_16 
REMARK    5  A    between atoms: N_16  and  C_17 
REMARK    6  A    between atoms: C_17  and  C_18 
ROOT
HETATM    1  C   UNL     1      40.807 -13.290   3.948  1.00  0.00     0.240 C 
HETATM    2  N   UNL     1      42.172 -13.385   4.169  1.00  0.00    -0.325 N 
HETATM    3  O   UNL     1      39.966 -14.048   4.430  1.00  0.00    -0.271 OA
HETATM    4  H   UNL     1      42.663 -12.499   4.122  1.00  0.00     0.169 HD
ENDROOT
BRANCH   1   5
HETATM    5  C   UNL     1      40.431 -12.078   3.091  1.00  0.00     0.240 C 
BRANCH   5   6
HETATM    6  N   UNL     1      40.416 -12.476   1.709  1.00  0.00    -0.259 N 
HETATM    7  C   UNL     1      39.264 -12.698   1.024  1.00  0.00     0.326 C 
HETATM    8  N   UNL     1      39.578 -12.957  -0.282  1.00  0.00    -0.320 N 
HETATM    9  O   UNL     1      38.137 -12.689   1.489  1.00  0.00    -0.247 OA
HETATM   10  C   UNL     1      41.001 -13.110  -0.492  1.00  0.00     0.144 C 
HETATM   11  H   UNL     1      38.859 -13.074  -0.983  1.00  0.00     0.165 HD
HETATM   12  C   UNL     1      41.486 -12.256  -1.648  1.00  0.00    -0.014 A 
HETATM   13  C   UNL     1      41.505 -12.670   0.905  1.00  0.00     0.261 C 
HETATM   14  C   UNL     1      41.336 -14.602  -0.673  1.00  0.00     0.047 C 
HETATM   15  C   UNL     1      41.770 -12.840  -2.903  1.00  0.00    -0.049 A 
HETATM   16  C   UNL     1      41.637 -10.863  -1.504  1.00  0.00     0.011 A 
HETATM   17  C   UNL     1      42.234 -12.036  -3.956  1.00  0.00     0.007 A 
HETATM   18  C   UNL     1      41.665 -14.329  -3.141  1.00  0.00     0.039 C 
HETATM   19  C   UNL     1      42.402 -10.664  -3.785  1.00  0.00     0.001 A 
HETATM   20  C   UNL     1      42.099 -10.078  -2.561  1.00  0.00     0.001 A 
HETATM   21  C   UNL     1      40.901 -15.078  -2.055  1.00  0.00     0.008 C 
HETATM   22  O   UNL     1      42.673 -12.587   1.262  1.00  0.00    -0.270 OA
ENDBRANCH   5   6
ENDBRANCH   1   5
BRANCH   2  23
HETATM   23  C   UNL     1      42.796 -14.374   4.964  1.00  0.00     0.050 A 
HETATM   24  C   UNL     1      42.955 -15.737   4.654  1.00  0.00     0.058 A 
HETATM   25  C   UNL     1      43.662 -16.564   5.555  1.00  0.00     0.019 A 
HETATM   26  C   UNL     1      44.209 -16.064   6.735  1.00  0.00     0.001 A 
HETATM   27  C   UNL     1      44.079 -14.714   7.025  1.00  0.00     0.002 A 
HETATM   28  C   UNL     1      43.394 -13.878   6.141  1.00  0.00     0.030 A 
BRANCH  24  29
HETATM   29  C   UNL     1      42.651 -16.422   3.366  1.00  0.00     0.254 C 
HETATM   30  N   UNL     1      42.641 -17.791   3.355  1.00  0.00    -0.351 N 
HETATM   31  H   UNL     1      42.724 -18.292   4.238  1.00  0.00     0.163 HD
HETATM   32  O   UNL     1      42.565 -15.741   2.346  1.00  0.00    -0.268 OA
BRANCH  30  33
HETATM   33  C   UNL     1      42.789 -18.550   2.134  1.00  0.00     0.187 C 
BRANCH  33  34
HETATM   34  C   UNL     1      43.422 -19.874   2.359  1.00  0.00     0.070 A 
HETATM   35  O   UNL     1      44.246 -19.971   3.446  1.00  0.00    -0.325 OA
HETATM   36  C   UNL     1      44.795 -21.213   3.423  1.00  0.00     0.142 A 
HETATM   37  C   UNL     1      44.327 -21.926   2.344  1.00  0.00     0.027 A 
HETATM   38  C   UNL     1      43.445 -21.060   1.655  1.00  0.00     0.036 A 
ENDBRANCH  33  34
ENDBRANCH  30  33
ENDBRANCH  24  29
ENDBRANCH   2  23
TORSDOF 6
ENDMDL
