MODEL 1
REMARK VINA RESULT:      -8.5      0.000      0.000
REMARK  5 active torsions:
REMARK  status: ('A' for Active; 'I' for Inactive)
REMARK    1  A    between atoms: C_4  and  N_5 
REMARK       I    between atoms: N_5  and  C_6 
REMARK       I    between atoms: C_6  and  N_7 
REMARK    2  A    between atoms: N_7  and  C_8 
REMARK    3  A    between atoms: C_11  and  C_12 
REMARK    4  A    between atoms: C_12  and  C_13 
REMARK       I    between atoms: C_13  and  N_14 
REMARK    5  A    between atoms: N_14  and  C_15 
ROOT
HETATM    1  C   UNL     1      41.446 -13.040   2.337  1.00  0.00     0.174 A 
HETATM    2  S   UNL     1      39.751 -12.926   2.166  1.00  0.00    -0.062 SA
HETATM    3  C   UNL     1      39.795 -14.252   1.084  1.00  0.00     0.081 A 
HETATM    4  C   UNL     1      41.090 -14.720   0.957  1.00  0.00     0.052 A 
HETATM    5  N   UNL     1      42.034 -14.030   1.712  1.00  0.00    -0.228 NA
ENDROOT
BRANCH   1   6
HETATM    6  N   UNL     1      41.976 -12.061   3.133  1.00  0.00    -0.287 N 
HETATM    7  C   UNL     1      41.447 -11.662   4.303  1.00  0.00     0.326 C 
HETATM    8  N   UNL     1      41.030 -12.518   5.265  1.00  0.00    -0.309 N 
HETATM    9  O   UNL     1      41.373 -10.450   4.531  1.00  0.00    -0.247 OA
HETATM   10  H   UNL     1      40.502 -12.025   5.975  1.00  0.00     0.170 HD
HETATM   11  H   UNL     1      42.480 -11.346   2.628  1.00  0.00     0.172 HD
BRANCH   8  12
HETATM   12  C   UNL     1      41.386 -13.842   5.593  1.00  0.00     0.036 A 
HETATM   13  C   UNL     1      42.653 -14.247   6.019  1.00  0.00     0.036 A 
HETATM   14  C   UNL     1      42.925 -15.594   6.312  1.00  0.00    -0.060 A 
HETATM   15  C   UNL     1      44.321 -16.014   6.665  1.00  0.00     0.048 C 
HETATM   16  C   UNL     1      41.899 -16.536   6.214  1.00  0.00     0.007 A 
HETATM   17  C   UNL     1      40.616 -16.135   5.853  1.00  0.00     0.003 A 
HETATM   18  C   UNL     1      40.363 -14.798   5.539  1.00  0.00     0.029 A 
ENDBRANCH   8  12
ENDBRANCH   1   6
BRANCH   4  19
HETATM   19  C   UNL     1      41.518 -15.898   0.158  1.00  0.00     0.163 C 
BRANCH  19  20
HETATM   20  C   UNL     1      41.684 -17.145   1.008  1.00  0.00     0.227 C 
HETATM   21  N   UNL     1      43.011 -17.405   1.311  1.00  0.00    -0.327 N 
HETATM   22  H   UNL     1      43.692 -16.915   0.739  1.00  0.00     0.169 HD
HETATM   23  O   UNL     1      40.706 -17.773   1.406  1.00  0.00    -0.273 OA
BRANCH  21  24
HETATM   24  C   UNL     1      43.520 -18.331   2.241  1.00  0.00     0.036 A 
HETATM   25  C   UNL     1      43.748 -19.635   1.779  1.00  0.00     0.056 A 
HETATM   26  C   UNL     1      44.270 -20.606   2.635  1.00  0.00     0.074 A 
HETATM   27 CL   UNL     1      44.540 -22.199   2.040  1.00  0.00    -0.081 Cl
HETATM   28  C   UNL     1      44.564 -20.282   3.955  1.00  0.00     0.138 A 
HETATM   29  F   UNL     1      45.063 -21.201   4.794  1.00  0.00    -0.204 F 
HETATM   30  C   UNL     1      44.343 -18.994   4.427  1.00  0.00     0.046 A 
HETATM   31  C   UNL     1      43.824 -18.018   3.569  1.00  0.00     0.032 A 
ENDBRANCH  21  24
ENDBRANCH  19  20
ENDBRANCH   4  19
TORSDOF 5
ENDMDL
MODEL 2
REMARK VINA RESULT:      -8.2      1.137      1.453
REMARK  5 active torsions:
REMARK  status: ('A' for Active; 'I' for Inactive)
REMARK    1  A    between atoms: C_4  and  N_5 
REMARK       I    between atoms: N_5  and  C_6 
REMARK       I    between atoms: C_6  and  N_7 
REMARK    2  A    between atoms: N_7  and  C_8 
REMARK    3  A    between atoms: C_11  and  C_12 
REMARK    4  A    between atoms: C_12  and  C_13 
REMARK       I    between atoms: C_13  and  N_14 
REMARK    5  A    between atoms: N_14  and  C_15 
ROOT
HETATM    1  C   UNL     1      41.307 -13.000   2.077  1.00  0.00     0.174 A 
HETATM    2  S   UNL     1      39.654 -12.957   1.652  1.00  0.00    -0.062 SA
HETATM    3  C   UNL     1      39.857 -14.430   0.805  1.00  0.00     0.081 A 
HETATM    4  C   UNL     1      41.158 -14.879   0.938  1.00  0.00     0.052 A 
HETATM    5  N   UNL     1      41.981 -14.059   1.702  1.00  0.00    -0.228 NA
ENDROOT
BRANCH   1   6
HETATM    6  N   UNL     1      41.714 -11.899   2.779  1.00  0.00    -0.287 N 
HETATM    7  C   UNL     1      41.157 -11.480   3.929  1.00  0.00     0.326 C 
HETATM    8  N   UNL     1      40.875 -12.303   4.966  1.00  0.00    -0.309 N 
HETATM    9  O   UNL     1      40.925 -10.273   4.064  1.00  0.00    -0.247 OA
HETATM   10  H   UNL     1      40.299 -11.828   5.650  1.00  0.00     0.170 HD
HETATM   11  H   UNL     1      42.109 -11.167   2.207  1.00  0.00     0.172 HD
BRANCH   8  12
HETATM   12  C   UNL     1      41.412 -13.537   5.386  1.00  0.00     0.036 A 
HETATM   13  C   UNL     1      42.690 -13.712   5.920  1.00  0.00     0.036 A 
HETATM   14  C   UNL     1      43.151 -14.984   6.301  1.00  0.00    -0.060 A 
HETATM   15  C   UNL     1      44.564 -15.157   6.773  1.00  0.00     0.048 C 
HETATM   16  C   UNL     1      42.299 -16.084   6.180  1.00  0.00     0.007 A 
HETATM   17  C   UNL     1      41.000 -15.913   5.709  1.00  0.00     0.003 A 
HETATM   18  C   UNL     1      40.562 -14.648   5.310  1.00  0.00     0.029 A 
ENDBRANCH   8  12
ENDBRANCH   1   6
BRANCH   4  19
HETATM   19  C   UNL     1      41.700 -16.155   0.398  1.00  0.00     0.163 C 
BRANCH  19  20
HETATM   20  C   UNL     1      41.850 -17.219   1.471  1.00  0.00     0.227 C 
HETATM   21  N   UNL     1      43.004 -17.970   1.312  1.00  0.00    -0.327 N 
HETATM   22  H   UNL     1      43.445 -17.902   0.400  1.00  0.00     0.169 HD
HETATM   23  O   UNL     1      41.037 -17.310   2.388  1.00  0.00    -0.273 OA
BRANCH  21  24
HETATM   24  C   UNL     1      43.574 -18.882   2.221  1.00  0.00     0.036 A 
HETATM   25  C   UNL     1      43.970 -18.373   3.466  1.00  0.00     0.056 A 
HETATM   26  C   UNL     1      44.525 -19.218   4.429  1.00  0.00     0.074 A 
HETATM   27 CL   UNL     1      45.003 -18.567   5.949  1.00  0.00    -0.081 Cl
HETATM   28  C   UNL     1      44.690 -20.571   4.153  1.00  0.00     0.138 A 
HETATM   29  F   UNL     1      45.224 -21.399   5.063  1.00  0.00    -0.204 F 
HETATM   30  C   UNL     1      44.302 -21.089   2.923  1.00  0.00     0.046 A 
HETATM   31  C   UNL     1      43.741 -20.245   1.959  1.00  0.00     0.032 A 
ENDBRANCH  21  24
ENDBRANCH  19  20
ENDBRANCH   4  19
TORSDOF 5
ENDMDL
MODEL 3
REMARK VINA RESULT:      -8.1      0.735      1.366
REMARK  5 active torsions:
REMARK  status: ('A' for Active; 'I' for Inactive)
REMARK    1  A    between atoms: C_4  and  N_5 
REMARK       I    between atoms: N_5  and  C_6 
REMARK       I    between atoms: C_6  and  N_7 
REMARK    2  A    between atoms: N_7  and  C_8 
REMARK    3  A    between atoms: C_11  and  C_12 
REMARK    4  A    between atoms: C_12  and  C_13 
REMARK       I    between atoms: C_13  and  N_14 
REMARK    5  A    between atoms: N_14  and  C_15 
ROOT
HETATM    1  C   UNL     1      40.991 -12.515   2.609  1.00  0.00     0.174 A 
HETATM    2  S   UNL     1      39.290 -12.394   2.542  1.00  0.00    -0.062 SA
HETATM    3  C   UNL     1      39.252 -13.789   1.552  1.00  0.00     0.081 A 
HETATM    4  C   UNL     1      40.533 -14.279   1.373  1.00  0.00     0.052 A 
HETATM    5  N   UNL     1      41.529 -13.551   2.016  1.00  0.00    -0.228 NA
ENDROOT
BRANCH   1   6
HETATM    6  N   UNL     1      41.579 -11.491   3.301  1.00  0.00    -0.287 N 
HETATM    7  C   UNL     1      41.270 -11.149   4.564  1.00  0.00     0.326 C 
HETATM    8  N   UNL     1      41.147 -12.045   5.572  1.00  0.00    -0.309 N 
HETATM    9  O   UNL     1      41.130  -9.951   4.830  1.00  0.00    -0.247 OA
HETATM   10  H   UNL     1      40.735 -11.608   6.387  1.00  0.00     0.170 HD
HETATM   11  H   UNL     1      41.896 -10.729   2.719  1.00  0.00     0.172 HD
BRANCH   8  12
HETATM   12  C   UNL     1      41.688 -13.328   5.787  1.00  0.00     0.036 A 
HETATM   13  C   UNL     1      40.960 -14.519   5.755  1.00  0.00     0.036 A 
HETATM   14  C   UNL     1      41.580 -15.757   5.995  1.00  0.00    -0.060 A 
HETATM   15  C   UNL     1      40.754 -17.007   6.058  1.00  0.00     0.048 C 
HETATM   16  C   UNL     1      42.956 -15.799   6.230  1.00  0.00     0.007 A 
HETATM   17  C   UNL     1      43.705 -14.625   6.201  1.00  0.00     0.003 A 
HETATM   18  C   UNL     1      43.074 -13.399   5.986  1.00  0.00     0.029 A 
ENDBRANCH   8  12
ENDBRANCH   1   6
BRANCH   4  19
HETATM   19  C   UNL     1      40.899 -15.513   0.629  1.00  0.00     0.163 C 
BRANCH  19  20
HETATM   20  C   UNL     1      41.165 -16.689   1.552  1.00  0.00     0.227 C 
HETATM   21  N   UNL     1      42.434 -17.218   1.381  1.00  0.00    -0.327 N 
HETATM   22  H   UNL     1      42.907 -16.947   0.524  1.00  0.00     0.169 HD
HETATM   23  O   UNL     1      40.330 -17.041   2.382  1.00  0.00    -0.273 OA
BRANCH  21  24
HETATM   24  C   UNL     1      43.097 -18.155   2.197  1.00  0.00     0.036 A 
HETATM   25  C   UNL     1      43.285 -19.439   1.666  1.00  0.00     0.056 A 
HETATM   26  C   UNL     1      43.952 -20.417   2.406  1.00  0.00     0.074 A 
HETATM   27 CL   UNL     1      44.168 -21.985   1.729  1.00  0.00    -0.081 Cl
HETATM   28  C   UNL     1      44.431 -20.120   3.677  1.00  0.00     0.138 A 
HETATM   29  F   UNL     1      45.070 -21.047   4.405  1.00  0.00    -0.204 F 
HETATM   30  C   UNL     1      44.251 -18.852   4.216  1.00  0.00     0.046 A 
HETATM   31  C   UNL     1      43.588 -17.868   3.474  1.00  0.00     0.032 A 
ENDBRANCH  21  24
ENDBRANCH  19  20
ENDBRANCH   4  19
TORSDOF 5
ENDMDL
MODEL 4
REMARK VINA RESULT:      -7.9      4.190      6.507
REMARK  5 active torsions:
REMARK  status: ('A' for Active; 'I' for Inactive)
REMARK    1  A    between atoms: C_4  and  N_5 
REMARK       I    between atoms: N_5  and  C_6 
REMARK       I    between atoms: C_6  and  N_7 
REMARK    2  A    between atoms: N_7  and  C_8 
REMARK    3  A    between atoms: C_11  and  C_12 
REMARK    4  A    between atoms: C_12  and  C_13 
REMARK       I    between atoms: C_13  and  N_14 
REMARK    5  A    between atoms: N_14  and  C_15 
ROOT
HETATM    1  C   UNL     1      42.651 -14.922   5.342  1.00  0.00     0.174 A 
HETATM    2  S   UNL     1      43.716 -13.995   4.382  1.00  0.00    -0.062 SA
HETATM    3  C   UNL     1      42.380 -13.462   3.455  1.00  0.00     0.081 A 
HETATM    4  C   UNL     1      41.207 -13.992   3.963  1.00  0.00     0.052 A 
HETATM    5  N   UNL     1      41.373 -14.810   5.075  1.00  0.00    -0.228 NA
ENDROOT
BRANCH   1   6
HETATM    6  N   UNL     1      43.291 -15.669   6.292  1.00  0.00    -0.287 N 
HETATM    7  C   UNL     1      42.855 -16.856   6.750  1.00  0.00     0.326 C 
HETATM    8  N   UNL     1      42.427 -17.856   5.944  1.00  0.00    -0.309 N 
HETATM    9  O   UNL     1      42.881 -17.062   7.968  1.00  0.00    -0.247 OA
HETATM   10  H   UNL     1      41.975 -18.581   6.487  1.00  0.00     0.170 HD
HETATM   11  H   UNL     1      43.819 -15.125   6.959  1.00  0.00     0.172 HD
BRANCH   8  12
HETATM   12  C   UNL     1      42.703 -18.193   4.604  1.00  0.00     0.036 A 
HETATM   13  C   UNL     1      41.943 -17.789   3.504  1.00  0.00     0.036 A 
HETATM   14  C   UNL     1      42.283 -18.184   2.200  1.00  0.00    -0.060 A 
HETATM   15  C   UNL     1      41.389 -17.822   1.052  1.00  0.00     0.048 C 
HETATM   16  C   UNL     1      43.426 -18.960   1.997  1.00  0.00     0.007 A 
HETATM   17  C   UNL     1      44.229 -19.316   3.077  1.00  0.00     0.003 A 
HETATM   18  C   UNL     1      43.866 -18.940   4.372  1.00  0.00     0.029 A 
ENDBRANCH   8  12
ENDBRANCH   1   6
BRANCH   4  19
HETATM   19  C   UNL     1      39.835 -13.707   3.467  1.00  0.00     0.163 C 
BRANCH  19  20
HETATM   20  C   UNL     1      39.515 -14.460   2.188  1.00  0.00     0.227 C 
HETATM   21  N   UNL     1      39.797 -13.716   1.053  1.00  0.00    -0.327 N 
HETATM   22  H   UNL     1      39.922 -12.720   1.205  1.00  0.00     0.169 HD
HETATM   23  O   UNL     1      39.113 -15.620   2.222  1.00  0.00    -0.273 OA
BRANCH  21  24
HETATM   24  C   UNL     1      39.833 -14.158  -0.283  1.00  0.00     0.036 A 
HETATM   25  C   UNL     1      38.744 -13.813  -1.096  1.00  0.00     0.056 A 
HETATM   26  C   UNL     1      38.715 -14.197  -2.438  1.00  0.00     0.074 A 
HETATM   27 CL   UNL     1      37.365 -13.760  -3.412  1.00  0.00    -0.081 Cl
HETATM   28  C   UNL     1      39.770 -14.929  -2.973  1.00  0.00     0.138 A 
HETATM   29  F   UNL     1      39.760 -15.310  -4.259  1.00  0.00    -0.204 F 
HETATM   30  C   UNL     1      40.856 -15.278  -2.179  1.00  0.00     0.046 A 
HETATM   31  C   UNL     1      40.889 -14.889  -0.836  1.00  0.00     0.032 A 
ENDBRANCH  21  24
ENDBRANCH  19  20
ENDBRANCH   4  19
TORSDOF 5
ENDMDL
MODEL 5
REMARK VINA RESULT:      -7.9      4.070      6.347
REMARK  5 active torsions:
REMARK  status: ('A' for Active; 'I' for Inactive)
REMARK    1  A    between atoms: C_4  and  N_5 
REMARK       I    between atoms: N_5  and  C_6 
REMARK       I    between atoms: C_6  and  N_7 
REMARK    2  A    between atoms: N_7  and  C_8 
REMARK    3  A    between atoms: C_11  and  C_12 
REMARK    4  A    between atoms: C_12  and  C_13 
REMARK       I    between atoms: C_13  and  N_14 
REMARK    5  A    between atoms: N_14  and  C_15 
ROOT
HETATM    1  C   UNL     1      42.151 -14.900   5.398  1.00  0.00     0.174 A 
HETATM    2  S   UNL     1      43.837 -14.718   5.199  1.00  0.00    -0.062 SA
HETATM    3  C   UNL     1      43.544 -13.574   3.960  1.00  0.00     0.081 A 
HETATM    4  C   UNL     1      42.183 -13.375   3.809  1.00  0.00     0.052 A 
HETATM    5  N   UNL     1      41.387 -14.125   4.668  1.00  0.00    -0.228 NA
ENDROOT
BRANCH   1   6
HETATM    6  N   UNL     1      41.816 -15.849   6.324  1.00  0.00    -0.287 N 
HETATM    7  C   UNL     1      40.938 -16.846   6.110  1.00  0.00     0.326 C 
HETATM    8  N   UNL     1      40.946 -17.623   5.001  1.00  0.00    -0.309 N 
HETATM    9  O   UNL     1      40.105 -17.094   6.989  1.00  0.00    -0.247 OA
HETATM   10  H   UNL     1      40.103 -18.181   4.953  1.00  0.00     0.170 HD
HETATM   11  H   UNL     1      41.872 -15.531   7.281  1.00  0.00     0.172 HD
BRANCH   8  12
HETATM   12  C   UNL     1      41.957 -17.982   4.088  1.00  0.00     0.036 A 
HETATM   13  C   UNL     1      42.977 -18.901   4.343  1.00  0.00     0.036 A 
HETATM   14  C   UNL     1      43.954 -19.190   3.377  1.00  0.00    -0.060 A 
HETATM   15  C   UNL     1      45.096 -20.101   3.718  1.00  0.00     0.048 C 
HETATM   16  C   UNL     1      43.880 -18.577   2.124  1.00  0.00     0.007 A 
HETATM   17  C   UNL     1      42.832 -17.708   1.834  1.00  0.00     0.003 A 
HETATM   18  C   UNL     1      41.881 -17.409   2.811  1.00  0.00     0.029 A 
ENDBRANCH   8  12
ENDBRANCH   1   6
BRANCH   4  19
HETATM   19  C   UNL     1      41.541 -12.410   2.878  1.00  0.00     0.163 C 
BRANCH  19  20
HETATM   20  C   UNL     1      41.707 -12.811   1.423  1.00  0.00     0.227 C 
HETATM   21  N   UNL     1      40.866 -13.853   1.064  1.00  0.00    -0.327 N 
HETATM   22  H   UNL     1      40.459 -14.370   1.837  1.00  0.00     0.169 HD
HETATM   23  O   UNL     1      42.471 -12.199   0.682  1.00  0.00    -0.273 OA
BRANCH  21  24
HETATM   24  C   UNL     1      40.590 -14.335  -0.230  1.00  0.00     0.036 A 
HETATM   25  C   UNL     1      39.555 -13.705  -0.935  1.00  0.00     0.056 A 
HETATM   26  C   UNL     1      39.236 -14.112  -2.232  1.00  0.00     0.074 A 
HETATM   27 CL   UNL     1      37.960 -13.320  -3.075  1.00  0.00    -0.081 Cl
HETATM   28  C   UNL     1      39.944 -15.150  -2.828  1.00  0.00     0.138 A 
HETATM   29  F   UNL     1      39.650 -15.559  -4.071  1.00  0.00    -0.204 F 
HETATM   30  C   UNL     1      40.971 -15.784  -2.140  1.00  0.00     0.046 A 
HETATM   31  C   UNL     1      41.297 -15.374  -0.843  1.00  0.00     0.032 A 
ENDBRANCH  21  24
ENDBRANCH  19  20
ENDBRANCH   4  19
TORSDOF 5
ENDMDL
MODEL 6
REMARK VINA RESULT:      -7.8      4.137      6.021
REMARK  5 active torsions:
REMARK  status: ('A' for Active; 'I' for Inactive)
REMARK    1  A    between atoms: C_4  and  N_5 
REMARK       I    between atoms: N_5  and  C_6 
REMARK       I    between atoms: C_6  and  N_7 
REMARK    2  A    between atoms: N_7  and  C_8 
REMARK    3  A    between atoms: C_11  and  C_12 
REMARK    4  A    between atoms: C_12  and  C_13 
REMARK       I    between atoms: C_13  and  N_14 
REMARK    5  A    between atoms: N_14  and  C_15 
ROOT
HETATM    1  C   UNL     1      43.206 -18.284   5.834  1.00  0.00     0.174 A 
HETATM    2  S   UNL     1      44.797 -18.898   5.916  1.00  0.00    -0.062 SA
HETATM    3  C   UNL     1      44.684 -19.348   4.269  1.00  0.00     0.081 A 
HETATM    4  C   UNL     1      43.459 -18.962   3.754  1.00  0.00     0.052 A 
HETATM    5  N   UNL     1      42.624 -18.319   4.661  1.00  0.00    -0.228 NA
ENDROOT
BRANCH   1   6
HETATM    6  N   UNL     1      42.745 -17.815   7.034  1.00  0.00    -0.287 N 
HETATM    7  C   UNL     1      43.240 -16.741   7.674  1.00  0.00     0.326 C 
HETATM    8  N   UNL     1      43.491 -15.559   7.064  1.00  0.00    -0.309 N 
HETATM    9  O   UNL     1      43.441 -16.823   8.890  1.00  0.00    -0.247 OA
HETATM   10  H   UNL     1      44.025 -14.952   7.673  1.00  0.00     0.170 HD
HETATM   11  H   UNL     1      42.362 -18.530   7.636  1.00  0.00     0.172 HD
BRANCH   8  12
HETATM   12  C   UNL     1      42.961 -14.940   5.914  1.00  0.00     0.036 A 
HETATM   13  C   UNL     1      41.706 -14.333   5.839  1.00  0.00     0.036 A 
HETATM   14  C   UNL     1      41.249 -13.750   4.645  1.00  0.00    -0.060 A 
HETATM   15  C   UNL     1      39.857 -13.200   4.566  1.00  0.00     0.048 C 
HETATM   16  C   UNL     1      42.084 -13.743   3.525  1.00  0.00     0.007 A 
HETATM   17  C   UNL     1      43.363 -14.288   3.605  1.00  0.00     0.003 A 
HETATM   18  C   UNL     1      43.795 -14.887   4.790  1.00  0.00     0.029 A 
ENDBRANCH   8  12
ENDBRANCH   1   6
BRANCH   4  19
HETATM   19  C   UNL     1      43.016 -19.121   2.343  1.00  0.00     0.163 C 
BRANCH  19  20
HETATM   20  C   UNL     1      42.722 -17.790   1.676  1.00  0.00     0.227 C 
HETATM   21  N   UNL     1      41.363 -17.550   1.552  1.00  0.00    -0.327 N 
HETATM   22  H   UNL     1      40.765 -18.362   1.670  1.00  0.00     0.169 HD
HETATM   23  O   UNL     1      43.632 -17.026   1.362  1.00  0.00    -0.273 OA
BRANCH  21  24
HETATM   24  C   UNL     1      40.727 -16.347   1.190  1.00  0.00     0.036 A 
HETATM   25  C   UNL     1      41.221 -15.684   0.058  1.00  0.00     0.056 A 
HETATM   26  C   UNL     1      40.631 -14.496  -0.377  1.00  0.00     0.074 A 
HETATM   27 CL   UNL     1      41.258 -13.702  -1.770  1.00  0.00    -0.081 Cl
HETATM   28  C   UNL     1      39.548 -13.964   0.316  1.00  0.00     0.138 A 
HETATM   29  F   UNL     1      38.970 -12.822  -0.084  1.00  0.00    -0.204 F 
HETATM   30  C   UNL     1      39.049 -14.610   1.440  1.00  0.00     0.046 A 
HETATM   31  C   UNL     1      39.635 -15.804   1.874  1.00  0.00     0.032 A 
ENDBRANCH  21  24
ENDBRANCH  19  20
ENDBRANCH   4  19
TORSDOF 5
ENDMDL
MODEL 7
REMARK VINA RESULT:      -7.8      2.905      5.825
REMARK  5 active torsions:
REMARK  status: ('A' for Active; 'I' for Inactive)
REMARK    1  A    between atoms: C_4  and  N_5 
REMARK       I    between atoms: N_5  and  C_6 
REMARK       I    between atoms: C_6  and  N_7 
REMARK    2  A    between atoms: N_7  and  C_8 
REMARK    3  A    between atoms: C_11  and  C_12 
REMARK    4  A    between atoms: C_12  and  C_13 
REMARK       I    between atoms: C_13  and  N_14 
REMARK    5  A    between atoms: N_14  and  C_15 
ROOT
HETATM    1  C   UNL     1      41.751 -13.806  -0.578  1.00  0.00     0.174 A 
HETATM    2  S   UNL     1      42.076 -12.148  -0.334  1.00  0.00    -0.062 SA
HETATM    3  C   UNL     1      42.057 -12.416   1.356  1.00  0.00     0.081 A 
HETATM    4  C   UNL     1      41.846 -13.757   1.622  1.00  0.00     0.052 A 
HETATM    5  N   UNL     1      41.702 -14.558   0.494  1.00  0.00    -0.228 NA
ENDROOT
BRANCH   1   6
HETATM    6  N   UNL     1      41.591 -14.139  -1.895  1.00  0.00    -0.287 N 
HETATM    7  C   UNL     1      40.646 -14.975  -2.361  1.00  0.00     0.326 C 
HETATM    8  N   UNL     1      39.343 -14.906  -1.998  1.00  0.00    -0.309 N 
HETATM    9  O   UNL     1      40.974 -15.826  -3.195  1.00  0.00    -0.247 OA
HETATM   10  H   UNL     1      38.843 -15.728  -2.313  1.00  0.00     0.170 HD
HETATM   11  H   UNL     1      42.446 -14.123  -2.432  1.00  0.00     0.172 HD
BRANCH   8  12
HETATM   12  C   UNL     1      38.533 -13.856  -1.523  1.00  0.00     0.036 A 
HETATM   13  C   UNL     1      38.054 -12.800  -2.302  1.00  0.00     0.036 A 
HETATM   14  C   UNL     1      37.261 -11.785  -1.742  1.00  0.00    -0.060 A 
HETATM   15  C   UNL     1      36.850 -10.610  -2.579  1.00  0.00     0.048 C 
HETATM   16  C   UNL     1      36.912 -11.856  -0.391  1.00  0.00     0.007 A 
HETATM   17  C   UNL     1      37.330 -12.936   0.381  1.00  0.00     0.003 A 
HETATM   18  C   UNL     1      38.139 -13.926  -0.180  1.00  0.00     0.029 A 
ENDBRANCH   8  12
ENDBRANCH   1   6
BRANCH   4  19
HETATM   19  C   UNL     1      41.829 -14.387   2.969  1.00  0.00     0.163 C 
BRANCH  19  20
HETATM   20  C   UNL     1      41.816 -15.903   2.898  1.00  0.00     0.227 C 
HETATM   21  N   UNL     1      43.075 -16.432   2.662  1.00  0.00    -0.327 N 
HETATM   22  H   UNL     1      43.767 -15.773   2.317  1.00  0.00     0.169 HD
HETATM   23  O   UNL     1      40.783 -16.536   3.101  1.00  0.00    -0.273 OA
BRANCH  21  24
HETATM   24  C   UNL     1      43.478 -17.778   2.749  1.00  0.00     0.036 A 
HETATM   25  C   UNL     1      43.788 -18.268   4.026  1.00  0.00     0.056 A 
HETATM   26  C   UNL     1      44.176 -19.598   4.196  1.00  0.00     0.074 A 
HETATM   27 CL   UNL     1      44.550 -20.172   5.776  1.00  0.00    -0.081 Cl
HETATM   28  C   UNL     1      44.259 -20.444   3.095  1.00  0.00     0.138 A 
HETATM   29  F   UNL     1      44.632 -21.723   3.238  1.00  0.00    -0.204 F 
HETATM   30  C   UNL     1      43.955 -19.972   1.824  1.00  0.00     0.046 A 
HETATM   31  C   UNL     1      43.561 -18.641   1.651  1.00  0.00     0.032 A 
ENDBRANCH  21  24
ENDBRANCH  19  20
ENDBRANCH   4  19
TORSDOF 5
ENDMDL
MODEL 8
REMARK VINA RESULT:      -7.7      2.551      4.941
REMARK  5 active torsions:
REMARK  status: ('A' for Active; 'I' for Inactive)
REMARK    1  A    between atoms: C_4  and  N_5 
REMARK       I    between atoms: N_5  and  C_6 
REMARK       I    between atoms: C_6  and  N_7 
REMARK    2  A    between atoms: N_7  and  C_8 
REMARK    3  A    between atoms: C_11  and  C_12 
REMARK    4  A    between atoms: C_12  and  C_13 
REMARK       I    between atoms: C_13  and  N_14 
REMARK    5  A    between atoms: N_14  and  C_15 
ROOT
HETATM    1  C   UNL     1      39.954 -14.741   2.303  1.00  0.00     0.174 A 
HETATM    2  S   UNL     1      39.721 -13.264   3.127  1.00  0.00    -0.062 SA
HETATM    3  C   UNL     1      41.259 -13.452   3.854  1.00  0.00     0.081 A 
HETATM    4  C   UNL     1      41.866 -14.605   3.388  1.00  0.00     0.052 A 
HETATM    5  N   UNL     1      41.115 -15.327   2.467  1.00  0.00    -0.228 NA
ENDROOT
BRANCH   1   6
HETATM    6  N   UNL     1      38.874 -15.119   1.554  1.00  0.00    -0.287 N 
HETATM    7  C   UNL     1      38.132 -14.281   0.808  1.00  0.00     0.326 C 
HETATM    8  N   UNL     1      38.663 -13.360  -0.031  1.00  0.00    -0.309 N 
HETATM    9  O   UNL     1      36.902 -14.381   0.861  1.00  0.00    -0.247 OA
HETATM   10  H   UNL     1      37.948 -12.718  -0.350  1.00  0.00     0.170 HD
HETATM   11  H   UNL     1      38.373 -15.915   1.924  1.00  0.00     0.172 HD
BRANCH   8  12
HETATM   12  C   UNL     1      39.892 -13.280  -0.715  1.00  0.00     0.036 A 
HETATM   13  C   UNL     1      40.852 -12.284  -0.522  1.00  0.00     0.036 A 
HETATM   14  C   UNL     1      42.047 -12.274  -1.260  1.00  0.00    -0.060 A 
HETATM   15  C   UNL     1      43.010 -11.135  -1.107  1.00  0.00     0.048 C 
HETATM   16  C   UNL     1      42.297 -13.302  -2.173  1.00  0.00     0.007 A 
HETATM   17  C   UNL     1      41.377 -14.335  -2.327  1.00  0.00     0.003 A 
HETATM   18  C   UNL     1      40.181 -14.321  -1.607  1.00  0.00     0.029 A 
ENDBRANCH   8  12
ENDBRANCH   1   6
BRANCH   4  19
HETATM   19  C   UNL     1      43.233 -15.072   3.738  1.00  0.00     0.163 C 
BRANCH  19  20
HETATM   20  C   UNL     1      43.237 -16.487   4.290  1.00  0.00     0.227 C 
HETATM   21  N   UNL     1      43.674 -17.416   3.358  1.00  0.00    -0.327 N 
HETATM   22  H   UNL     1      43.680 -17.096   2.395  1.00  0.00     0.169 HD
HETATM   23  O   UNL     1      42.938 -16.709   5.460  1.00  0.00    -0.273 OA
BRANCH  21  24
HETATM   24  C   UNL     1      44.010 -18.765   3.575  1.00  0.00     0.036 A 
HETATM   25  C   UNL     1      43.870 -19.638   2.487  1.00  0.00     0.056 A 
HETATM   26  C   UNL     1      44.203 -20.988   2.617  1.00  0.00     0.074 A 
HETATM   27 CL   UNL     1      44.021 -22.036   1.264  1.00  0.00    -0.081 Cl
HETATM   28  C   UNL     1      44.672 -21.473   3.833  1.00  0.00     0.138 A 
HETATM   29  F   UNL     1      44.993 -22.766   3.980  1.00  0.00    -0.204 F 
HETATM   30  C   UNL     1      44.815 -20.620   4.921  1.00  0.00     0.046 A 
HETATM   31  C   UNL     1      44.488 -19.265   4.791  1.00  0.00     0.032 A 
ENDBRANCH  21  24
ENDBRANCH  19  20
ENDBRANCH   4  19
TORSDOF 5
ENDMDL
MODEL 9
REMARK VINA RESULT:      -7.6      2.311      4.788
REMARK  5 active torsions:
REMARK  status: ('A' for Active; 'I' for Inactive)
REMARK    1  A    between atoms: C_4  and  N_5 
REMARK       I    between atoms: N_5  and  C_6 
REMARK       I    between atoms: C_6  and  N_7 
REMARK    2  A    between atoms: N_7  and  C_8 
REMARK    3  A    between atoms: C_11  and  C_12 
REMARK    4  A    between atoms: C_12  and  C_13 
REMARK       I    between atoms: C_13  and  N_14 
REMARK    5  A    between atoms: N_14  and  C_15 
ROOT
HETATM    1  C   UNL     1      39.388 -14.082   1.550  1.00  0.00     0.174 A 
HETATM    2  S   UNL     1      39.273 -12.386   1.393  1.00  0.00    -0.062 SA
HETATM    3  C   UNL     1      39.324 -12.247   3.097  1.00  0.00     0.081 A 
HETATM    4  C   UNL     1      39.469 -13.497   3.672  1.00  0.00     0.052 A 
HETATM    5  N   UNL     1      39.537 -14.549   2.765  1.00  0.00    -0.228 NA
ENDROOT
BRANCH   1   6
HETATM    6  N   UNL     1      39.319 -14.742   0.354  1.00  0.00    -0.287 N 
HETATM    7  C   UNL     1      40.298 -14.752  -0.569  1.00  0.00     0.326 C 
HETATM    8  N   UNL     1      41.600 -14.978  -0.274  1.00  0.00    -0.309 N 
HETATM    9  O   UNL     1      39.989 -14.585  -1.753  1.00  0.00    -0.247 OA
HETATM   10  H   UNL     1      42.187 -14.761  -1.070  1.00  0.00     0.170 HD
HETATM   11  H   UNL     1      38.384 -14.827  -0.018  1.00  0.00     0.172 HD
BRANCH   8  12
HETATM   12  C   UNL     1      42.241 -15.666   0.775  1.00  0.00     0.036 A 
HETATM   13  C   UNL     1      42.441 -17.047   0.822  1.00  0.00     0.036 A 
HETATM   14  C   UNL     1      43.080 -17.653   1.916  1.00  0.00    -0.060 A 
HETATM   15  C   UNL     1      43.185 -19.148   1.987  1.00  0.00     0.048 C 
HETATM   16  C   UNL     1      43.560 -16.854   2.956  1.00  0.00     0.007 A 
HETATM   17  C   UNL     1      43.425 -15.470   2.892  1.00  0.00     0.003 A 
HETATM   18  C   UNL     1      42.765 -14.881   1.811  1.00  0.00     0.029 A 
ENDBRANCH   8  12
ENDBRANCH   1   6
BRANCH   4  19
HETATM   19  C   UNL     1      39.617 -13.777   5.125  1.00  0.00     0.163 C 
BRANCH  19  20
HETATM   20  C   UNL     1      41.055 -14.071   5.514  1.00  0.00     0.227 C 
HETATM   21  N   UNL     1      41.206 -15.335   6.061  1.00  0.00    -0.327 N 
HETATM   22  H   UNL     1      40.348 -15.783   6.368  1.00  0.00     0.169 HD
HETATM   23  O   UNL     1      41.950 -13.262   5.282  1.00  0.00    -0.273 OA
BRANCH  21  24
HETATM   24  C   UNL     1      42.405 -16.023   6.331  1.00  0.00     0.036 A 
HETATM   25  C   UNL     1      42.378 -17.419   6.206  1.00  0.00     0.056 A 
HETATM   26  C   UNL     1      43.532 -18.170   6.437  1.00  0.00     0.074 A 
HETATM   27 CL   UNL     1      43.470 -19.883   6.277  1.00  0.00    -0.081 Cl
HETATM   28  C   UNL     1      44.715 -17.533   6.797  1.00  0.00     0.138 A 
HETATM   29  F   UNL     1      45.833 -18.237   7.027  1.00  0.00    -0.204 F 
HETATM   30  C   UNL     1      44.756 -16.150   6.925  1.00  0.00     0.046 A 
HETATM   31  C   UNL     1      43.602 -15.395   6.688  1.00  0.00     0.032 A 
ENDBRANCH  21  24
ENDBRANCH  19  20
ENDBRANCH   4  19
TORSDOF 5
ENDMDL
MODEL 10
REMARK VINA RESULT:      -7.5      2.901      5.540
REMARK  5 active torsions:
REMARK  status: ('A' for Active; 'I' for Inactive)
REMARK    1  A    between atoms: C_4  and  N_5 
REMARK       I    between atoms: N_5  and  C_6 
REMARK       I    between atoms: C_6  and  N_7 
REMARK    2  A    between atoms: N_7  and  C_8 
REMARK    3  A    between atoms: C_11  and  C_12 
REMARK    4  A    between atoms: C_12  and  C_13 
REMARK       I    between atoms: C_13  and  N_14 
REMARK    5  A    between atoms: N_14  and  C_15 
ROOT
HETATM    1  C   UNL     1      41.802 -12.958   0.667  1.00  0.00     0.174 A 
HETATM    2  S   UNL     1      41.388 -12.726   2.307  1.00  0.00    -0.062 SA
HETATM    3  C   UNL     1      41.039 -14.396   2.432  1.00  0.00     0.081 A 
HETATM    4  C   UNL     1      41.302 -15.028   1.229  1.00  0.00     0.052 A 
HETATM    5  N   UNL     1      41.773 -14.190   0.224  1.00  0.00    -0.228 NA
ENDROOT
BRANCH   1   6
HETATM    6  N   UNL     1      42.127 -11.796   0.022  1.00  0.00    -0.287 N 
HETATM    7  C   UNL     1      42.801 -11.733  -1.140  1.00  0.00     0.326 C 
HETATM    8  N   UNL     1      42.509 -12.501  -2.216  1.00  0.00    -0.309 N 
HETATM    9  O   UNL     1      43.711 -10.903  -1.247  1.00  0.00    -0.247 OA
HETATM   10  H   UNL     1      43.241 -12.431  -2.912  1.00  0.00     0.170 HD
HETATM   11  H   UNL     1      42.265 -11.007   0.636  1.00  0.00     0.172 HD
BRANCH   8  12
HETATM   12  C   UNL     1      41.329 -13.139  -2.648  1.00  0.00     0.036 A 
HETATM   13  C   UNL     1      40.084 -12.518  -2.774  1.00  0.00     0.036 A 
HETATM   14  C   UNL     1      38.954 -13.235  -3.200  1.00  0.00    -0.060 A 
HETATM   15  C   UNL     1      37.611 -12.568  -3.224  1.00  0.00     0.048 C 
HETATM   16  C   UNL     1      39.088 -14.582  -3.544  1.00  0.00     0.007 A 
HETATM   17  C   UNL     1      40.335 -15.196  -3.484  1.00  0.00     0.003 A 
HETATM   18  C   UNL     1      41.447 -14.481  -3.035  1.00  0.00     0.029 A 
ENDBRANCH   8  12
ENDBRANCH   1   6
BRANCH   4  19
HETATM   19  C   UNL     1      41.184 -16.486   0.966  1.00  0.00     0.163 C 
BRANCH  19  20
HETATM   20  C   UNL     1      42.424 -17.253   1.390  1.00  0.00     0.227 C 
HETATM   21  N   UNL     1      42.277 -17.848   2.633  1.00  0.00    -0.327 N 
HETATM   22  H   UNL     1      41.508 -17.499   3.195  1.00  0.00     0.169 HD
HETATM   23  O   UNL     1      43.393 -17.351   0.641  1.00  0.00    -0.273 OA
BRANCH  21  24
HETATM   24  C   UNL     1      43.119 -18.800   3.241  1.00  0.00     0.036 A 
HETATM   25  C   UNL     1      43.478 -19.914   2.470  1.00  0.00     0.056 A 
HETATM   26  C   UNL     1      44.326 -20.891   2.995  1.00  0.00     0.074 A 
HETATM   27 CL   UNL     1      44.751 -22.249   2.025  1.00  0.00    -0.081 Cl
HETATM   28  C   UNL     1      44.816 -20.763   4.290  1.00  0.00     0.138 A 
HETATM   29  F   UNL     1      45.628 -21.692   4.813  1.00  0.00    -0.204 F 
HETATM   30  C   UNL     1      44.467 -19.664   5.066  1.00  0.00     0.046 A 
HETATM   31  C   UNL     1      43.622 -18.680   4.540  1.00  0.00     0.032 A 
ENDBRANCH  21  24
ENDBRANCH  19  20
ENDBRANCH   4  19
TORSDOF 5
ENDMDL
