MODEL 1
REMARK VINA RESULT:      -9.5      0.000      0.000
REMARK  5 active torsions:
REMARK  status: ('A' for Active; 'I' for Inactive)
REMARK    1  A    between atoms: N_4  and  C_5 
REMARK    2  A    between atoms: C_16  and  N_17 
REMARK       I    between atoms: N_17  and  C_18 
REMARK    3  A    between atoms: C_18  and  C_19 
REMARK       I    between atoms: C_19  and  N_20 
REMARK    4  A    between atoms: N_20  and  C_21 
REMARK    5  A    between atoms: C_21  and  C_22 
ROOT
HETATM    1  C   UNL     1      39.116 -13.112   2.531  1.00  0.00     0.072 C 
HETATM    2  C   UNL     1      40.112 -13.748   3.430  1.00  0.00     0.055 C 
HETATM    3  N   UNL     1      40.326 -15.065   3.378  1.00  0.00    -0.156 NA
HETATM    4  N   UNL     1      41.330 -15.290   4.296  1.00  0.00    -0.045 N 
HETATM    5  C   UNL     1      41.569 -14.146   5.055  1.00  0.00     0.152 C 
HETATM    6  C   UNL     1      40.898 -13.124   4.420  1.00  0.00     0.079 C 
ENDROOT
BRANCH   5   7
HETATM    7  N   UNL     1      42.370 -14.027   6.176  1.00  0.00    -0.303 N 
HETATM    8  C   UNL     1      43.725 -13.768   6.076  1.00  0.00     0.315 C 
HETATM    9  O   UNL     1      44.395 -13.609   5.066  1.00  0.00    -0.262 OA
HETATM   10  H   UNL     1      42.084 -14.464   7.049  1.00  0.00     0.171 HD
BRANCH   8  11
HETATM   11  C   UNL     1      44.420 -13.820   7.456  1.00  0.00     0.310 C 
HETATM   12  N   UNL     1      45.042 -12.649   7.813  1.00  0.00    -0.349 N 
HETATM   13  H   UNL     1      45.044 -11.901   7.125  1.00  0.00     0.163 HD
HETATM   14  O   UNL     1      44.402 -14.856   8.106  1.00  0.00    -0.262 OA
BRANCH  12  15
HETATM   15  C   UNL     1      45.765 -12.500   9.049  1.00  0.00     0.161 C 
BRANCH  15  16
HETATM   16  C   UNL     1      44.903 -11.924  10.143  1.00  0.00    -0.040 A 
HETATM   17  C   UNL     1      44.356 -12.752  11.134  1.00  0.00     0.010 A 
HETATM   18  C   UNL     1      43.576 -12.210  12.159  1.00  0.00     0.024 A 
HETATM   19  C   UNL     1      43.330 -10.839  12.193  1.00  0.00     0.034 A 
HETATM   20 CL   UNL     1      42.380 -10.170  13.463  1.00  0.00    -0.084 Cl
HETATM   21  C   UNL     1      43.850 -10.006  11.206  1.00  0.00     0.024 A 
HETATM   22  C   UNL     1      44.630 -10.548  10.181  1.00  0.00     0.010 A 
ENDBRANCH  15  16
ENDBRANCH  12  15
ENDBRANCH   8  11
ENDBRANCH   5   7
BRANCH   4  23
HETATM   23  C   UNL     1      42.054 -16.502   4.194  1.00  0.00     0.732 A 
HETATM   24  N   UNL     1      42.634 -17.112   5.178  1.00  0.00    -0.067 NA
HETATM   25  C   UNL     1      43.327 -18.262   4.863  1.00  0.00     0.065 A 
HETATM   26  C   UNL     1      43.525 -18.710   3.610  1.00  0.00     0.036 A 
HETATM   27  C   UNL     1      43.865 -19.027   6.052  1.00  0.00     0.060 C 
HETATM   28  C   UNL     1      44.326 -19.929   3.253  1.00  0.00     0.046 C 
HETATM   29  C   UNL     1      42.909 -17.949   2.498  1.00  0.00     0.268 A 
HETATM   30  C   UNL     1      45.127 -20.482   4.432  1.00  0.00     0.005 C 
HETATM   31  C   UNL     1      44.301 -20.455   5.713  1.00  0.00     0.006 C 
HETATM   32  O   UNL     1      43.096 -18.237   1.323  1.00  0.00    -0.267 OA
HETATM   33  N   UNL     1      42.131 -16.905   2.885  1.00  0.00    -0.152 N 
HETATM   34  H   UNL     1      41.707 -16.318   2.175  1.00  0.00     0.188 HD
ENDBRANCH   4  23
TORSDOF 5
ENDMDL
MODEL 2
REMARK VINA RESULT:      -9.3      1.687      2.394
REMARK  5 active torsions:
REMARK  status: ('A' for Active; 'I' for Inactive)
REMARK    1  A    between atoms: N_4  and  C_5 
REMARK    2  A    between atoms: C_16  and  N_17 
REMARK       I    between atoms: N_17  and  C_18 
REMARK    3  A    between atoms: C_18  and  C_19 
REMARK       I    between atoms: C_19  and  N_20 
REMARK    4  A    between atoms: N_20  and  C_21 
REMARK    5  A    between atoms: C_21  and  C_22 
ROOT
HETATM    1  C   UNL     1      39.104 -14.979   1.452  1.00  0.00     0.072 C 
HETATM    2  C   UNL     1      40.326 -15.278   2.240  1.00  0.00     0.055 C 
HETATM    3  N   UNL     1      40.622 -16.536   2.576  1.00  0.00    -0.156 NA
HETATM    4  N   UNL     1      41.826 -16.443   3.243  1.00  0.00    -0.045 N 
HETATM    5  C   UNL     1      42.145 -15.111   3.498  1.00  0.00     0.152 C 
HETATM    6  C   UNL     1      41.269 -14.361   2.745  1.00  0.00     0.079 C 
ENDROOT
BRANCH   5   7
HETATM    7  N   UNL     1      43.172 -14.624   4.286  1.00  0.00    -0.303 N 
HETATM    8  C   UNL     1      43.121 -14.687   5.667  1.00  0.00     0.315 C 
HETATM    9  O   UNL     1      42.235 -15.147   6.373  1.00  0.00    -0.262 OA
HETATM   10  H   UNL     1      43.799 -13.914   3.916  1.00  0.00     0.171 HD
BRANCH   8  11
HETATM   11  C   UNL     1      44.317 -13.956   6.317  1.00  0.00     0.310 C 
HETATM   12  N   UNL     1      44.128 -13.643   7.642  1.00  0.00    -0.349 N 
HETATM   13  H   UNL     1      43.217 -13.856   8.038  1.00  0.00     0.163 HD
HETATM   14  O   UNL     1      45.303 -13.687   5.645  1.00  0.00    -0.262 OA
BRANCH  12  15
HETATM   15  C   UNL     1      45.115 -12.942   8.421  1.00  0.00     0.161 C 
BRANCH  15  16
HETATM   16  C   UNL     1      44.494 -11.904   9.319  1.00  0.00    -0.040 A 
HETATM   17  C   UNL     1      43.350 -11.199   8.915  1.00  0.00     0.010 A 
HETATM   18  C   UNL     1      42.765 -10.253   9.761  1.00  0.00     0.024 A 
HETATM   19  C   UNL     1      43.324 -10.000  11.011  1.00  0.00     0.034 A 
HETATM   20 CL   UNL     1      42.595  -8.845  12.057  1.00  0.00    -0.084 Cl
HETATM   21  C   UNL     1      44.470 -10.678  11.420  1.00  0.00     0.024 A 
HETATM   22  C   UNL     1      45.056 -11.623  10.574  1.00  0.00     0.010 A 
ENDBRANCH  15  16
ENDBRANCH  12  15
ENDBRANCH   8  11
ENDBRANCH   5   7
BRANCH   4  23
HETATM   23  C   UNL     1      42.597 -17.623   3.374  1.00  0.00     0.732 A 
HETATM   24  N   UNL     1      42.616 -18.602   2.527  1.00  0.00    -0.067 NA
HETATM   25  C   UNL     1      43.403 -19.684   2.858  1.00  0.00     0.065 A 
HETATM   26  C   UNL     1      44.046 -19.824   4.033  1.00  0.00     0.036 A 
HETATM   27  C   UNL     1      43.519 -20.741   1.783  1.00  0.00     0.060 C 
HETATM   28  C   UNL     1      44.858 -21.024   4.426  1.00  0.00     0.046 C 
HETATM   29  C   UNL     1      43.945 -18.717   5.012  1.00  0.00     0.268 A 
HETATM   30  C   UNL     1      44.682 -22.204   3.469  1.00  0.00     0.005 C 
HETATM   31  C   UNL     1      44.662 -21.732   2.020  1.00  0.00     0.006 C 
HETATM   32  O   UNL     1      44.432 -18.787   6.134  1.00  0.00    -0.267 OA
HETATM   33  N   UNL     1      43.266 -17.627   4.571  1.00  0.00    -0.152 N 
HETATM   34  H   UNL     1      43.127 -16.845   5.204  1.00  0.00     0.188 HD
ENDBRANCH   4  23
TORSDOF 5
ENDMDL
MODEL 3
REMARK VINA RESULT:      -9.0      5.232      9.113
REMARK  5 active torsions:
REMARK  status: ('A' for Active; 'I' for Inactive)
REMARK    1  A    between atoms: N_4  and  C_5 
REMARK    2  A    between atoms: C_16  and  N_17 
REMARK       I    between atoms: N_17  and  C_18 
REMARK    3  A    between atoms: C_18  and  C_19 
REMARK       I    between atoms: C_19  and  N_20 
REMARK    4  A    between atoms: N_20  and  C_21 
REMARK    5  A    between atoms: C_21  and  C_22 
ROOT
HETATM    1  C   UNL     1      39.760 -13.338   6.160  1.00  0.00     0.072 C 
HETATM    2  C   UNL     1      40.367 -14.181   5.101  1.00  0.00     0.055 C 
HETATM    3  N   UNL     1      41.445 -14.925   5.364  1.00  0.00    -0.156 NA
HETATM    4  N   UNL     1      41.696 -15.602   4.189  1.00  0.00    -0.045 N 
HETATM    5  C   UNL     1      40.904 -15.104   3.156  1.00  0.00     0.152 C 
HETATM    6  C   UNL     1      39.961 -14.299   3.757  1.00  0.00     0.079 C 
ENDROOT
BRANCH   5   7
HETATM    7  N   UNL     1      40.988 -15.403   1.809  1.00  0.00    -0.303 N 
HETATM    8  C   UNL     1      41.651 -14.576   0.921  1.00  0.00     0.315 C 
HETATM    9  O   UNL     1      42.234 -13.526   1.152  1.00  0.00    -0.262 OA
HETATM   10  H   UNL     1      40.293 -16.013   1.383  1.00  0.00     0.171 HD
BRANCH   8  11
HETATM   11  C   UNL     1      41.485 -15.054  -0.540  1.00  0.00     0.310 C 
HETATM   12  N   UNL     1      41.622 -14.055  -1.473  1.00  0.00    -0.349 N 
HETATM   13  H   UNL     1      41.749 -13.111  -1.120  1.00  0.00     0.163 HD
HETATM   14  O   UNL     1      41.227 -16.227  -0.769  1.00  0.00    -0.262 OA
BRANCH  12  15
HETATM   15  C   UNL     1      41.481 -14.291  -2.887  1.00  0.00     0.161 C 
BRANCH  15  16
HETATM   16  C   UNL     1      40.036 -14.325  -3.313  1.00  0.00    -0.040 A 
HETATM   17  C   UNL     1      39.469 -15.501  -3.827  1.00  0.00     0.010 A 
HETATM   18  C   UNL     1      38.122 -15.534  -4.200  1.00  0.00     0.024 A 
HETATM   19  C   UNL     1      37.338 -14.390  -4.069  1.00  0.00     0.034 A 
HETATM   20 CL   UNL     1      35.676 -14.436  -4.516  1.00  0.00    -0.084 Cl
HETATM   21  C   UNL     1      37.890 -13.210  -3.578  1.00  0.00     0.024 A 
HETATM   22  C   UNL     1      39.236 -13.177  -3.206  1.00  0.00     0.010 A 
ENDBRANCH  15  16
ENDBRANCH  12  15
ENDBRANCH   8  11
ENDBRANCH   5   7
BRANCH   4  23
HETATM   23  C   UNL     1      42.515 -16.755   4.257  1.00  0.00     0.732 A 
HETATM   24  N   UNL     1      42.581 -17.679   3.353  1.00  0.00    -0.067 NA
HETATM   25  C   UNL     1      43.410 -18.746   3.626  1.00  0.00     0.065 A 
HETATM   26  C   UNL     1      44.047 -18.931   4.797  1.00  0.00     0.036 A 
HETATM   27  C   UNL     1      43.578 -19.730   2.490  1.00  0.00     0.060 C 
HETATM   28  C   UNL     1      44.906 -20.118   5.126  1.00  0.00     0.046 C 
HETATM   29  C   UNL     1      43.893 -17.891   5.840  1.00  0.00     0.268 A 
HETATM   30  C   UNL     1      44.787 -21.244   4.096  1.00  0.00     0.005 C 
HETATM   31  C   UNL     1      44.760 -20.686   2.678  1.00  0.00     0.006 C 
HETATM   32  O   UNL     1      44.373 -18.009   6.961  1.00  0.00    -0.267 OA
HETATM   33  N   UNL     1      43.173 -16.805   5.459  1.00  0.00    -0.152 N 
HETATM   34  H   UNL     1      42.997 -16.070   6.136  1.00  0.00     0.188 HD
ENDBRANCH   4  23
TORSDOF 5
ENDMDL
MODEL 4
REMARK VINA RESULT:      -9.0      3.917      8.745
REMARK  5 active torsions:
REMARK  status: ('A' for Active; 'I' for Inactive)
REMARK    1  A    between atoms: N_4  and  C_5 
REMARK    2  A    between atoms: C_16  and  N_17 
REMARK       I    between atoms: N_17  and  C_18 
REMARK    3  A    between atoms: C_18  and  C_19 
REMARK       I    between atoms: C_19  and  N_20 
REMARK    4  A    between atoms: N_20  and  C_21 
REMARK    5  A    between atoms: C_21  and  C_22 
ROOT
HETATM    1  C   UNL     1      38.435 -10.658   3.746  1.00  0.00     0.072 C 
HETATM    2  C   UNL     1      39.362 -11.342   4.681  1.00  0.00     0.055 C 
HETATM    3  N   UNL     1      40.199 -10.632   5.444  1.00  0.00    -0.156 NA
HETATM    4  N   UNL     1      40.857 -11.574   6.207  1.00  0.00    -0.045 N 
HETATM    5  C   UNL     1      40.574 -12.861   5.753  1.00  0.00     0.152 C 
HETATM    6  C   UNL     1      39.520 -12.729   4.875  1.00  0.00     0.079 C 
ENDROOT
BRANCH   5   7
HETATM    7  N   UNL     1      41.170 -14.045   6.146  1.00  0.00    -0.303 N 
HETATM    8  C   UNL     1      42.053 -14.721   5.324  1.00  0.00     0.315 C 
HETATM    9  O   UNL     1      42.433 -14.415   4.202  1.00  0.00    -0.262 OA
HETATM   10  H   UNL     1      40.728 -14.620   6.859  1.00  0.00     0.171 HD
BRANCH   8  11
HETATM   11  C   UNL     1      42.472 -16.080   5.930  1.00  0.00     0.310 C 
HETATM   12  N   UNL     1      43.683 -16.545   5.476  1.00  0.00    -0.349 N 
HETATM   13  H   UNL     1      44.143 -15.998   4.754  1.00  0.00     0.163 HD
HETATM   14  O   UNL     1      41.729 -16.649   6.716  1.00  0.00    -0.262 OA
BRANCH  12  15
HETATM   15  C   UNL     1      44.239 -17.802   5.902  1.00  0.00     0.161 C 
BRANCH  15  16
HETATM   16  C   UNL     1      44.233 -18.827   4.798  1.00  0.00    -0.040 A 
HETATM   17  C   UNL     1      43.748 -18.502   3.522  1.00  0.00     0.010 A 
HETATM   18  C   UNL     1      43.765 -19.449   2.494  1.00  0.00     0.024 A 
HETATM   19  C   UNL     1      44.258 -20.729   2.739  1.00  0.00     0.034 A 
HETATM   20 CL   UNL     1      44.291 -21.890   1.469  1.00  0.00    -0.084 Cl
HETATM   21  C   UNL     1      44.726 -21.073   4.004  1.00  0.00     0.024 A 
HETATM   22  C   UNL     1      44.708 -20.127   5.032  1.00  0.00     0.010 A 
ENDBRANCH  15  16
ENDBRANCH  12  15
ENDBRANCH   8  11
ENDBRANCH   5   7
BRANCH   4  23
HETATM   23  C   UNL     1      41.509 -11.128   7.382  1.00  0.00     0.732 A 
HETATM   24  N   UNL     1      42.646 -11.567   7.818  1.00  0.00    -0.067 NA
HETATM   25  C   UNL     1      43.094 -11.032   9.007  1.00  0.00     0.065 A 
HETATM   26  C   UNL     1      42.382 -10.188   9.777  1.00  0.00     0.036 A 
HETATM   27  C   UNL     1      44.489 -11.455   9.411  1.00  0.00     0.060 C 
HETATM   28  C   UNL     1      42.836  -9.647  11.101  1.00  0.00     0.046 C 
HETATM   29  C   UNL     1      41.051  -9.762   9.285  1.00  0.00     0.268 A 
HETATM   30  C   UNL     1      44.088 -10.346  11.634  1.00  0.00     0.005 C 
HETATM   31  C   UNL     1      45.096 -10.587  10.517  1.00  0.00     0.006 C 
HETATM   32  O   UNL     1      40.301  -9.057   9.949  1.00  0.00    -0.267 OA
HETATM   33  N   UNL     1      40.728 -10.218   8.048  1.00  0.00    -0.152 N 
HETATM   34  H   UNL     1      39.816  -9.994   7.664  1.00  0.00     0.188 HD
ENDBRANCH   4  23
TORSDOF 5
ENDMDL
MODEL 5
REMARK VINA RESULT:      -8.9      4.259      6.845
REMARK  5 active torsions:
REMARK  status: ('A' for Active; 'I' for Inactive)
REMARK    1  A    between atoms: N_4  and  C_5 
REMARK    2  A    between atoms: C_16  and  N_17 
REMARK       I    between atoms: N_17  and  C_18 
REMARK    3  A    between atoms: C_18  and  C_19 
REMARK       I    between atoms: C_19  and  N_20 
REMARK    4  A    between atoms: N_20  and  C_21 
REMARK    5  A    between atoms: C_21  and  C_22 
ROOT
HETATM    1  C   UNL     1      39.264  -9.449   5.961  1.00  0.00     0.072 C 
HETATM    2  C   UNL     1      39.930 -10.755   5.725  1.00  0.00     0.055 C 
HETATM    3  N   UNL     1      39.545 -11.538   4.714  1.00  0.00    -0.156 NA
HETATM    4  N   UNL     1      40.399 -12.619   4.767  1.00  0.00    -0.045 N 
HETATM    5  C   UNL     1      41.156 -12.592   5.938  1.00  0.00     0.152 C 
HETATM    6  C   UNL     1      40.963 -11.342   6.483  1.00  0.00     0.079 C 
ENDROOT
BRANCH   5   7
HETATM    7  N   UNL     1      41.989 -13.581   6.428  1.00  0.00    -0.303 N 
HETATM    8  C   UNL     1      43.217 -13.848   5.851  1.00  0.00     0.315 C 
HETATM    9  O   UNL     1      43.739 -13.301   4.889  1.00  0.00    -0.262 OA
HETATM   10  H   UNL     1      41.597 -14.348   6.968  1.00  0.00     0.171 HD
BRANCH   8  11
HETATM   11  C   UNL     1      43.893 -15.082   6.490  1.00  0.00     0.310 C 
HETATM   12  N   UNL     1      43.797 -16.226   5.735  1.00  0.00    -0.349 N 
HETATM   13  H   UNL     1      43.247 -16.168   4.883  1.00  0.00     0.163 HD
HETATM   14  O   UNL     1      44.424 -14.983   7.587  1.00  0.00    -0.262 OA
BRANCH  12  15
HETATM   15  C   UNL     1      44.343 -17.486   6.165  1.00  0.00     0.161 C 
BRANCH  15  16
HETATM   16  C   UNL     1      44.340 -18.511   5.060  1.00  0.00    -0.040 A 
HETATM   17  C   UNL     1      44.771 -19.824   5.300  1.00  0.00     0.010 A 
HETATM   18  C   UNL     1      44.746 -20.777   4.278  1.00  0.00     0.024 A 
HETATM   19  C   UNL     1      44.300 -20.419   3.007  1.00  0.00     0.034 A 
HETATM   20 CL   UNL     1      44.256 -21.596   1.753  1.00  0.00    -0.084 Cl
HETATM   21  C   UNL     1      43.886 -19.115   2.748  1.00  0.00     0.024 A 
HETATM   22  C   UNL     1      43.912 -18.162   3.770  1.00  0.00     0.010 A 
ENDBRANCH  15  16
ENDBRANCH  12  15
ENDBRANCH   8  11
ENDBRANCH   5   7
BRANCH   4  23
HETATM   23  C   UNL     1      40.514 -13.423   3.607  1.00  0.00     0.732 A 
HETATM   24  N   UNL     1      40.726 -14.700   3.601  1.00  0.00    -0.067 NA
HETATM   25  C   UNL     1      40.849 -15.294   2.363  1.00  0.00     0.065 A 
HETATM   26  C   UNL     1      40.875 -14.622   1.197  1.00  0.00     0.036 A 
HETATM   27  C   UNL     1      40.947 -16.803   2.387  1.00  0.00     0.060 C 
HETATM   28  C   UNL     1      41.066 -15.254  -0.151  1.00  0.00     0.046 C 
HETATM   29  C   UNL     1      40.703 -13.152   1.243  1.00  0.00     0.268 A 
HETATM   30  C   UNL     1      41.494 -16.720  -0.068  1.00  0.00     0.005 C 
HETATM   31  C   UNL     1      40.718 -17.454   1.020  1.00  0.00     0.006 C 
HETATM   32  O   UNL     1      40.787 -12.449   0.244  1.00  0.00    -0.267 OA
HETATM   33  N   UNL     1      40.454 -12.646   2.479  1.00  0.00    -0.152 N 
HETATM   34  H   UNL     1      40.361 -11.642   2.589  1.00  0.00     0.188 HD
ENDBRANCH   4  23
TORSDOF 5
ENDMDL
MODEL 6
REMARK VINA RESULT:      -8.9      2.129      5.217
REMARK  5 active torsions:
REMARK  status: ('A' for Active; 'I' for Inactive)
REMARK    1  A    between atoms: N_4  and  C_5 
REMARK    2  A    between atoms: C_16  and  N_17 
REMARK       I    between atoms: N_17  and  C_18 
REMARK    3  A    between atoms: C_18  and  C_19 
REMARK       I    between atoms: C_19  and  N_20 
REMARK    4  A    between atoms: N_20  and  C_21 
REMARK    5  A    between atoms: C_21  and  C_22 
ROOT
HETATM    1  C   UNL     1      43.960 -18.844   5.223  1.00  0.00     0.072 C 
HETATM    2  C   UNL     1      43.739 -17.441   5.655  1.00  0.00     0.055 C 
HETATM    3  N   UNL     1      43.139 -16.569   4.839  1.00  0.00    -0.156 NA
HETATM    4  N   UNL     1      43.057 -15.405   5.575  1.00  0.00    -0.045 N 
HETATM    5  C   UNL     1      43.799 -15.512   6.750  1.00  0.00     0.152 C 
HETATM    6  C   UNL     1      44.120 -16.845   6.874  1.00  0.00     0.079 C 
ENDROOT
BRANCH   5   7
HETATM    7  N   UNL     1      44.100 -14.509   7.653  1.00  0.00    -0.303 N 
HETATM    8  C   UNL     1      45.070 -13.560   7.389  1.00  0.00     0.315 C 
HETATM    9  O   UNL     1      45.772 -13.448   6.393  1.00  0.00    -0.262 OA
HETATM   10  H   UNL     1      43.891 -14.640   8.640  1.00  0.00     0.171 HD
BRANCH   8  11
HETATM   11  C   UNL     1      45.314 -12.637   8.604  1.00  0.00     0.310 C 
HETATM   12  N   UNL     1      44.395 -12.788   9.614  1.00  0.00    -0.349 N 
HETATM   13  H   UNL     1      43.624 -13.426   9.441  1.00  0.00     0.163 HD
HETATM   14  O   UNL     1      46.247 -11.846   8.589  1.00  0.00    -0.262 OA
BRANCH  12  15
HETATM   15  C   UNL     1      44.435 -12.005  10.822  1.00  0.00     0.161 C 
BRANCH  15  16
HETATM   16  C   UNL     1      43.089 -11.417  11.159  1.00  0.00    -0.040 A 
HETATM   17  C   UNL     1      42.276 -10.868  10.157  1.00  0.00     0.010 A 
HETATM   18  C   UNL     1      41.019 -10.344  10.472  1.00  0.00     0.024 A 
HETATM   19  C   UNL     1      40.572 -10.357  11.791  1.00  0.00     0.034 A 
HETATM   20 CL   UNL     1      39.019  -9.724  12.176  1.00  0.00    -0.084 Cl
HETATM   21  C   UNL     1      41.375 -10.882  12.801  1.00  0.00     0.024 A 
HETATM   22  C   UNL     1      42.632 -11.405  12.486  1.00  0.00     0.010 A 
ENDBRANCH  15  16
ENDBRANCH  12  15
ENDBRANCH   8  11
ENDBRANCH   5   7
BRANCH   4  23
HETATM   23  C   UNL     1      42.129 -14.424   5.150  1.00  0.00     0.732 A 
HETATM   24  N   UNL     1      41.977 -13.256   5.688  1.00  0.00    -0.067 NA
HETATM   25  C   UNL     1      40.987 -12.460   5.154  1.00  0.00     0.065 A 
HETATM   26  C   UNL     1      40.118 -12.861   4.207  1.00  0.00     0.036 A 
HETATM   27  C   UNL     1      40.935 -11.052   5.704  1.00  0.00     0.060 C 
HETATM   28  C   UNL     1      39.000 -12.021   3.660  1.00  0.00     0.046 C 
HETATM   29  C   UNL     1      40.272 -14.230   3.663  1.00  0.00     0.268 A 
HETATM   30  C   UNL     1      38.767 -10.741   4.465  1.00  0.00     0.005 C 
HETATM   31  C   UNL     1      40.090 -10.095   4.858  1.00  0.00     0.006 C 
HETATM   32  O   UNL     1      39.485 -14.707   2.855  1.00  0.00    -0.267 OA
HETATM   33  N   UNL     1      41.346 -14.912   4.136  1.00  0.00    -0.152 N 
HETATM   34  H   UNL     1      41.492 -15.870   3.833  1.00  0.00     0.188 HD
ENDBRANCH   4  23
TORSDOF 5
ENDMDL
MODEL 7
REMARK VINA RESULT:      -8.6      4.347      8.818
REMARK  5 active torsions:
REMARK  status: ('A' for Active; 'I' for Inactive)
REMARK    1  A    between atoms: N_4  and  C_5 
REMARK    2  A    between atoms: C_16  and  N_17 
REMARK       I    between atoms: N_17  and  C_18 
REMARK    3  A    between atoms: C_18  and  C_19 
REMARK       I    between atoms: C_19  and  N_20 
REMARK    4  A    between atoms: N_20  and  C_21 
REMARK    5  A    between atoms: C_21  and  C_22 
ROOT
HETATM    1  C   UNL     1      44.845 -22.498   2.891  1.00  0.00     0.072 C 
HETATM    2  C   UNL     1      44.174 -21.174   2.906  1.00  0.00     0.055 C 
HETATM    3  N   UNL     1      44.069 -20.482   4.043  1.00  0.00    -0.156 NA
HETATM    4  N   UNL     1      43.450 -19.305   3.677  1.00  0.00    -0.045 N 
HETATM    5  C   UNL     1      42.989 -19.379   2.364  1.00  0.00     0.152 C 
HETATM    6  C   UNL     1      43.565 -20.507   1.824  1.00  0.00     0.079 C 
ENDROOT
BRANCH   5   7
HETATM    7  N   UNL     1      42.177 -18.476   1.703  1.00  0.00    -0.303 N 
HETATM    8  C   UNL     1      42.702 -17.409   0.996  1.00  0.00     0.315 C 
HETATM    9  O   UNL     1      43.876 -17.105   0.843  1.00  0.00    -0.262 OA
HETATM   10  H   UNL     1      41.211 -18.357   1.997  1.00  0.00     0.171 HD
BRANCH   8  11
HETATM   11  C   UNL     1      41.593 -16.473   0.466  1.00  0.00     0.310 C 
HETATM   12  N   UNL     1      41.862 -15.928  -0.766  1.00  0.00    -0.349 N 
HETATM   13  H   UNL     1      42.771 -16.134  -1.170  1.00  0.00     0.163 HD
HETATM   14  O   UNL     1      40.601 -16.258   1.149  1.00  0.00    -0.262 OA
BRANCH  12  15
HETATM   15  C   UNL     1      40.965 -15.013  -1.422  1.00  0.00     0.161 C 
BRANCH  15  16
HETATM   16  C   UNL     1      41.585 -13.653  -1.614  1.00  0.00    -0.040 A 
HETATM   17  C   UNL     1      41.917 -13.192  -2.897  1.00  0.00     0.010 A 
HETATM   18  C   UNL     1      42.471 -11.921  -3.072  1.00  0.00     0.024 A 
HETATM   19  C   UNL     1      42.705 -11.107  -1.966  1.00  0.00     0.034 A 
HETATM   20 CL   UNL     1      43.375  -9.537  -2.184  1.00  0.00    -0.084 Cl
HETATM   21  C   UNL     1      42.399 -11.557  -0.684  1.00  0.00     0.024 A 
HETATM   22  C   UNL     1      41.846 -12.828  -0.508  1.00  0.00     0.010 A 
ENDBRANCH  15  16
ENDBRANCH  12  15
ENDBRANCH   8  11
ENDBRANCH   5   7
BRANCH   4  23
HETATM   23  C   UNL     1      43.554 -18.205   4.563  1.00  0.00     0.732 A 
HETATM   24  N   UNL     1      43.464 -16.960   4.222  1.00  0.00    -0.067 NA
HETATM   25  C   UNL     1      43.636 -16.034   5.230  1.00  0.00     0.065 A 
HETATM   26  C   UNL     1      43.996 -16.342   6.490  1.00  0.00     0.036 A 
HETATM   27  C   UNL     1      43.377 -14.600   4.829  1.00  0.00     0.060 C 
HETATM   28  C   UNL     1      44.242 -15.339   7.579  1.00  0.00     0.046 C 
HETATM   29  C   UNL     1      44.164 -17.774   6.830  1.00  0.00     0.268 A 
HETATM   30  C   UNL     1      44.301 -13.900   7.063  1.00  0.00     0.005 C 
HETATM   31  C   UNL     1      43.218 -13.650   6.020  1.00  0.00     0.006 C 
HETATM   32  O   UNL     1      44.561 -18.145   7.928  1.00  0.00    -0.267 OA
HETATM   33  N   UNL     1      43.850 -18.637   5.831  1.00  0.00    -0.152 N 
HETATM   34  H   UNL     1      43.976 -19.633   5.983  1.00  0.00     0.188 HD
ENDBRANCH   4  23
TORSDOF 5
ENDMDL
MODEL 8
REMARK VINA RESULT:      -8.6      4.276      8.854
REMARK  5 active torsions:
REMARK  status: ('A' for Active; 'I' for Inactive)
REMARK    1  A    between atoms: N_4  and  C_5 
REMARK    2  A    between atoms: C_16  and  N_17 
REMARK       I    between atoms: N_17  and  C_18 
REMARK    3  A    between atoms: C_18  and  C_19 
REMARK       I    between atoms: C_19  and  N_20 
REMARK    4  A    between atoms: N_20  and  C_21 
REMARK    5  A    between atoms: C_21  and  C_22 
ROOT
HETATM    1  C   UNL     1      42.024 -10.075  14.563  1.00  0.00     0.072 C 
HETATM    2  C   UNL     1      42.145 -10.509  13.149  1.00  0.00     0.055 C 
HETATM    3  N   UNL     1      41.123 -10.355  12.304  1.00  0.00    -0.156 NA
HETATM    4  N   UNL     1      41.601 -10.811  11.093  1.00  0.00    -0.045 N 
HETATM    5  C   UNL     1      42.834 -11.440  11.256  1.00  0.00     0.152 C 
HETATM    6  C   UNL     1      43.250 -11.131  12.532  1.00  0.00     0.079 C 
ENDROOT
BRANCH   5   7
HETATM    7  N   UNL     1      43.541 -12.167  10.317  1.00  0.00    -0.303 N 
HETATM    8  C   UNL     1      44.568 -11.602   9.583  1.00  0.00     0.315 C 
HETATM    9  O   UNL     1      44.996 -10.457   9.633  1.00  0.00    -0.262 OA
HETATM   10  H   UNL     1      43.119 -12.989   9.893  1.00  0.00     0.171 HD
BRANCH   8  11
HETATM   11  C   UNL     1      45.106 -12.574   8.508  1.00  0.00     0.310 C 
HETATM   12  N   UNL     1      44.152 -13.415   7.988  1.00  0.00    -0.349 N 
HETATM   13  H   UNL     1      43.224 -13.365   8.398  1.00  0.00     0.163 HD
HETATM   14  O   UNL     1      46.293 -12.559   8.215  1.00  0.00    -0.262 OA
BRANCH  12  15
HETATM   15  C   UNL     1      44.456 -14.409   6.991  1.00  0.00     0.161 C 
BRANCH  15  16
HETATM   16  C   UNL     1      43.341 -14.564   5.989  1.00  0.00    -0.040 A 
HETATM   17  C   UNL     1      42.427 -15.623   6.093  1.00  0.00     0.010 A 
HETATM   18  C   UNL     1      41.382 -15.751   5.174  1.00  0.00     0.024 A 
HETATM   19  C   UNL     1      41.249 -14.825   4.141  1.00  0.00     0.034 A 
HETATM   20 CL   UNL     1      39.954 -14.975   3.019  1.00  0.00    -0.084 Cl
HETATM   21  C   UNL     1      42.159 -13.779   4.014  1.00  0.00     0.024 A 
HETATM   22  C   UNL     1      43.205 -13.652   4.931  1.00  0.00     0.010 A 
ENDBRANCH  15  16
ENDBRANCH  12  15
ENDBRANCH   8  11
ENDBRANCH   5   7
BRANCH   4  23
HETATM   23  C   UNL     1      40.909 -10.415   9.923  1.00  0.00     0.732 A 
HETATM   24  N   UNL     1      41.129 -10.875   8.733  1.00  0.00    -0.067 NA
HETATM   25  C   UNL     1      40.375 -10.330   7.715  1.00  0.00     0.065 A 
HETATM   26  C   UNL     1      39.529  -9.294   7.869  1.00  0.00     0.036 A 
HETATM   27  C   UNL     1      40.550 -10.991   6.367  1.00  0.00     0.060 C 
HETATM   28  C   UNL     1      38.748  -8.655   6.758  1.00  0.00     0.046 C 
HETATM   29  C   UNL     1      39.355  -8.740   9.232  1.00  0.00     0.268 A 
HETATM   30  C   UNL     1      39.195  -9.119   5.371  1.00  0.00     0.005 C 
HETATM   31  C   UNL     1      39.460 -10.620   5.357  1.00  0.00     0.006 C 
HETATM   32  O   UNL     1      38.666  -7.753   9.456  1.00  0.00    -0.267 OA
HETATM   33  N   UNL     1      40.023  -9.408  10.207  1.00  0.00    -0.152 N 
HETATM   34  H   UNL     1      39.977  -9.062  11.160  1.00  0.00     0.188 HD
ENDBRANCH   4  23
TORSDOF 5
ENDMDL
MODEL 9
REMARK VINA RESULT:      -8.4      4.359      7.705
REMARK  5 active torsions:
REMARK  status: ('A' for Active; 'I' for Inactive)
REMARK    1  A    between atoms: N_4  and  C_5 
REMARK    2  A    between atoms: C_16  and  N_17 
REMARK       I    between atoms: N_17  and  C_18 
REMARK    3  A    between atoms: C_18  and  C_19 
REMARK       I    between atoms: C_19  and  N_20 
REMARK    4  A    between atoms: N_20  and  C_21 
REMARK    5  A    between atoms: C_21  and  C_22 
ROOT
HETATM    1  C   UNL     1      39.497  -9.562   6.771  1.00  0.00     0.072 C 
HETATM    2  C   UNL     1      40.212 -10.685   6.114  1.00  0.00     0.055 C 
HETATM    3  N   UNL     1      39.739 -11.220   4.985  1.00  0.00    -0.156 NA
HETATM    4  N   UNL     1      40.666 -12.182   4.641  1.00  0.00    -0.045 N 
HETATM    5  C   UNL     1      41.581 -12.375   5.675  1.00  0.00     0.152 C 
HETATM    6  C   UNL     1      41.383 -11.334   6.555  1.00  0.00     0.079 C 
ENDROOT
BRANCH   5   7
HETATM    7  N   UNL     1      42.543 -13.362   5.776  1.00  0.00    -0.303 N 
HETATM    8  C   UNL     1      42.207 -14.703   5.833  1.00  0.00     0.315 C 
HETATM    9  O   UNL     1      41.094 -15.208   5.802  1.00  0.00    -0.262 OA
HETATM   10  H   UNL     1      43.458 -13.137   6.161  1.00  0.00     0.171 HD
BRANCH   8  11
HETATM   11  C   UNL     1      43.445 -15.593   6.084  1.00  0.00     0.310 C 
HETATM   12  N   UNL     1      43.274 -16.905   5.715  1.00  0.00    -0.349 N 
HETATM   13  H   UNL     1      42.351 -17.172   5.384  1.00  0.00     0.163 HD
HETATM   14  O   UNL     1      44.446 -15.111   6.595  1.00  0.00    -0.262 OA
BRANCH  12  15
HETATM   15  C   UNL     1      44.300 -17.900   5.888  1.00  0.00     0.161 C 
BRANCH  15  16
HETATM   16  C   UNL     1      44.300 -18.913   4.773  1.00  0.00    -0.040 A 
HETATM   17  C   UNL     1      44.847 -20.191   4.966  1.00  0.00     0.010 A 
HETATM   18  C   UNL     1      44.825 -21.135   3.936  1.00  0.00     0.024 A 
HETATM   19  C   UNL     1      44.264 -20.804   2.704  1.00  0.00     0.034 A 
HETATM   20 CL   UNL     1      44.225 -21.972   1.441  1.00  0.00    -0.084 Cl
HETATM   21  C   UNL     1      43.734 -19.535   2.490  1.00  0.00     0.024 A 
HETATM   22  C   UNL     1      43.757 -18.590   3.520  1.00  0.00     0.010 A 
ENDBRANCH  15  16
ENDBRANCH  12  15
ENDBRANCH   8  11
ENDBRANCH   5   7
BRANCH   4  23
HETATM   23  C   UNL     1      40.667 -12.644   3.303  1.00  0.00     0.732 A 
HETATM   24  N   UNL     1      41.278 -12.072   2.315  1.00  0.00    -0.067 NA
HETATM   25  C   UNL     1      41.122 -12.657   1.077  1.00  0.00     0.065 A 
HETATM   26  C   UNL     1      40.300 -13.693   0.825  1.00  0.00     0.036 A 
HETATM   27  C   UNL     1      41.965 -12.054  -0.024  1.00  0.00     0.060 C 
HETATM   28  C   UNL     1      40.079 -14.300  -0.530  1.00  0.00     0.046 C 
HETATM   29  C   UNL     1      39.558 -14.279   1.965  1.00  0.00     0.268 A 
HETATM   30  C   UNL     1      40.679 -13.465  -1.663  1.00  0.00     0.005 C 
HETATM   31  C   UNL     1      42.052 -12.929  -1.278  1.00  0.00     0.006 C 
HETATM   32  O   UNL     1      38.733 -15.173   1.821  1.00  0.00    -0.267 OA
HETATM   33  N   UNL     1      39.858 -13.743   3.175  1.00  0.00    -0.152 N 
HETATM   34  H   UNL     1      39.360 -14.073   3.996  1.00  0.00     0.188 HD
ENDBRANCH   4  23
TORSDOF 5
ENDMDL
MODEL 10
REMARK VINA RESULT:      -8.3      4.615      8.375
REMARK  5 active torsions:
REMARK  status: ('A' for Active; 'I' for Inactive)
REMARK    1  A    between atoms: N_4  and  C_5 
REMARK    2  A    between atoms: C_16  and  N_17 
REMARK       I    between atoms: N_17  and  C_18 
REMARK    3  A    between atoms: C_18  and  C_19 
REMARK       I    between atoms: C_19  and  N_20 
REMARK    4  A    between atoms: N_20  and  C_21 
REMARK    5  A    between atoms: C_21  and  C_22 
ROOT
HETATM    1  C   UNL     1      44.397 -13.446   7.766  1.00  0.00     0.072 C 
HETATM    2  C   UNL     1      43.943 -14.445   6.766  1.00  0.00     0.055 C 
HETATM    3  N   UNL     1      44.591 -15.604   6.626  1.00  0.00    -0.156 NA
HETATM    4  N   UNL     1      43.876 -16.289   5.666  1.00  0.00    -0.045 N 
HETATM    5  C   UNL     1      42.928 -15.457   5.073  1.00  0.00     0.152 C 
HETATM    6  C   UNL     1      42.870 -14.328   5.860  1.00  0.00     0.079 C 
ENDROOT
BRANCH   5   7
HETATM    7  N   UNL     1      42.145 -15.724   3.965  1.00  0.00    -0.303 N 
HETATM    8  C   UNL     1      42.689 -15.817   2.697  1.00  0.00     0.315 C 
HETATM    9  O   UNL     1      43.858 -15.692   2.361  1.00  0.00    -0.262 OA
HETATM   10  H   UNL     1      41.151 -15.511   3.987  1.00  0.00     0.171 HD
BRANCH   8  11
HETATM   11  C   UNL     1      41.596 -15.983   1.616  1.00  0.00     0.310 C 
HETATM   12  N   UNL     1      41.695 -15.088   0.579  1.00  0.00    -0.349 N 
HETATM   13  H   UNL     1      42.417 -14.377   0.653  1.00  0.00     0.163 HD
HETATM   14  O   UNL     1      40.733 -16.839   1.752  1.00  0.00    -0.262 OA
BRANCH  12  15
HETATM   15  C   UNL     1      40.760 -15.063  -0.515  1.00  0.00     0.161 C 
BRANCH  15  16
HETATM   16  C   UNL     1      41.181 -14.105  -1.599  1.00  0.00    -0.040 A 
HETATM   17  C   UNL     1      40.579 -14.145  -2.865  1.00  0.00     0.010 A 
HETATM   18  C   UNL     1      40.958 -13.239  -3.860  1.00  0.00     0.024 A 
HETATM   19  C   UNL     1      41.947 -12.294  -3.597  1.00  0.00     0.034 A 
HETATM   20 CL   UNL     1      42.403 -11.171  -4.818  1.00  0.00    -0.084 Cl
HETATM   21  C   UNL     1      42.567 -12.253  -2.352  1.00  0.00     0.024 A 
HETATM   22  C   UNL     1      42.190 -13.159  -1.357  1.00  0.00     0.010 A 
ENDBRANCH  15  16
ENDBRANCH  12  15
ENDBRANCH   8  11
ENDBRANCH   5   7
BRANCH   4  23
HETATM   23  C   UNL     1      44.063 -17.689   5.581  1.00  0.00     0.732 A 
HETATM   24  N   UNL     1      44.221 -18.357   4.483  1.00  0.00    -0.067 NA
HETATM   25  C   UNL     1      44.347 -19.724   4.610  1.00  0.00     0.065 A 
HETATM   26  C   UNL     1      44.204 -20.396   5.768  1.00  0.00     0.036 A 
HETATM   27  C   UNL     1      44.678 -20.456   3.328  1.00  0.00     0.060 C 
HETATM   28  C   UNL     1      44.282 -21.888   5.907  1.00  0.00     0.046 C 
HETATM   29  C   UNL     1      43.951 -19.608   6.996  1.00  0.00     0.268 A 
HETATM   30  C   UNL     1      44.281 -22.614   4.560  1.00  0.00     0.005 C 
HETATM   31  C   UNL     1      45.164 -21.891   3.551  1.00  0.00     0.006 C 
HETATM   32  O   UNL     1      43.734 -20.135   8.080  1.00  0.00    -0.267 OA
HETATM   33  N   UNL     1      43.971 -18.261   6.824  1.00  0.00    -0.152 N 
HETATM   34  H   UNL     1      43.769 -17.661   7.617  1.00  0.00     0.188 HD
ENDBRANCH   4  23
TORSDOF 5
ENDMDL
