MODEL 1
REMARK VINA RESULT:      -7.9      0.000      0.000
REMARK  8 active torsions:
REMARK  status: ('A' for Active; 'I' for Inactive)
REMARK    1  A    between atoms: C_2  and  O_3 
REMARK    2  A    between atoms: O_3  and  C_4 
REMARK    3  A    between atoms: C_8  and  C_9 
REMARK       I    between atoms: C_9  and  N_10 
REMARK    4  A    between atoms: N_10  and  C_11 
REMARK    5  A    between atoms: N_22  and  C_23 
REMARK    6  A    between atoms: C_23  and  C_24 
REMARK    7  A    between atoms: C_24  and  C_25 
REMARK    8  A    between atoms: C_25  and  O_26 
ROOT
HETATM    1  C   UNL     1      40.443 -13.827  -2.197  1.00  0.00     0.102 A 
HETATM    2  C   UNL     1      40.729 -13.415  -0.901  1.00  0.00     0.113 A 
HETATM    3  C   UNL     1      41.884 -12.608  -0.658  1.00  0.00     0.002 A 
HETATM    4  C   UNL     1      42.185 -12.410   0.816  1.00  0.00     0.138 C 
HETATM    5  C   UNL     1      42.091 -13.857   1.305  1.00  0.00     0.161 C 
HETATM    6  C   UNL     1      40.587 -13.994   1.500  1.00  0.00     0.155 C 
HETATM    7  C   UNL     1      40.142 -15.445   1.786  1.00  0.00     0.072 C 
HETATM    8  N   UNL     1      40.142 -12.975   2.562  1.00  0.00    -0.325 N 
HETATM    9  C   UNL     1      40.671 -11.660   2.558  1.00  0.00     0.172 C 
HETATM   10  S   UNL     1      39.993 -10.254   3.161  1.00  0.00    -0.041 SA
HETATM   11  N   UNL     1      41.885 -11.506   1.889  1.00  0.00    -0.357 N 
HETATM   12  O   UNL     1      39.912 -13.759   0.182  1.00  0.00    -0.316 OA
HETATM   13  C   UNL     1      42.675 -12.147  -1.704  1.00  0.00     0.012 A 
HETATM   14  C   UNL     1      42.320 -12.499  -3.007  1.00  0.00     0.003 A 
HETATM   15  C   UNL     1      41.218 -13.334  -3.252  1.00  0.00     0.040 A 
HETATM   16  H   UNL     1      42.196 -10.551   1.820  1.00  0.00     0.162 HD
ENDROOT
BRANCH   5  17
HETATM   17  C   UNL     1      42.910 -14.336   2.501  1.00  0.00     0.233 C 
HETATM   18  N   UNL     1      43.020 -15.728   2.440  1.00  0.00    -0.326 N 
HETATM   19  H   UNL     1      42.700 -16.165   1.590  1.00  0.00     0.169 HD
HETATM   20  O   UNL     1      43.288 -13.625   3.421  1.00  0.00    -0.273 OA
BRANCH  18  21
HETATM   21  C   UNL     1      43.224 -16.620   3.506  1.00  0.00     0.040 A 
HETATM   22  C   UNL     1      43.771 -17.889   3.214  1.00  0.00    -0.035 A 
HETATM   23  C   UNL     1      44.054 -18.388   1.818  1.00  0.00     0.050 C 
HETATM   24  C   UNL     1      43.916 -18.821   4.254  1.00  0.00     0.015 A 
HETATM   25  C   UNL     1      43.559 -18.503   5.566  1.00  0.00    -0.061 A 
HETATM   26  C   UNL     1      43.737 -19.517   6.656  1.00  0.00     0.048 C 
HETATM   27  C   UNL     1      43.071 -17.224   5.846  1.00  0.00     0.009 A 
HETATM   28  C   UNL     1      42.886 -16.293   4.820  1.00  0.00     0.030 A 
ENDBRANCH  18  21
ENDBRANCH   5  17
BRANCH   8  29
HETATM   29  C   UNL     1      39.357 -13.505   3.713  1.00  0.00     0.130 C 
BRANCH  29  30
HETATM   30  C   UNL     1      39.986 -13.665   5.109  1.00  0.00     0.046 C 
BRANCH  30  31
HETATM   31  C   UNL     1      39.366 -12.713   6.128  1.00  0.00     0.168 C 
BRANCH  31  32
HETATM   32  O   UNL     1      40.346 -11.728   6.469  1.00  0.00    -0.396 OA
HETATM   33  C   UNL     1      41.661 -12.172   6.166  1.00  0.00     0.201 C 
ENDBRANCH  31  32
ENDBRANCH  30  31
ENDBRANCH  29  30
ENDBRANCH   8  29
BRANCH   1  34
HETATM   34  O   UNL     1      39.465 -14.735  -2.489  1.00  0.00    -0.349 OA
BRANCH  34  35
HETATM   35  C   UNL     1      39.956 -15.760  -3.369  1.00  0.00     0.171 C 
HETATM   36  C   UNL     1      38.888 -16.197  -4.359  1.00  0.00     0.034 C 
ENDBRANCH  34  35
ENDBRANCH   1  34
TORSDOF 8
ENDMDL
MODEL 2
REMARK VINA RESULT:      -7.5      2.704      7.238
REMARK  8 active torsions:
REMARK  status: ('A' for Active; 'I' for Inactive)
REMARK    1  A    between atoms: C_2  and  O_3 
REMARK    2  A    between atoms: O_3  and  C_4 
REMARK    3  A    between atoms: C_8  and  C_9 
REMARK       I    between atoms: C_9  and  N_10 
REMARK    4  A    between atoms: N_10  and  C_11 
REMARK    5  A    between atoms: N_22  and  C_23 
REMARK    6  A    between atoms: C_23  and  C_24 
REMARK    7  A    between atoms: C_24  and  C_25 
REMARK    8  A    between atoms: C_25  and  O_26 
ROOT
HETATM    1  C   UNL     1      41.774 -10.654   8.298  1.00  0.00     0.102 A 
HETATM    2  C   UNL     1      41.359 -11.394   7.196  1.00  0.00     0.113 A 
HETATM    3  C   UNL     1      40.028 -11.918   7.164  1.00  0.00     0.002 A 
HETATM    4  C   UNL     1      39.783 -12.872   6.009  1.00  0.00     0.138 C 
HETATM    5  C   UNL     1      41.008 -13.778   6.144  1.00  0.00     0.161 C 
HETATM    6  C   UNL     1      42.055 -12.954   5.408  1.00  0.00     0.155 C 
HETATM    7  C   UNL     1      43.486 -13.512   5.564  1.00  0.00     0.072 C 
HETATM    8  N   UNL     1      41.598 -12.783   3.950  1.00  0.00    -0.325 N 
HETATM    9  C   UNL     1      40.240 -12.506   3.653  1.00  0.00     0.172 C 
HETATM   10  S   UNL     1      39.594 -11.732   2.318  1.00  0.00    -0.041 SA
HETATM   11  N   UNL     1      39.327 -12.858   4.648  1.00  0.00    -0.357 N 
HETATM   12  O   UNL     1      42.201 -11.636   6.106  1.00  0.00    -0.316 OA
HETATM   13  C   UNL     1      39.112 -11.625   8.167  1.00  0.00     0.012 A 
HETATM   14  C   UNL     1      39.523 -10.807   9.220  1.00  0.00     0.003 A 
HETATM   15  C   UNL     1      40.842 -10.330   9.288  1.00  0.00     0.040 A 
HETATM   16  H   UNL     1      38.381 -12.571   4.456  1.00  0.00     0.162 HD
ENDROOT
BRANCH   5  17
HETATM   17  C   UNL     1      40.956 -15.239   5.703  1.00  0.00     0.233 C 
HETATM   18  N   UNL     1      41.922 -15.956   6.414  1.00  0.00    -0.326 N 
HETATM   19  H   UNL     1      42.372 -15.469   7.172  1.00  0.00     0.169 HD
HETATM   20  O   UNL     1      40.270 -15.669   4.787  1.00  0.00    -0.273 OA
BRANCH  18  21
HETATM   21  C   UNL     1      42.568 -17.141   6.025  1.00  0.00     0.040 A 
HETATM   22  C   UNL     1      43.265 -17.872   7.012  1.00  0.00    -0.035 A 
HETATM   23  C   UNL     1      43.447 -17.408   8.437  1.00  0.00     0.050 C 
HETATM   24  C   UNL     1      43.976 -19.020   6.631  1.00  0.00     0.015 A 
HETATM   25  C   UNL     1      43.981 -19.464   5.307  1.00  0.00    -0.061 A 
HETATM   26  C   UNL     1      44.742 -20.700   4.934  1.00  0.00     0.048 C 
HETATM   27  C   UNL     1      43.242 -18.759   4.353  1.00  0.00     0.009 A 
HETATM   28  C   UNL     1      42.554 -17.594   4.704  1.00  0.00     0.030 A 
ENDBRANCH  18  21
ENDBRANCH   5  17
BRANCH   8  29
HETATM   29  C   UNL     1      42.572 -13.173   2.891  1.00  0.00     0.130 C 
BRANCH  29  30
HETATM   30  C   UNL     1      42.610 -14.603   2.322  1.00  0.00     0.046 C 
BRANCH  30  31
HETATM   31  C   UNL     1      41.709 -14.756   1.100  1.00  0.00     0.168 C 
BRANCH  31  32
HETATM   32  O   UNL     1      40.608 -15.595   1.462  1.00  0.00    -0.396 OA
HETATM   33  C   UNL     1      40.949 -16.972   1.372  1.00  0.00     0.201 C 
ENDBRANCH  31  32
ENDBRANCH  30  31
ENDBRANCH  29  30
ENDBRANCH   8  29
BRANCH   1  34
HETATM   34  O   UNL     1      43.071 -10.267   8.486  1.00  0.00    -0.349 OA
BRANCH  34  35
HETATM   35  C   UNL     1      43.790 -11.232   9.273  1.00  0.00     0.171 C 
HETATM   36  C   UNL     1      44.446 -10.581  10.480  1.00  0.00     0.034 C 
ENDBRANCH  34  35
ENDBRANCH   1  34
TORSDOF 8
ENDMDL
MODEL 3
REMARK VINA RESULT:      -7.2      2.042      6.166
REMARK  8 active torsions:
REMARK  status: ('A' for Active; 'I' for Inactive)
REMARK    1  A    between atoms: C_2  and  O_3 
REMARK    2  A    between atoms: O_3  and  C_4 
REMARK    3  A    between atoms: C_8  and  C_9 
REMARK       I    between atoms: C_9  and  N_10 
REMARK    4  A    between atoms: N_10  and  C_11 
REMARK    5  A    between atoms: N_22  and  C_23 
REMARK    6  A    between atoms: C_23  and  C_24 
REMARK    7  A    between atoms: C_24  and  C_25 
REMARK    8  A    between atoms: C_25  and  O_26 
ROOT
HETATM    1  C   UNL     1      40.865 -11.062   5.002  1.00  0.00     0.102 A 
HETATM    2  C   UNL     1      40.502 -12.020   4.062  1.00  0.00     0.113 A 
HETATM    3  C   UNL     1      39.945 -13.262   4.504  1.00  0.00     0.002 A 
HETATM    4  C   UNL     1      39.791 -14.285   3.393  1.00  0.00     0.138 C 
HETATM    5  C   UNL     1      41.180 -14.200   2.757  1.00  0.00     0.161 C 
HETATM    6  C   UNL     1      41.003 -12.995   1.845  1.00  0.00     0.155 C 
HETATM    7  C   UNL     1      42.327 -12.510   1.214  1.00  0.00     0.072 C 
HETATM    8  N   UNL     1      39.899 -13.318   0.825  1.00  0.00    -0.325 N 
HETATM    9  C   UNL     1      38.720 -13.990   1.235  1.00  0.00     0.172 C 
HETATM   10  S   UNL     1      37.196 -13.953   0.546  1.00  0.00    -0.041 SA
HETATM   11  N   UNL     1      38.829 -14.717   2.421  1.00  0.00    -0.357 N 
HETATM   12  O   UNL     1      40.654 -11.806   2.688  1.00  0.00    -0.316 OA
HETATM   13  C   UNL     1      39.673 -13.493   5.847  1.00  0.00     0.012 A 
HETATM   14  C   UNL     1      39.963 -12.484   6.765  1.00  0.00     0.003 A 
HETATM   15  C   UNL     1      40.558 -11.282   6.348  1.00  0.00     0.040 A 
HETATM   16  H   UNL     1      37.959 -15.111   2.741  1.00  0.00     0.162 HD
ENDROOT
BRANCH   5  17
HETATM   17  C   UNL     1      41.799 -15.410   2.061  1.00  0.00     0.233 C 
HETATM   18  N   UNL     1      41.610 -16.536   2.867  1.00  0.00    -0.326 N 
HETATM   19  H   UNL     1      40.998 -16.421   3.659  1.00  0.00     0.169 HD
HETATM   20  O   UNL     1      42.460 -15.364   1.034  1.00  0.00    -0.273 OA
BRANCH  18  21
HETATM   21  C   UNL     1      42.389 -17.704   2.904  1.00  0.00     0.040 A 
HETATM   22  C   UNL     1      43.184 -17.936   4.048  1.00  0.00    -0.035 A 
HETATM   23  C   UNL     1      43.330 -16.958   5.188  1.00  0.00     0.050 C 
HETATM   24  C   UNL     1      44.024 -19.059   4.075  1.00  0.00     0.015 A 
HETATM   25  C   UNL     1      44.063 -19.961   3.009  1.00  0.00    -0.061 A 
HETATM   26  C   UNL     1      44.963 -21.158   3.073  1.00  0.00     0.048 C 
HETATM   27  C   UNL     1      43.229 -19.746   1.908  1.00  0.00     0.009 A 
HETATM   28  C   UNL     1      42.411 -18.614   1.846  1.00  0.00     0.030 A 
ENDBRANCH  18  21
ENDBRANCH   5  17
BRANCH   8  29
HETATM   29  C   UNL     1      40.238 -13.131  -0.614  1.00  0.00     0.130 C 
BRANCH  29  30
HETATM   30  C   UNL     1      40.211 -14.309  -1.605  1.00  0.00     0.046 C 
BRANCH  30  31
HETATM   31  C   UNL     1      41.378 -14.257  -2.588  1.00  0.00     0.168 C 
BRANCH  31  32
HETATM   32  O   UNL     1      41.233 -15.343  -3.508  1.00  0.00    -0.396 OA
HETATM   33  C   UNL     1      39.905 -15.849  -3.515  1.00  0.00     0.201 C 
ENDBRANCH  31  32
ENDBRANCH  30  31
ENDBRANCH  29  30
ENDBRANCH   8  29
BRANCH   1  34
HETATM   34  O   UNL     1      41.558  -9.930   4.678  1.00  0.00    -0.349 OA
BRANCH  34  35
HETATM   35  C   UNL     1      40.876  -8.754   5.145  1.00  0.00     0.171 C 
HETATM   36  C   UNL     1      39.798  -8.315   4.167  1.00  0.00     0.034 C 
ENDBRANCH  34  35
ENDBRANCH   1  34
TORSDOF 8
ENDMDL
MODEL 4
REMARK VINA RESULT:      -7.1      1.941      2.664
REMARK  8 active torsions:
REMARK  status: ('A' for Active; 'I' for Inactive)
REMARK    1  A    between atoms: C_2  and  O_3 
REMARK    2  A    between atoms: O_3  and  C_4 
REMARK    3  A    between atoms: C_8  and  C_9 
REMARK       I    between atoms: C_9  and  N_10 
REMARK    4  A    between atoms: N_10  and  C_11 
REMARK    5  A    between atoms: N_22  and  C_23 
REMARK    6  A    between atoms: C_23  and  C_24 
REMARK    7  A    between atoms: C_24  and  C_25 
REMARK    8  A    between atoms: C_25  and  O_26 
ROOT
HETATM    1  C   UNL     1      38.256 -14.877  -3.069  1.00  0.00     0.102 A 
HETATM    2  C   UNL     1      39.015 -14.341  -2.035  1.00  0.00     0.113 A 
HETATM    3  C   UNL     1      40.374 -14.758  -1.872  1.00  0.00     0.002 A 
HETATM    4  C   UNL     1      41.011 -14.253  -0.590  1.00  0.00     0.138 C 
HETATM    5  C   UNL     1      39.922 -14.629   0.416  1.00  0.00     0.161 C 
HETATM    6  C   UNL     1      38.977 -13.445   0.270  1.00  0.00     0.155 C 
HETATM    7  C   UNL     1      37.638 -13.641   1.013  1.00  0.00     0.072 C 
HETATM    8  N   UNL     1      39.738 -12.168   0.664  1.00  0.00    -0.325 N 
HETATM    9  C   UNL     1      41.078 -11.975   0.243  1.00  0.00     0.172 C 
HETATM   10  S   UNL     1      41.911 -10.542   0.016  1.00  0.00    -0.041 SA
HETATM   11  N   UNL     1      41.769 -13.136  -0.103  1.00  0.00    -0.357 N 
HETATM   12  O   UNL     1      38.495 -13.393  -1.148  1.00  0.00    -0.316 OA
HETATM   13  C   UNL     1      40.979 -15.616  -2.782  1.00  0.00     0.012 A 
HETATM   14  C   UNL     1      40.226 -16.075  -3.863  1.00  0.00     0.003 A 
HETATM   15  C   UNL     1      38.876 -15.712  -4.003  1.00  0.00     0.040 A 
HETATM   16  H   UNL     1      42.686 -12.969  -0.484  1.00  0.00     0.162 HD
ENDROOT
BRANCH   5  17
HETATM   17  C   UNL     1      40.273 -14.958   1.866  1.00  0.00     0.233 C 
HETATM   18  N   UNL     1      41.530 -15.569   1.895  1.00  0.00    -0.326 N 
HETATM   19  H   UNL     1      42.051 -15.561   1.033  1.00  0.00     0.169 HD
HETATM   20  O   UNL     1      39.517 -14.823   2.817  1.00  0.00    -0.273 OA
BRANCH  18  21
HETATM   21  C   UNL     1      42.029 -16.456   2.863  1.00  0.00     0.040 A 
HETATM   22  C   UNL     1      43.056 -17.347   2.480  1.00  0.00    -0.035 A 
HETATM   23  C   UNL     1      43.579 -17.479   1.071  1.00  0.00     0.050 C 
HETATM   24  C   UNL     1      43.519 -18.290   3.411  1.00  0.00     0.015 A 
HETATM   25  C   UNL     1      43.005 -18.339   4.709  1.00  0.00    -0.061 A 
HETATM   26  C   UNL     1      43.529 -19.350   5.684  1.00  0.00     0.048 C 
HETATM   27  C   UNL     1      42.028 -17.414   5.088  1.00  0.00     0.009 A 
HETATM   28  C   UNL     1      41.528 -16.490   4.165  1.00  0.00     0.030 A 
ENDBRANCH  18  21
ENDBRANCH   5  17
BRANCH   8  29
HETATM   29  C   UNL     1      39.103 -11.299   1.694  1.00  0.00     0.130 C 
BRANCH  29  30
HETATM   30  C   UNL     1      39.599 -11.289   3.152  1.00  0.00     0.046 C 
BRANCH  30  31
HETATM   31  C   UNL     1      38.453 -11.126   4.146  1.00  0.00     0.168 C 
BRANCH  31  32
HETATM   32  O   UNL     1      38.985 -11.267   5.466  1.00  0.00    -0.396 OA
HETATM   33  C   UNL     1      39.210 -12.631   5.796  1.00  0.00     0.201 C 
ENDBRANCH  31  32
ENDBRANCH  30  31
ENDBRANCH  29  30
ENDBRANCH   8  29
BRANCH   1  34
HETATM   34  O   UNL     1      36.912 -14.666  -3.189  1.00  0.00    -0.349 OA
BRANCH  34  35
HETATM   35  C   UNL     1      36.624 -13.765  -4.271  1.00  0.00     0.171 C 
HETATM   36  C   UNL     1      35.335 -14.147  -4.981  1.00  0.00     0.034 C 
ENDBRANCH  34  35
ENDBRANCH   1  34
TORSDOF 8
ENDMDL
MODEL 5
REMARK VINA RESULT:      -6.8      2.605      6.009
REMARK  8 active torsions:
REMARK  status: ('A' for Active; 'I' for Inactive)
REMARK    1  A    between atoms: C_2  and  O_3 
REMARK    2  A    between atoms: O_3  and  C_4 
REMARK    3  A    between atoms: C_8  and  C_9 
REMARK       I    between atoms: C_9  and  N_10 
REMARK    4  A    between atoms: N_10  and  C_11 
REMARK    5  A    between atoms: N_22  and  C_23 
REMARK    6  A    between atoms: C_23  and  C_24 
REMARK    7  A    between atoms: C_24  and  C_25 
REMARK    8  A    between atoms: C_25  and  O_26 
ROOT
HETATM    1  C   UNL     1      40.191  -9.378   2.779  1.00  0.00     0.102 A 
HETATM    2  C   UNL     1      39.794 -10.522   2.095  1.00  0.00     0.113 A 
HETATM    3  C   UNL     1      38.542 -11.134   2.417  1.00  0.00     0.002 A 
HETATM    4  C   UNL     1      38.337 -12.480   1.744  1.00  0.00     0.138 C 
HETATM    5  C   UNL     1      39.674 -13.149   2.070  1.00  0.00     0.161 C 
HETATM    6  C   UNL     1      40.552 -12.585   0.961  1.00  0.00     0.155 C 
HETATM    7  C   UNL     1      42.051 -12.908   1.149  1.00  0.00     0.072 C 
HETATM    8  N   UNL     1      39.973 -13.036  -0.391  1.00  0.00    -0.325 N 
HETATM    9  C   UNL     1      38.573 -13.019  -0.610  1.00  0.00     0.172 C 
HETATM   10  S   UNL     1      37.739 -12.885  -2.054  1.00  0.00    -0.041 SA
HETATM   11  N   UNL     1      37.787 -13.036   0.542  1.00  0.00    -0.357 N 
HETATM   12  O   UNL     1      40.580 -11.092   1.087  1.00  0.00    -0.316 OA
HETATM   13  C   UNL     1      37.672 -10.558   3.333  1.00  0.00     0.012 A 
HETATM   14  C   UNL     1      38.050  -9.362   3.945  1.00  0.00     0.003 A 
HETATM   15  C   UNL     1      39.299  -8.780   3.674  1.00  0.00     0.040 A 
HETATM   16  H   UNL     1      36.801 -12.932   0.367  1.00  0.00     0.162 HD
ENDROOT
BRANCH   5  17
HETATM   17  C   UNL     1      39.777 -14.664   2.222  1.00  0.00     0.233 C 
HETATM   18  N   UNL     1      41.031 -14.977   2.754  1.00  0.00    -0.326 N 
HETATM   19  H   UNL     1      41.584 -14.201   3.082  1.00  0.00     0.169 HD
HETATM   20  O   UNL     1      38.947 -15.466   1.821  1.00  0.00    -0.273 OA
BRANCH  18  21
HETATM   21  C   UNL     1      41.749 -16.176   2.610  1.00  0.00     0.040 A 
HETATM   22  C   UNL     1      41.779 -17.067   3.706  1.00  0.00    -0.035 A 
HETATM   23  C   UNL     1      41.178 -16.767   5.057  1.00  0.00     0.050 C 
HETATM   24  C   UNL     1      42.549 -18.236   3.609  1.00  0.00     0.015 A 
HETATM   25  C   UNL     1      43.254 -18.545   2.443  1.00  0.00    -0.061 A 
HETATM   26  C   UNL     1      44.058 -19.808   2.367  1.00  0.00     0.048 C 
HETATM   27  C   UNL     1      43.168 -17.680   1.349  1.00  0.00     0.009 A 
HETATM   28  C   UNL     1      42.436 -16.492   1.437  1.00  0.00     0.030 A 
ENDBRANCH  18  21
ENDBRANCH   5  17
BRANCH   8  29
HETATM   29  C   UNL     1      40.910 -13.717  -1.328  1.00  0.00     0.130 C 
BRANCH  29  30
HETATM   30  C   UNL     1      40.764 -15.213  -1.663  1.00  0.00     0.046 C 
BRANCH  30  31
HETATM   31  C   UNL     1      41.233 -15.530  -3.080  1.00  0.00     0.168 C 
BRANCH  31  32
HETATM   32  O   UNL     1      40.216 -15.104  -3.991  1.00  0.00    -0.396 OA
HETATM   33  C   UNL     1      39.119 -16.008  -4.010  1.00  0.00     0.201 C 
ENDBRANCH  31  32
ENDBRANCH  30  31
ENDBRANCH  29  30
ENDBRANCH   8  29
BRANCH   1  34
HETATM   34  O   UNL     1      41.438  -8.834   2.656  1.00  0.00    -0.349 OA
BRANCH  34  35
HETATM   35  C   UNL     1      41.423  -7.699   1.774  1.00  0.00     0.171 C 
HETATM   36  C   UNL     1      42.189  -7.985   0.492  1.00  0.00     0.034 C 
ENDBRANCH  34  35
ENDBRANCH   1  34
TORSDOF 8
ENDMDL
MODEL 6
REMARK VINA RESULT:      -6.6      2.423      3.420
REMARK  8 active torsions:
REMARK  status: ('A' for Active; 'I' for Inactive)
REMARK    1  A    between atoms: C_2  and  O_3 
REMARK    2  A    between atoms: O_3  and  C_4 
REMARK    3  A    between atoms: C_8  and  C_9 
REMARK       I    between atoms: C_9  and  N_10 
REMARK    4  A    between atoms: N_10  and  C_11 
REMARK    5  A    between atoms: N_22  and  C_23 
REMARK    6  A    between atoms: C_23  and  C_24 
REMARK    7  A    between atoms: C_24  and  C_25 
REMARK    8  A    between atoms: C_25  and  O_26 
ROOT
HETATM    1  C   UNL     1      38.186 -14.883  -3.069  1.00  0.00     0.102 A 
HETATM    2  C   UNL     1      38.981 -14.367  -2.051  1.00  0.00     0.113 A 
HETATM    3  C   UNL     1      40.332 -14.819  -1.918  1.00  0.00     0.002 A 
HETATM    4  C   UNL     1      41.009 -14.332  -0.649  1.00  0.00     0.138 C 
HETATM    5  C   UNL     1      39.932 -14.682   0.380  1.00  0.00     0.161 C 
HETATM    6  C   UNL     1      39.015 -13.473   0.255  1.00  0.00     0.155 C 
HETATM    7  C   UNL     1      37.687 -13.636   1.026  1.00  0.00     0.072 C 
HETATM    8  N   UNL     1      39.816 -12.216   0.633  1.00  0.00    -0.325 N 
HETATM    9  C   UNL     1      41.152 -12.057   0.184  1.00  0.00     0.172 C 
HETATM   10  S   UNL     1      42.016 -10.646  -0.060  1.00  0.00    -0.041 SA
HETATM   11  N   UNL     1      41.805 -13.235  -0.178  1.00  0.00    -0.357 N 
HETATM   12  O   UNL     1      38.503 -13.407  -1.153  1.00  0.00    -0.316 OA
HETATM   13  C   UNL     1      40.895 -15.692  -2.840  1.00  0.00     0.012 A 
HETATM   14  C   UNL     1      40.107 -16.129  -3.906  1.00  0.00     0.003 A 
HETATM   15  C   UNL     1      38.765 -15.733  -4.017  1.00  0.00     0.040 A 
HETATM   16  H   UNL     1      42.717 -13.092  -0.578  1.00  0.00     0.162 HD
ENDROOT
BRANCH   5  17
HETATM   17  C   UNL     1      40.305 -15.021   1.822  1.00  0.00     0.233 C 
HETATM   18  N   UNL     1      41.558 -15.641   1.826  1.00  0.00    -0.326 N 
HETATM   19  H   UNL     1      42.064 -15.632   0.955  1.00  0.00     0.169 HD
HETATM   20  O   UNL     1      39.566 -14.886   2.786  1.00  0.00    -0.273 OA
BRANCH  18  21
HETATM   21  C   UNL     1      42.067 -16.537   2.781  1.00  0.00     0.040 A 
HETATM   22  C   UNL     1      43.096 -17.419   2.381  1.00  0.00    -0.035 A 
HETATM   23  C   UNL     1      43.611 -17.532   0.967  1.00  0.00     0.050 C 
HETATM   24  C   UNL     1      43.569 -18.370   3.298  1.00  0.00     0.015 A 
HETATM   25  C   UNL     1      43.063 -18.436   4.599  1.00  0.00    -0.061 A 
HETATM   26  C   UNL     1      43.598 -19.457   5.558  1.00  0.00     0.048 C 
HETATM   27  C   UNL     1      42.084 -17.521   4.994  1.00  0.00     0.009 A 
HETATM   28  C   UNL     1      41.574 -16.588   4.085  1.00  0.00     0.030 A 
ENDBRANCH  18  21
ENDBRANCH   5  17
BRANCH   8  29
HETATM   29  C   UNL     1      39.226 -11.333   1.678  1.00  0.00     0.130 C 
BRANCH  29  30
HETATM   30  C   UNL     1      38.349 -10.124   1.305  1.00  0.00     0.046 C 
BRANCH  30  31
HETATM   31  C   UNL     1      37.109 -10.021   2.188  1.00  0.00     0.168 C 
BRANCH  31  32
HETATM   32  O   UNL     1      35.999 -10.552   1.460  1.00  0.00    -0.396 OA
HETATM   33  C   UNL     1      36.094 -10.257   0.073  1.00  0.00     0.201 C 
ENDBRANCH  31  32
ENDBRANCH  30  31
ENDBRANCH  29  30
ENDBRANCH   8  29
BRANCH   1  34
HETATM   34  O   UNL     1      36.846 -14.638  -3.160  1.00  0.00    -0.349 OA
BRANCH  34  35
HETATM   35  C   UNL     1      36.473 -14.292  -4.505  1.00  0.00     0.171 C 
HETATM   36  C   UNL     1      36.097 -12.822  -4.613  1.00  0.00     0.034 C 
ENDBRANCH  34  35
ENDBRANCH   1  34
TORSDOF 8
ENDMDL
MODEL 7
REMARK VINA RESULT:      -6.4      3.538      7.909
REMARK  8 active torsions:
REMARK  status: ('A' for Active; 'I' for Inactive)
REMARK    1  A    between atoms: C_2  and  O_3 
REMARK    2  A    between atoms: O_3  and  C_4 
REMARK    3  A    between atoms: C_8  and  C_9 
REMARK       I    between atoms: C_9  and  N_10 
REMARK    4  A    between atoms: N_10  and  C_11 
REMARK    5  A    between atoms: N_22  and  C_23 
REMARK    6  A    between atoms: C_23  and  C_24 
REMARK    7  A    between atoms: C_24  and  C_25 
REMARK    8  A    between atoms: C_25  and  O_26 
ROOT
HETATM    1  C   UNL     1      41.696 -15.349   2.433  1.00  0.00     0.102 A 
HETATM    2  C   UNL     1      41.588 -14.131   1.771  1.00  0.00     0.113 A 
HETATM    3  C   UNL     1      41.940 -12.925   2.456  1.00  0.00     0.002 A 
HETATM    4  C   UNL     1      41.577 -11.667   1.689  1.00  0.00     0.138 C 
HETATM    5  C   UNL     1      40.131 -11.991   1.310  1.00  0.00     0.161 C 
HETATM    6  C   UNL     1      40.345 -12.840   0.065  1.00  0.00     0.155 C 
HETATM    7  C   UNL     1      39.052 -13.518  -0.438  1.00  0.00     0.072 C 
HETATM    8  N   UNL     1      41.060 -11.980  -0.990  1.00  0.00    -0.325 N 
HETATM    9  C   UNL     1      42.119 -11.117  -0.612  1.00  0.00     0.172 C 
HETATM   10  S   UNL     1      43.392 -10.550  -1.538  1.00  0.00    -0.041 SA
HETATM   11  N   UNL     1      42.145 -10.757   0.735  1.00  0.00    -0.357 N 
HETATM   12  O   UNL     1      41.153 -14.045   0.444  1.00  0.00    -0.316 OA
HETATM   13  C   UNL     1      42.476 -12.954   3.737  1.00  0.00     0.012 A 
HETATM   14  C   UNL     1      42.659 -14.194   4.351  1.00  0.00     0.003 A 
HETATM   15  C   UNL     1      42.268 -15.379   3.708  1.00  0.00     0.040 A 
HETATM   16  H   UNL     1      42.954 -10.219   1.000  1.00  0.00     0.162 HD
ENDROOT
BRANCH   5  17
HETATM   17  C   UNL     1      39.101 -10.879   1.123  1.00  0.00     0.233 C 
HETATM   18  N   UNL     1      37.913 -11.259   1.755  1.00  0.00    -0.326 N 
HETATM   19  H   UNL     1      37.957 -12.082   2.334  1.00  0.00     0.169 HD
HETATM   20  O   UNL     1      39.259  -9.888   0.426  1.00  0.00    -0.273 OA
BRANCH  18  21
HETATM   21  C   UNL     1      36.608 -10.837   1.450  1.00  0.00     0.040 A 
HETATM   22  C   UNL     1      36.058  -9.779   2.208  1.00  0.00    -0.035 A 
HETATM   23  C   UNL     1      36.743  -9.142   3.392  1.00  0.00     0.050 C 
HETATM   24  C   UNL     1      34.731  -9.391   1.968  1.00  0.00     0.015 A 
HETATM   25  C   UNL     1      33.962 -10.010   0.979  1.00  0.00    -0.061 A 
HETATM   26  C   UNL     1      32.551  -9.564   0.740  1.00  0.00     0.048 C 
HETATM   27  C   UNL     1      34.540 -11.017   0.202  1.00  0.00     0.009 A 
HETATM   28  C   UNL     1      35.849 -11.443   0.448  1.00  0.00     0.030 A 
ENDBRANCH  18  21
ENDBRANCH   5  17
BRANCH   8  29
HETATM   29  C   UNL     1      40.426 -11.906  -2.337  1.00  0.00     0.130 C 
BRANCH  29  30
HETATM   30  C   UNL     1      41.020 -12.652  -3.546  1.00  0.00     0.046 C 
BRANCH  30  31
HETATM   31  C   UNL     1      41.907 -13.818  -3.119  1.00  0.00     0.168 C 
BRANCH  31  32
HETATM   32  O   UNL     1      41.420 -15.004  -3.754  1.00  0.00    -0.396 OA
HETATM   33  C   UNL     1      40.679 -15.814  -2.852  1.00  0.00     0.201 C 
ENDBRANCH  31  32
ENDBRANCH  30  31
ENDBRANCH  29  30
ENDBRANCH   8  29
BRANCH   1  34
HETATM   34  O   UNL     1      41.220 -16.520   1.915  1.00  0.00    -0.349 OA
BRANCH  34  35
HETATM   35  C   UNL     1      42.200 -17.566   2.015  1.00  0.00     0.171 C 
HETATM   36  C   UNL     1      43.247 -17.450   0.917  1.00  0.00     0.034 C 
ENDBRANCH  34  35
ENDBRANCH   1  34
TORSDOF 8
ENDMDL
MODEL 8
REMARK VINA RESULT:      -6.4      2.604      5.491
REMARK  8 active torsions:
REMARK  status: ('A' for Active; 'I' for Inactive)
REMARK    1  A    between atoms: C_2  and  O_3 
REMARK    2  A    between atoms: O_3  and  C_4 
REMARK    3  A    between atoms: C_8  and  C_9 
REMARK       I    between atoms: C_9  and  N_10 
REMARK    4  A    between atoms: N_10  and  C_11 
REMARK    5  A    between atoms: N_22  and  C_23 
REMARK    6  A    between atoms: C_23  and  C_24 
REMARK    7  A    between atoms: C_24  and  C_25 
REMARK    8  A    between atoms: C_25  and  O_26 
ROOT
HETATM    1  C   UNL     1      40.410 -12.468  -1.386  1.00  0.00     0.102 A 
HETATM    2  C   UNL     1      40.439 -13.377  -0.334  1.00  0.00     0.113 A 
HETATM    3  C   UNL     1      39.229 -14.027   0.066  1.00  0.00     0.002 A 
HETATM    4  C   UNL     1      39.368 -14.826   1.349  1.00  0.00     0.138 C 
HETATM    5  C   UNL     1      40.064 -13.792   2.235  1.00  0.00     0.161 C 
HETATM    6  C   UNL     1      41.513 -13.980   1.811  1.00  0.00     0.155 C 
HETATM    7  C   UNL     1      42.459 -12.901   2.381  1.00  0.00     0.072 C 
HETATM    8  N   UNL     1      41.930 -15.424   2.139  1.00  0.00    -0.325 N 
HETATM    9  C   UNL     1      41.042 -16.500   1.886  1.00  0.00     0.172 C 
HETATM   10  S   UNL     1      41.398 -18.108   1.595  1.00  0.00    -0.041 SA
HETATM   11  N   UNL     1      39.695 -16.152   1.789  1.00  0.00    -0.357 N 
HETATM   12  O   UNL     1      41.622 -13.688   0.344  1.00  0.00    -0.316 OA
HETATM   13  C   UNL     1      38.044 -13.839  -0.635  1.00  0.00     0.012 A 
HETATM   14  C   UNL     1      38.056 -12.991  -1.742  1.00  0.00     0.003 A 
HETATM   15  C   UNL     1      39.226 -12.308  -2.112  1.00  0.00     0.040 A 
HETATM   16  H   UNL     1      39.094 -16.914   1.520  1.00  0.00     0.162 HD
ENDROOT
BRANCH   5  17
HETATM   17  C   UNL     1      39.864 -13.794   3.749  1.00  0.00     0.233 C 
HETATM   18  N   UNL     1      39.486 -12.510   4.153  1.00  0.00    -0.326 N 
HETATM   19  H   UNL     1      39.265 -11.857   3.418  1.00  0.00     0.169 HD
HETATM   20  O   UNL     1      40.121 -14.733   4.488  1.00  0.00    -0.273 OA
BRANCH  18  21
HETATM   21  C   UNL     1      39.673 -11.919   5.414  1.00  0.00     0.040 A 
HETATM   22  C   UNL     1      40.347 -10.679   5.472  1.00  0.00    -0.035 A 
HETATM   23  C   UNL     1      40.972  -9.999   4.279  1.00  0.00     0.050 C 
HETATM   24  C   UNL     1      40.606 -10.106   6.726  1.00  0.00     0.015 A 
HETATM   25  C   UNL     1      40.184 -10.724   7.906  1.00  0.00    -0.061 A 
HETATM   26  C   UNL     1      40.468 -10.080   9.230  1.00  0.00     0.048 C 
HETATM   27  C   UNL     1      39.471 -11.923   7.827  1.00  0.00     0.009 A 
HETATM   28  C   UNL     1      39.232 -12.528   6.590  1.00  0.00     0.030 A 
ENDBRANCH  18  21
ENDBRANCH   5  17
BRANCH   8  29
HETATM   29  C   UNL     1      43.166 -15.597   2.954  1.00  0.00     0.130 C 
BRANCH  29  30
HETATM   30  C   UNL     1      43.191 -16.516   4.188  1.00  0.00     0.046 C 
BRANCH  30  31
HETATM   31  C   UNL     1      43.399 -15.732   5.481  1.00  0.00     0.168 C 
BRANCH  31  32
HETATM   32  O   UNL     1      43.617 -14.360   5.139  1.00  0.00    -0.396 OA
HETATM   33  C   UNL     1      42.973 -13.484   6.055  1.00  0.00     0.201 C 
ENDBRANCH  31  32
ENDBRANCH  30  31
ENDBRANCH  29  30
ENDBRANCH   8  29
BRANCH   1  34
HETATM   34  O   UNL     1      41.477 -11.681  -1.716  1.00  0.00    -0.349 OA
BRANCH  34  35
HETATM   35  C   UNL     1      41.630 -10.598  -0.784  1.00  0.00     0.171 C 
HETATM   36  C   UNL     1      43.089 -10.194  -0.640  1.00  0.00     0.034 C 
ENDBRANCH  34  35
ENDBRANCH   1  34
TORSDOF 8
ENDMDL
MODEL 9
REMARK VINA RESULT:      -6.4      3.553      6.956
REMARK  8 active torsions:
REMARK  status: ('A' for Active; 'I' for Inactive)
REMARK    1  A    between atoms: C_2  and  O_3 
REMARK    2  A    between atoms: O_3  and  C_4 
REMARK    3  A    between atoms: C_8  and  C_9 
REMARK       I    between atoms: C_9  and  N_10 
REMARK    4  A    between atoms: N_10  and  C_11 
REMARK    5  A    between atoms: N_22  and  C_23 
REMARK    6  A    between atoms: C_23  and  C_24 
REMARK    7  A    between atoms: C_24  and  C_25 
REMARK    8  A    between atoms: C_25  and  O_26 
ROOT
HETATM    1  C   UNL     1      42.936 -11.562  -1.492  1.00  0.00     0.102 A 
HETATM    2  C   UNL     1      42.024 -12.358  -0.809  1.00  0.00     0.113 A 
HETATM    3  C   UNL     1      41.012 -13.055  -1.543  1.00  0.00     0.002 A 
HETATM    4  C   UNL     1      39.968 -13.712  -0.658  1.00  0.00     0.138 C 
HETATM    5  C   UNL     1      39.635 -12.546   0.275  1.00  0.00     0.161 C 
HETATM    6  C   UNL     1      40.759 -12.666   1.294  1.00  0.00     0.155 C 
HETATM    7  C   UNL     1      40.829 -11.469   2.267  1.00  0.00     0.072 C 
HETATM    8  N   UNL     1      40.642 -14.035   1.985  1.00  0.00    -0.325 N 
HETATM    9  C   UNL     1      40.335 -15.194   1.228  1.00  0.00     0.172 C 
HETATM   10  S   UNL     1      40.701 -16.792   1.561  1.00  0.00    -0.041 SA
HETATM   11  N   UNL     1      39.713 -14.960   0.002  1.00  0.00    -0.357 N 
HETATM   12  O   UNL     1      42.069 -12.511   0.580  1.00  0.00    -0.316 OA
HETATM   13  C   UNL     1      40.979 -13.026  -2.932  1.00  0.00     0.012 A 
HETATM   14  C   UNL     1      41.958 -12.291  -3.603  1.00  0.00     0.003 A 
HETATM   15  C   UNL     1      42.924 -11.563  -2.890  1.00  0.00     0.040 A 
HETATM   16  H   UNL     1      39.587 -15.787  -0.558  1.00  0.00     0.162 HD
ENDROOT
BRANCH   5  17
HETATM   17  C   UNL     1      38.250 -12.415   0.903  1.00  0.00     0.233 C 
HETATM   18  N   UNL     1      37.825 -11.089   0.778  1.00  0.00    -0.326 N 
HETATM   19  H   UNL     1      38.388 -10.492   0.194  1.00  0.00     0.169 HD
HETATM   20  O   UNL     1      37.676 -13.298   1.524  1.00  0.00    -0.273 OA
BRANCH  18  21
HETATM   21  C   UNL     1      36.910 -10.402   1.594  1.00  0.00     0.040 A 
HETATM   22  C   UNL     1      35.549 -10.411   1.217  1.00  0.00    -0.035 A 
HETATM   23  C   UNL     1      35.028 -11.024  -0.060  1.00  0.00     0.050 C 
HETATM   24  C   UNL     1      34.630  -9.671   1.977  1.00  0.00     0.015 A 
HETATM   25  C   UNL     1      35.033  -8.957   3.108  1.00  0.00    -0.061 A 
HETATM   26  C   UNL     1      34.024  -8.186   3.906  1.00  0.00     0.048 C 
HETATM   27  C   UNL     1      36.374  -9.004   3.497  1.00  0.00     0.009 A 
HETATM   28  C   UNL     1      37.312  -9.706   2.734  1.00  0.00     0.030 A 
ENDBRANCH  18  21
ENDBRANCH   5  17
BRANCH   8  29
HETATM   29  C   UNL     1      40.606 -14.035   3.474  1.00  0.00     0.130 C 
BRANCH  29  30
HETATM   30  C   UNL     1      41.819 -14.488   4.307  1.00  0.00     0.046 C 
BRANCH  30  31
HETATM   31  C   UNL     1      43.127 -14.349   3.534  1.00  0.00     0.168 C 
BRANCH  31  32
HETATM   32  O   UNL     1      44.039 -13.593   4.336  1.00  0.00    -0.396 OA
HETATM   33  C   UNL     1      44.055 -14.049   5.682  1.00  0.00     0.201 C 
ENDBRANCH  31  32
ENDBRANCH  30  31
ENDBRANCH  29  30
ENDBRANCH   8  29
BRANCH   1  34
HETATM   34  O   UNL     1      43.818 -10.733  -0.858  1.00  0.00    -0.349 OA
BRANCH  34  35
HETATM   35  C   UNL     1      43.246  -9.431  -0.649  1.00  0.00     0.171 C 
HETATM   36  C   UNL     1      44.166  -8.335  -1.165  1.00  0.00     0.034 C 
ENDBRANCH  34  35
ENDBRANCH   1  34
TORSDOF 8
ENDMDL
MODEL 10
REMARK VINA RESULT:      -6.3      2.603      5.849
REMARK  8 active torsions:
REMARK  status: ('A' for Active; 'I' for Inactive)
REMARK    1  A    between atoms: C_2  and  O_3 
REMARK    2  A    between atoms: O_3  and  C_4 
REMARK    3  A    between atoms: C_8  and  C_9 
REMARK       I    between atoms: C_9  and  N_10 
REMARK    4  A    between atoms: N_10  and  C_11 
REMARK    5  A    between atoms: N_22  and  C_23 
REMARK    6  A    between atoms: C_23  and  C_24 
REMARK    7  A    between atoms: C_24  and  C_25 
REMARK    8  A    between atoms: C_25  and  O_26 
ROOT
HETATM    1  C   UNL     1      40.173  -9.381   2.824  1.00  0.00     0.102 A 
HETATM    2  C   UNL     1      39.850 -10.589   2.218  1.00  0.00     0.113 A 
HETATM    3  C   UNL     1      38.594 -11.209   2.513  1.00  0.00     0.002 A 
HETATM    4  C   UNL     1      38.466 -12.612   1.949  1.00  0.00     0.138 C 
HETATM    5  C   UNL     1      39.794 -13.211   2.414  1.00  0.00     0.161 C 
HETATM    6  C   UNL     1      40.729 -12.719   1.317  1.00  0.00     0.155 C 
HETATM    7  C   UNL     1      42.219 -12.980   1.626  1.00  0.00     0.072 C 
HETATM    8  N   UNL     1      40.249 -13.299  -0.024  1.00  0.00    -0.325 N 
HETATM    9  C   UNL     1      38.866 -13.342  -0.331  1.00  0.00     0.172 C 
HETATM   10  S   UNL     1      38.124 -13.357  -1.830  1.00  0.00    -0.041 SA
HETATM   11  N   UNL     1      38.008 -13.285   0.767  1.00  0.00    -0.357 N 
HETATM   12  O   UNL     1      40.712 -11.220   1.315  1.00  0.00    -0.316 OA
HETATM   13  C   UNL     1      37.652 -10.582   3.320  1.00  0.00     0.012 A 
HETATM   14  C   UNL     1      37.962  -9.328   3.848  1.00  0.00     0.003 A 
HETATM   15  C   UNL     1      39.211  -8.735   3.606  1.00  0.00     0.040 A 
HETATM   16  H   UNL     1      37.033 -13.225   0.522  1.00  0.00     0.162 HD
ENDROOT
BRANCH   5  17
HETATM   17  C   UNL     1      39.923 -14.705   2.703  1.00  0.00     0.233 C 
HETATM   18  N   UNL     1      40.933 -14.892   3.650  1.00  0.00    -0.326 N 
HETATM   19  H   UNL     1      41.295 -14.060   4.089  1.00  0.00     0.169 HD
HETATM   20  O   UNL     1      39.327 -15.588   2.104  1.00  0.00    -0.273 OA
BRANCH  18  21
HETATM   21  C   UNL     1      41.722 -16.038   3.847  1.00  0.00     0.040 A 
HETATM   22  C   UNL     1      41.525 -16.784   5.030  1.00  0.00    -0.035 A 
HETATM   23  C   UNL     1      40.594 -16.373   6.144  1.00  0.00     0.050 C 
HETATM   24  C   UNL     1      42.352 -17.891   5.280  1.00  0.00     0.015 A 
HETATM   25  C   UNL     1      43.338 -18.279   4.369  1.00  0.00    -0.061 A 
HETATM   26  C   UNL     1      44.197 -19.472   4.661  1.00  0.00     0.048 C 
HETATM   27  C   UNL     1      43.482 -17.561   3.179  1.00  0.00     0.009 A 
HETATM   28  C   UNL     1      42.693 -16.435   2.927  1.00  0.00     0.030 A 
ENDBRANCH  18  21
ENDBRANCH   5  17
BRANCH   8  29
HETATM   29  C   UNL     1      41.261 -14.030  -0.838  1.00  0.00     0.130 C 
BRANCH  29  30
HETATM   30  C   UNL     1      42.035 -13.333  -1.971  1.00  0.00     0.046 C 
BRANCH  30  31
HETATM   31  C   UNL     1      41.498 -13.710  -3.349  1.00  0.00     0.168 C 
BRANCH  31  32
HETATM   32  O   UNL     1      41.179 -12.503  -4.048  1.00  0.00    -0.396 OA
HETATM   33  C   UNL     1      41.342 -11.360  -3.219  1.00  0.00     0.201 C 
ENDBRANCH  31  32
ENDBRANCH  30  31
ENDBRANCH  29  30
ENDBRANCH   8  29
BRANCH   1  34
HETATM   34  O   UNL     1      41.413  -8.813   2.732  1.00  0.00    -0.349 OA
BRANCH  34  35
HETATM   35  C   UNL     1      41.391  -7.659   1.876  1.00  0.00     0.171 C 
HETATM   36  C   UNL     1      42.530  -7.697   0.869  1.00  0.00     0.034 C 
ENDBRANCH  34  35
ENDBRANCH   1  34
TORSDOF 8
ENDMDL
