MODEL 1
REMARK VINA RESULT:      -7.7      0.000      0.000
REMARK  5 active torsions:
REMARK  status: ('A' for Active; 'I' for Inactive)
REMARK    1  A    between atoms: C_6  and  N_7 
REMARK       I    between atoms: N_7  and  C_8 
REMARK    2  A    between atoms: C_8  and  C_9 
REMARK    3  A    between atoms: C_9  and  O_10 
REMARK    4  A    between atoms: O_10  and  C_11 
REMARK    5  A    between atoms: C_19  and  C_20 
ROOT
HETATM    1  C   UNL     1      39.727 -13.832   5.422  1.00  0.00     0.073 C 
HETATM    2  C   UNL     1      40.626 -14.158   4.286  1.00  0.00     0.065 A 
HETATM    3  N   UNL     1      40.352 -13.693   3.061  1.00  0.00    -0.177 NA
HETATM    4  N   UNL     1      41.336 -14.194   2.297  1.00  0.00    -0.262 N 
HETATM    5  H   UNL     1      41.348 -13.947   1.311  1.00  0.00     0.191 HD
HETATM    6  C   UNL     1      42.247 -14.953   2.982  1.00  0.00     0.137 A 
HETATM    7  C   UNL     1      41.805 -14.952   4.293  1.00  0.00     0.046 A 
ENDROOT
BRANCH   6   8
HETATM    8  N   UNL     1      43.392 -15.510   2.449  1.00  0.00    -0.309 N 
HETATM    9  C   UNL     1      43.557 -16.739   1.867  1.00  0.00     0.247 C 
HETATM   10  O   UNL     1      44.573 -16.945   1.198  1.00  0.00    -0.271 OA
HETATM   11  H   UNL     1      44.230 -14.939   2.445  1.00  0.00     0.170 HD
BRANCH   9  12
HETATM   12  C   UNL     1      42.600 -17.880   2.212  1.00  0.00     0.278 C 
BRANCH  12  13
HETATM   13  O   UNL     1      43.037 -19.159   1.786  1.00  0.00    -0.342 OA
BRANCH  13  14
HETATM   14  C   UNL     1      43.663 -19.923   2.742  1.00  0.00     0.069 A 
HETATM   15  C   UNL     1      43.968 -21.229   2.345  1.00  0.00     0.040 A 
HETATM   16  C   UNL     1      44.591 -22.111   3.232  1.00  0.00     0.045 A 
HETATM   17  C   UNL     1      44.912 -21.682   4.512  1.00  0.00     0.116 A 
HETATM   18  F   UNL     1      45.511 -22.524   5.364  1.00  0.00    -0.206 F 
HETATM   19  C   UNL     1      44.621 -20.388   4.921  1.00  0.00     0.045 A 
HETATM   20  C   UNL     1      43.996 -19.504   4.036  1.00  0.00     0.040 A 
ENDBRANCH  13  14
ENDBRANCH  12  13
ENDBRANCH   9  12
ENDBRANCH   6   8
BRANCH   7  21
HETATM   21  C   UNL     1      42.374 -15.770   5.345  1.00  0.00    -0.020 A 
HETATM   22  C   UNL     1      43.590 -15.433   5.950  1.00  0.00     0.014 A 
HETATM   23  C   UNL     1      44.145 -16.276   6.917  1.00  0.00     0.020 A 
HETATM   24  C   UNL     1      43.482 -17.447   7.282  1.00  0.00     0.011 A 
HETATM   25 BR   UNL     1      44.245 -18.598   8.574  1.00  0.00    -0.051 Br
HETATM   26  C   UNL     1      42.264 -17.782   6.697  1.00  0.00     0.020 A 
HETATM   27  C   UNL     1      41.710 -16.943   5.729  1.00  0.00     0.014 A 
ENDBRANCH   7  21
TORSDOF 5
ENDMDL
MODEL 2
REMARK VINA RESULT:      -7.5      2.837      4.160
REMARK  5 active torsions:
REMARK  status: ('A' for Active; 'I' for Inactive)
REMARK    1  A    between atoms: C_6  and  N_7 
REMARK       I    between atoms: N_7  and  C_8 
REMARK    2  A    between atoms: C_8  and  C_9 
REMARK    3  A    between atoms: C_9  and  O_10 
REMARK    4  A    between atoms: O_10  and  C_11 
REMARK    5  A    between atoms: C_19  and  C_20 
ROOT
HETATM    1  C   UNL     1      41.731 -14.017  -0.497  1.00  0.00     0.073 C 
HETATM    2  C   UNL     1      41.404 -15.182   0.362  1.00  0.00     0.065 A 
HETATM    3  N   UNL     1      41.308 -16.404  -0.176  1.00  0.00    -0.177 NA
HETATM    4  N   UNL     1      40.981 -17.190   0.862  1.00  0.00    -0.262 N 
HETATM    5  H   UNL     1      40.878 -18.187   0.693  1.00  0.00     0.191 HD
HETATM    6  C   UNL     1      40.876 -16.528   2.057  1.00  0.00     0.137 A 
HETATM    7  C   UNL     1      41.145 -15.204   1.760  1.00  0.00     0.046 A 
ENDROOT
BRANCH   6   8
HETATM    8  N   UNL     1      40.635 -17.115   3.283  1.00  0.00    -0.309 N 
HETATM    9  C   UNL     1      41.505 -17.320   4.320  1.00  0.00     0.247 C 
HETATM   10  O   UNL     1      41.045 -17.594   5.433  1.00  0.00    -0.271 OA
HETATM   11  H   UNL     1      39.685 -17.411   3.480  1.00  0.00     0.170 HD
BRANCH   9  12
HETATM   12  C   UNL     1      43.007 -17.404   4.050  1.00  0.00     0.278 C 
BRANCH  12  13
HETATM   13  O   UNL     1      43.345 -17.986   2.802  1.00  0.00    -0.342 OA
BRANCH  13  14
HETATM   14  C   UNL     1      43.676 -19.320   2.839  1.00  0.00     0.069 A 
HETATM   15  C   UNL     1      44.389 -19.718   3.975  1.00  0.00     0.040 A 
HETATM   16  C   UNL     1      44.799 -21.045   4.124  1.00  0.00     0.045 A 
HETATM   17  C   UNL     1      44.490 -21.972   3.139  1.00  0.00     0.116 A 
HETATM   18  F   UNL     1      44.880 -23.246   3.279  1.00  0.00    -0.206 F 
HETATM   19  C   UNL     1      43.779 -21.595   2.007  1.00  0.00     0.045 A 
HETATM   20  C   UNL     1      43.369 -20.267   1.855  1.00  0.00     0.040 A 
ENDBRANCH  13  14
ENDBRANCH  12  13
ENDBRANCH   9  12
ENDBRANCH   6   8
BRANCH   7  21
HETATM   21  C   UNL     1      40.985 -14.110   2.696  1.00  0.00    -0.020 A 
HETATM   22  C   UNL     1      42.063 -13.636   3.451  1.00  0.00     0.014 A 
HETATM   23  C   UNL     1      41.863 -12.623   4.394  1.00  0.00     0.020 A 
HETATM   24  C   UNL     1      40.591 -12.082   4.574  1.00  0.00     0.011 A 
HETATM   25 BR   UNL     1      40.318 -10.727   5.865  1.00  0.00    -0.051 Br
HETATM   26  C   UNL     1      39.515 -12.537   3.816  1.00  0.00     0.020 A 
HETATM   27  C   UNL     1      39.713 -13.551   2.877  1.00  0.00     0.014 A 
ENDBRANCH   7  21
TORSDOF 5
ENDMDL
MODEL 3
REMARK VINA RESULT:      -7.5      3.390      5.035
REMARK  5 active torsions:
REMARK  status: ('A' for Active; 'I' for Inactive)
REMARK    1  A    between atoms: C_6  and  N_7 
REMARK       I    between atoms: N_7  and  C_8 
REMARK    2  A    between atoms: C_8  and  C_9 
REMARK    3  A    between atoms: C_9  and  O_10 
REMARK    4  A    between atoms: O_10  and  C_11 
REMARK    5  A    between atoms: C_19  and  C_20 
ROOT
HETATM    1  C   UNL     1      39.284 -10.677   4.321  1.00  0.00     0.073 C 
HETATM    2  C   UNL     1      39.422 -11.942   5.084  1.00  0.00     0.065 A 
HETATM    3  N   UNL     1      39.287 -11.939   6.416  1.00  0.00    -0.177 NA
HETATM    4  N   UNL     1      39.496 -13.218   6.766  1.00  0.00    -0.262 N 
HETATM    5  H   UNL     1      39.417 -13.463   7.749  1.00  0.00     0.191 HD
HETATM    6  C   UNL     1      39.745 -14.055   5.711  1.00  0.00     0.137 A 
HETATM    7  C   UNL     1      39.707 -13.245   4.590  1.00  0.00     0.046 A 
ENDROOT
BRANCH   6   8
HETATM    8  N   UNL     1      39.909 -15.423   5.791  1.00  0.00    -0.309 N 
HETATM    9  C   UNL     1      41.036 -16.134   6.107  1.00  0.00     0.247 C 
HETATM   10  O   UNL     1      40.919 -17.326   6.408  1.00  0.00    -0.271 OA
HETATM   11  H   UNL     1      39.091 -16.001   5.633  1.00  0.00     0.170 HD
BRANCH   9  12
HETATM   12  C   UNL     1      42.415 -15.510   5.895  1.00  0.00     0.278 C 
BRANCH  12  13
HETATM   13  O   UNL     1      42.848 -15.494   4.545  1.00  0.00    -0.342 OA
BRANCH  13  14
HETATM   14  C   UNL     1      43.005 -16.726   3.956  1.00  0.00     0.069 A 
HETATM   15  C   UNL     1      42.263 -16.917   2.786  1.00  0.00     0.040 A 
HETATM   16  C   UNL     1      42.323 -18.133   2.100  1.00  0.00     0.045 A 
HETATM   17  C   UNL     1      43.130 -19.153   2.586  1.00  0.00     0.116 A 
HETATM   18  F   UNL     1      43.191 -20.320   1.930  1.00  0.00    -0.206 F 
HETATM   19  C   UNL     1      43.876 -18.979   3.743  1.00  0.00     0.045 A 
HETATM   20  C   UNL     1      43.816 -17.763   4.431  1.00  0.00     0.040 A 
ENDBRANCH  13  14
ENDBRANCH  12  13
ENDBRANCH   9  12
ENDBRANCH   6   8
BRANCH   7  21
HETATM   21  C   UNL     1      40.080 -13.677   3.259  1.00  0.00    -0.020 A 
HETATM   22  C   UNL     1      41.269 -13.243   2.660  1.00  0.00     0.014 A 
HETATM   23  C   UNL     1      41.570 -13.625   1.350  1.00  0.00     0.020 A 
HETATM   24  C   UNL     1      40.689 -14.444   0.644  1.00  0.00     0.011 A 
HETATM   25 BR   UNL     1      41.087 -14.942  -1.136  1.00  0.00    -0.051 Br
HETATM   26  C   UNL     1      39.511 -14.893   1.237  1.00  0.00     0.020 A 
HETATM   27  C   UNL     1      39.208 -14.509   2.545  1.00  0.00     0.014 A 
ENDBRANCH   7  21
TORSDOF 5
ENDMDL
MODEL 4
REMARK VINA RESULT:      -7.3      3.192      4.313
REMARK  5 active torsions:
REMARK  status: ('A' for Active; 'I' for Inactive)
REMARK    1  A    between atoms: C_6  and  N_7 
REMARK       I    between atoms: N_7  and  C_8 
REMARK    2  A    between atoms: C_8  and  C_9 
REMARK    3  A    between atoms: C_9  and  O_10 
REMARK    4  A    between atoms: O_10  and  C_11 
REMARK    5  A    between atoms: C_19  and  C_20 
ROOT
HETATM    1  C   UNL     1      40.358 -14.834   2.248  1.00  0.00     0.073 C 
HETATM    2  C   UNL     1      40.716 -15.755   3.356  1.00  0.00     0.065 A 
HETATM    3  N   UNL     1      40.760 -17.076   3.140  1.00  0.00    -0.177 NA
HETATM    4  N   UNL     1      41.083 -17.589   4.338  1.00  0.00    -0.262 N 
HETATM    5  H   UNL     1      41.200 -18.596   4.410  1.00  0.00     0.191 HD
HETATM    6  C   UNL     1      41.267 -16.651   5.319  1.00  0.00     0.137 A 
HETATM    7  C   UNL     1      41.028 -15.435   4.705  1.00  0.00     0.046 A 
ENDROOT
BRANCH   6   8
HETATM    8  N   UNL     1      41.683 -16.908   6.610  1.00  0.00    -0.309 N 
HETATM    9  C   UNL     1      42.958 -17.077   7.082  1.00  0.00     0.247 C 
HETATM   10  O   UNL     1      43.151 -17.013   8.299  1.00  0.00    -0.271 OA
HETATM   11  H   UNL     1      40.971 -16.949   7.330  1.00  0.00     0.170 HD
BRANCH   9  12
HETATM   12  C   UNL     1      44.067 -17.532   6.134  1.00  0.00     0.278 C 
BRANCH  12  13
HETATM   13  O   UNL     1      44.361 -18.918   6.200  1.00  0.00    -0.342 OA
BRANCH  13  14
HETATM   14  C   UNL     1      44.380 -19.580   4.996  1.00  0.00     0.069 A 
HETATM   15  C   UNL     1      44.683 -20.943   5.078  1.00  0.00     0.040 A 
HETATM   16  C   UNL     1      44.749 -21.725   3.923  1.00  0.00     0.045 A 
HETATM   17  C   UNL     1      44.506 -21.142   2.687  1.00  0.00     0.116 A 
HETATM   18  F   UNL     1      44.566 -21.889   1.577  1.00  0.00    -0.206 F 
HETATM   19  C   UNL     1      44.199 -19.792   2.587  1.00  0.00     0.045 A 
HETATM   20  C   UNL     1      44.134 -19.007   3.742  1.00  0.00     0.040 A 
ENDBRANCH  13  14
ENDBRANCH  12  13
ENDBRANCH   9  12
ENDBRANCH   6   8
BRANCH   7  21
HETATM   21  C   UNL     1      40.947 -14.169   5.406  1.00  0.00    -0.020 A 
HETATM   22  C   UNL     1      39.719 -13.658   5.841  1.00  0.00     0.014 A 
HETATM   23  C   UNL     1      39.665 -12.404   6.458  1.00  0.00     0.020 A 
HETATM   24  C   UNL     1      40.835 -11.669   6.643  1.00  0.00     0.011 A 
HETATM   25 BR   UNL     1      40.757  -9.964   7.457  1.00  0.00    -0.051 Br
HETATM   26  C   UNL     1      42.063 -12.177   6.227  1.00  0.00     0.020 A 
HETATM   27  C   UNL     1      42.118 -13.428   5.609  1.00  0.00     0.014 A 
ENDBRANCH   7  21
TORSDOF 5
ENDMDL
MODEL 5
REMARK VINA RESULT:      -7.3      2.793      4.107
REMARK  5 active torsions:
REMARK  status: ('A' for Active; 'I' for Inactive)
REMARK    1  A    between atoms: C_6  and  N_7 
REMARK       I    between atoms: N_7  and  C_8 
REMARK    2  A    between atoms: C_8  and  C_9 
REMARK    3  A    between atoms: C_9  and  O_10 
REMARK    4  A    between atoms: O_10  and  C_11 
REMARK    5  A    between atoms: C_19  and  C_20 
ROOT
HETATM    1  C   UNL     1      39.151 -15.764   1.917  1.00  0.00     0.073 C 
HETATM    2  C   UNL     1      40.170 -14.781   2.362  1.00  0.00     0.065 A 
HETATM    3  N   UNL     1      39.879 -13.474   2.372  1.00  0.00    -0.177 NA
HETATM    4  N   UNL     1      41.013 -12.892   2.794  1.00  0.00    -0.262 N 
HETATM    5  H   UNL     1      41.019 -11.883   2.906  1.00  0.00     0.191 HD
HETATM    6  C   UNL     1      42.024 -13.773   3.075  1.00  0.00     0.137 A 
HETATM    7  C   UNL     1      41.502 -15.023   2.796  1.00  0.00     0.046 A 
ENDROOT
BRANCH   6   8
HETATM    8  N   UNL     1      43.256 -13.441   3.601  1.00  0.00    -0.309 N 
HETATM    9  C   UNL     1      43.831 -13.864   4.770  1.00  0.00     0.247 C 
HETATM   10  O   UNL     1      45.042 -13.690   4.930  1.00  0.00    -0.271 OA
HETATM   11  H   UNL     1      43.850 -12.830   3.050  1.00  0.00     0.170 HD
BRANCH   9  12
HETATM   12  C   UNL     1      42.950 -14.356   5.918  1.00  0.00     0.278 C 
BRANCH  12  13
HETATM   13  O   UNL     1      43.664 -14.939   6.995  1.00  0.00    -0.342 OA
BRANCH  13  14
HETATM   14  C   UNL     1      43.871 -16.294   6.906  1.00  0.00     0.069 A 
HETATM   15  C   UNL     1      42.839 -17.083   7.427  1.00  0.00     0.040 A 
HETATM   16  C   UNL     1      42.936 -18.476   7.411  1.00  0.00     0.045 A 
HETATM   17  C   UNL     1      44.063 -19.078   6.869  1.00  0.00     0.116 A 
HETATM   18  F   UNL     1      44.158 -20.414   6.851  1.00  0.00    -0.206 F 
HETATM   19  C   UNL     1      45.094 -18.311   6.344  1.00  0.00     0.045 A 
HETATM   20  C   UNL     1      45.000 -16.916   6.361  1.00  0.00     0.040 A 
ENDBRANCH  13  14
ENDBRANCH  12  13
ENDBRANCH   9  12
ENDBRANCH   6   8
BRANCH   7  21
HETATM   21  C   UNL     1      42.276 -16.247   2.790  1.00  0.00    -0.020 A 
HETATM   22  C   UNL     1      43.271 -16.474   1.832  1.00  0.00     0.014 A 
HETATM   23  C   UNL     1      43.957 -17.692   1.813  1.00  0.00     0.020 A 
HETATM   24  C   UNL     1      43.652 -18.676   2.752  1.00  0.00     0.011 A 
HETATM   25 BR   UNL     1      44.565 -20.332   2.711  1.00  0.00    -0.051 Br
HETATM   26  C   UNL     1      42.675 -18.454   3.719  1.00  0.00     0.020 A 
HETATM   27  C   UNL     1      41.988 -17.239   3.737  1.00  0.00     0.014 A 
ENDBRANCH   7  21
TORSDOF 5
ENDMDL
MODEL 6
REMARK VINA RESULT:      -7.1      2.711      4.532
REMARK  5 active torsions:
REMARK  status: ('A' for Active; 'I' for Inactive)
REMARK    1  A    between atoms: C_6  and  N_7 
REMARK       I    between atoms: N_7  and  C_8 
REMARK    2  A    between atoms: C_8  and  C_9 
REMARK    3  A    between atoms: C_9  and  O_10 
REMARK    4  A    between atoms: O_10  and  C_11 
REMARK    5  A    between atoms: C_19  and  C_20 
ROOT
HETATM    1  C   UNL     1      41.680 -14.572  -1.134  1.00  0.00     0.073 C 
HETATM    2  C   UNL     1      41.034 -14.431   0.195  1.00  0.00     0.065 A 
HETATM    3  N   UNL     1      40.317 -13.336   0.478  1.00  0.00    -0.177 NA
HETATM    4  N   UNL     1      39.913 -13.531   1.743  1.00  0.00    -0.262 N 
HETATM    5  H   UNL     1      39.320 -12.824   2.169  1.00  0.00     0.191 HD
HETATM    6  C   UNL     1      40.326 -14.718   2.287  1.00  0.00     0.137 A 
HETATM    7  C   UNL     1      41.069 -15.331   1.294  1.00  0.00     0.046 A 
ENDROOT
BRANCH   6   8
HETATM    8  N   UNL     1      39.978 -15.194   3.535  1.00  0.00    -0.309 N 
HETATM    9  C   UNL     1      40.670 -15.096   4.713  1.00  0.00     0.247 C 
HETATM   10  O   UNL     1      40.075 -15.326   5.770  1.00  0.00    -0.271 OA
HETATM   11  H   UNL     1      39.079 -15.653   3.626  1.00  0.00     0.170 HD
BRANCH   9  12
HETATM   12  C   UNL     1      42.186 -14.901   4.693  1.00  0.00     0.278 C 
BRANCH  12  13
HETATM   13  O   UNL     1      42.836 -15.244   5.906  1.00  0.00    -0.342 OA
BRANCH  13  14
HETATM   14  C   UNL     1      43.388 -16.502   5.949  1.00  0.00     0.069 A 
HETATM   15  C   UNL     1      42.572 -17.520   5.445  1.00  0.00     0.040 A 
HETATM   16  C   UNL     1      43.012 -18.847   5.448  1.00  0.00     0.045 A 
HETATM   17  C   UNL     1      44.270 -19.149   5.949  1.00  0.00     0.116 A 
HETATM   18  F   UNL     1      44.696 -20.419   5.952  1.00  0.00    -0.206 F 
HETATM   19  C   UNL     1      45.095 -18.150   6.448  1.00  0.00     0.045 A 
HETATM   20  C   UNL     1      44.656 -16.823   6.448  1.00  0.00     0.040 A 
ENDBRANCH  13  14
ENDBRANCH  12  13
ENDBRANCH   9  12
ENDBRANCH   6   8
BRANCH   7  21
HETATM   21  C   UNL     1      41.844 -16.540   1.485  1.00  0.00    -0.020 A 
HETATM   22  C   UNL     1      41.235 -17.801   1.487  1.00  0.00     0.014 A 
HETATM   23  C   UNL     1      41.999 -18.944   1.738  1.00  0.00     0.020 A 
HETATM   24  C   UNL     1      43.367 -18.827   1.981  1.00  0.00     0.011 A 
HETATM   25 BR   UNL     1      44.395 -20.372   2.342  1.00  0.00    -0.051 Br
HETATM   26  C   UNL     1      43.984 -17.579   1.965  1.00  0.00     0.020 A 
HETATM   27  C   UNL     1      43.222 -16.436   1.717  1.00  0.00     0.014 A 
ENDBRANCH   7  21
TORSDOF 5
ENDMDL
MODEL 7
REMARK VINA RESULT:      -7.0      3.184      4.458
REMARK  5 active torsions:
REMARK  status: ('A' for Active; 'I' for Inactive)
REMARK    1  A    between atoms: C_6  and  N_7 
REMARK       I    between atoms: N_7  and  C_8 
REMARK    2  A    between atoms: C_8  and  C_9 
REMARK    3  A    between atoms: C_9  and  O_10 
REMARK    4  A    between atoms: O_10  and  C_11 
REMARK    5  A    between atoms: C_19  and  C_20 
ROOT
HETATM    1  C   UNL     1      39.774 -11.401   2.905  1.00  0.00     0.073 C 
HETATM    2  C   UNL     1      39.801 -12.786   3.437  1.00  0.00     0.065 A 
HETATM    3  N   UNL     1      39.496 -13.816   2.637  1.00  0.00    -0.177 NA
HETATM    4  N   UNL     1      39.595 -14.889   3.437  1.00  0.00    -0.262 N 
HETATM    5  H   UNL     1      39.429 -15.805   3.031  1.00  0.00     0.191 HD
HETATM    6  C   UNL     1      39.968 -14.597   4.722  1.00  0.00     0.137 A 
HETATM    7  C   UNL     1      40.108 -13.221   4.755  1.00  0.00     0.046 A 
ENDROOT
BRANCH   6   8
HETATM    8  N   UNL     1      40.221 -15.522   5.716  1.00  0.00    -0.309 N 
HETATM    9  C   UNL     1      41.330 -16.305   5.896  1.00  0.00     0.247 C 
HETATM   10  O   UNL     1      41.495 -16.854   6.989  1.00  0.00    -0.271 OA
HETATM   11  H   UNL     1      39.521 -15.630   6.442  1.00  0.00     0.170 HD
BRANCH   9  12
HETATM   12  C   UNL     1      42.225 -16.644   4.704  1.00  0.00     0.278 C 
BRANCH  12  13
HETATM   13  O   UNL     1      43.374 -17.406   5.034  1.00  0.00    -0.342 OA
BRANCH  13  14
HETATM   14  C   UNL     1      43.642 -18.467   4.203  1.00  0.00     0.069 A 
HETATM   15  C   UNL     1      42.968 -18.440   2.977  1.00  0.00     0.040 A 
HETATM   16  C   UNL     1      43.142 -19.470   2.050  1.00  0.00     0.045 A 
HETATM   17  C   UNL     1      43.996 -20.523   2.349  1.00  0.00     0.116 A 
HETATM   18  F   UNL     1      44.167 -21.511   1.462  1.00  0.00    -0.206 F 
HETATM   19  C   UNL     1      44.677 -20.563   3.558  1.00  0.00     0.045 A 
HETATM   20  C   UNL     1      44.502 -19.534   4.488  1.00  0.00     0.040 A 
ENDBRANCH  13  14
ENDBRANCH  12  13
ENDBRANCH   9  12
ENDBRANCH   6   8
BRANCH   7  21
HETATM   21  C   UNL     1      40.332 -12.453   5.962  1.00  0.00    -0.020 A 
HETATM   22  C   UNL     1      39.312 -12.260   6.901  1.00  0.00     0.014 A 
HETATM   23  C   UNL     1      39.539 -11.460   8.025  1.00  0.00     0.020 A 
HETATM   24  C   UNL     1      40.784 -10.860   8.210  1.00  0.00     0.011 A 
HETATM   25 BR   UNL     1      41.084  -9.760   9.719  1.00  0.00    -0.051 Br
HETATM   26  C   UNL     1      41.810 -11.058   7.289  1.00  0.00     0.020 A 
HETATM   27  C   UNL     1      41.583 -11.855   6.165  1.00  0.00     0.014 A 
ENDBRANCH   7  21
TORSDOF 5
ENDMDL
MODEL 8
REMARK VINA RESULT:      -7.0      3.181      4.544
REMARK  5 active torsions:
REMARK  status: ('A' for Active; 'I' for Inactive)
REMARK    1  A    between atoms: C_6  and  N_7 
REMARK       I    between atoms: N_7  and  C_8 
REMARK    2  A    between atoms: C_8  and  C_9 
REMARK    3  A    between atoms: C_9  and  O_10 
REMARK    4  A    between atoms: O_10  and  C_11 
REMARK    5  A    between atoms: C_19  and  C_20 
ROOT
HETATM    1  C   UNL     1      42.656 -11.323  -0.865  1.00  0.00     0.073 C 
HETATM    2  C   UNL     1      42.184 -12.725  -0.979  1.00  0.00     0.065 A 
HETATM    3  N   UNL     1      42.296 -13.376  -2.144  1.00  0.00    -0.177 NA
HETATM    4  N   UNL     1      41.758 -14.580  -1.895  1.00  0.00    -0.262 N 
HETATM    5  H   UNL     1      41.757 -15.267  -2.644  1.00  0.00     0.191 HD
HETATM    6  C   UNL     1      41.315 -14.742  -0.609  1.00  0.00     0.137 A 
HETATM    7  C   UNL     1      41.577 -13.537   0.017  1.00  0.00     0.046 A 
ENDROOT
BRANCH   6   8
HETATM    8  N   UNL     1      40.800 -15.907  -0.077  1.00  0.00    -0.309 N 
HETATM    9  C   UNL     1      41.356 -16.742   0.855  1.00  0.00     0.247 C 
HETATM   10  O   UNL     1      40.632 -17.570   1.415  1.00  0.00    -0.271 OA
HETATM   11  H   UNL     1      39.871 -16.185  -0.374  1.00  0.00     0.170 HD
BRANCH   9  12
HETATM   12  C   UNL     1      42.873 -16.774   1.041  1.00  0.00     0.278 C 
BRANCH  12  13
HETATM   13  O   UNL     1      43.300 -16.636   2.386  1.00  0.00    -0.342 OA
BRANCH  13  14
HETATM   14  C   UNL     1      43.736 -17.790   2.993  1.00  0.00     0.069 A 
HETATM   15  C   UNL     1      43.998 -18.851   2.120  1.00  0.00     0.040 A 
HETATM   16  C   UNL     1      44.431 -20.084   2.614  1.00  0.00     0.045 A 
HETATM   17  C   UNL     1      44.607 -20.250   3.981  1.00  0.00     0.116 A 
HETATM   18  F   UNL     1      45.023 -21.429   4.458  1.00  0.00    -0.206 F 
HETATM   19  C   UNL     1      44.356 -19.206   4.861  1.00  0.00     0.045 A 
HETATM   20  C   UNL     1      43.921 -17.972   4.368  1.00  0.00     0.040 A 
ENDBRANCH  13  14
ENDBRANCH  12  13
ENDBRANCH   9  12
ENDBRANCH   6   8
BRANCH   7  21
HETATM   21  C   UNL     1      41.123 -13.195   1.350  1.00  0.00    -0.020 A 
HETATM   22  C   UNL     1      41.958 -13.345   2.463  1.00  0.00     0.014 A 
HETATM   23  C   UNL     1      41.469 -13.069   3.744  1.00  0.00     0.020 A 
HETATM   24  C   UNL     1      40.154 -12.637   3.908  1.00  0.00     0.011 A 
HETATM   25 BR   UNL     1      39.488 -12.285   5.642  1.00  0.00    -0.051 Br
HETATM   26  C   UNL     1      39.321 -12.470   2.804  1.00  0.00     0.020 A 
HETATM   27  C   UNL     1      39.806 -12.749   1.526  1.00  0.00     0.014 A 
ENDBRANCH   7  21
TORSDOF 5
ENDMDL
MODEL 9
REMARK VINA RESULT:      -6.9      4.949      6.754
REMARK  5 active torsions:
REMARK  status: ('A' for Active; 'I' for Inactive)
REMARK    1  A    between atoms: C_6  and  N_7 
REMARK       I    between atoms: N_7  and  C_8 
REMARK    2  A    between atoms: C_8  and  C_9 
REMARK    3  A    between atoms: C_9  and  O_10 
REMARK    4  A    between atoms: O_10  and  C_11 
REMARK    5  A    between atoms: C_19  and  C_20 
ROOT
HETATM    1  C   UNL     1      43.832 -18.896   2.764  1.00  0.00     0.073 C 
HETATM    2  C   UNL     1      42.605 -18.143   2.403  1.00  0.00     0.065 A 
HETATM    3  N   UNL     1      41.863 -18.535   1.360  1.00  0.00    -0.177 NA
HETATM    4  N   UNL     1      40.871 -17.632   1.310  1.00  0.00    -0.262 N 
HETATM    5  H   UNL     1      40.156 -17.746   0.597  1.00  0.00     0.191 HD
HETATM    6  C   UNL     1      40.932 -16.678   2.291  1.00  0.00     0.137 A 
HETATM    7  C   UNL     1      42.064 -16.985   3.023  1.00  0.00     0.046 A 
ENDROOT
BRANCH   6   8
HETATM    8  N   UNL     1      39.992 -15.690   2.511  1.00  0.00    -0.309 N 
HETATM    9  C   UNL     1      39.566 -14.707   1.658  1.00  0.00     0.247 C 
HETATM   10  O   UNL     1      38.524 -14.102   1.927  1.00  0.00    -0.271 OA
HETATM   11  H   UNL     1      39.515 -15.692   3.406  1.00  0.00     0.170 HD
BRANCH   9  12
HETATM   12  C   UNL     1      40.470 -14.246   0.515  1.00  0.00     0.278 C 
BRANCH  12  13
HETATM   13  O   UNL     1      39.802 -13.514  -0.499  1.00  0.00    -0.342 OA
BRANCH  13  14
HETATM   14  C   UNL     1      39.500 -14.218  -1.640  1.00  0.00     0.069 A 
HETATM   15  C   UNL     1      40.497 -15.102  -2.066  1.00  0.00     0.040 A 
HETATM   16  C   UNL     1      40.320 -15.866  -3.223  1.00  0.00     0.045 A 
HETATM   17  C   UNL     1      39.141 -15.746  -3.947  1.00  0.00     0.116 A 
HETATM   18  F   UNL     1      38.967 -16.477  -5.056  1.00  0.00    -0.206 F 
HETATM   19  C   UNL     1      38.140 -14.877  -3.536  1.00  0.00     0.045 A 
HETATM   20  C   UNL     1      38.317 -14.111  -2.380  1.00  0.00     0.040 A 
ENDBRANCH  13  14
ENDBRANCH  12  13
ENDBRANCH   9  12
ENDBRANCH   6   8
BRANCH   7  21
HETATM   21  C   UNL     1      42.614 -16.141   4.065  1.00  0.00    -0.020 A 
HETATM   22  C   UNL     1      43.135 -14.875   3.775  1.00  0.00     0.014 A 
HETATM   23  C   UNL     1      43.718 -14.111   4.791  1.00  0.00     0.020 A 
HETATM   24  C   UNL     1      43.774 -14.610   6.092  1.00  0.00     0.011 A 
HETATM   25 BR   UNL     1      44.582 -13.585   7.459  1.00  0.00    -0.051 Br
HETATM   26  C   UNL     1      43.244 -15.863   6.392  1.00  0.00     0.020 A 
HETATM   27  C   UNL     1      42.664 -16.627   5.378  1.00  0.00     0.014 A 
ENDBRANCH   7  21
TORSDOF 5
ENDMDL
MODEL 10
REMARK VINA RESULT:      -6.8      2.091      2.871
REMARK  5 active torsions:
REMARK  status: ('A' for Active; 'I' for Inactive)
REMARK    1  A    between atoms: C_6  and  N_7 
REMARK       I    between atoms: N_7  and  C_8 
REMARK    2  A    between atoms: C_8  and  C_9 
REMARK    3  A    between atoms: C_9  and  O_10 
REMARK    4  A    between atoms: O_10  and  C_11 
REMARK    5  A    between atoms: C_19  and  C_20 
ROOT
HETATM    1  C   UNL     1      40.658 -11.036   4.413  1.00  0.00     0.073 C 
HETATM    2  C   UNL     1      40.065 -12.131   3.605  1.00  0.00     0.065 A 
HETATM    3  N   UNL     1      39.193 -11.846   2.629  1.00  0.00    -0.177 NA
HETATM    4  N   UNL     1      38.851 -13.049   2.139  1.00  0.00    -0.262 N 
HETATM    5  H   UNL     1      38.204 -13.079   1.357  1.00  0.00     0.191 HD
HETATM    6  C   UNL     1      39.480 -14.102   2.748  1.00  0.00     0.137 A 
HETATM    7  C   UNL     1      40.283 -13.531   3.719  1.00  0.00     0.046 A 
ENDROOT
BRANCH   6   8
HETATM    8  N   UNL     1      39.369 -15.427   2.379  1.00  0.00    -0.309 N 
HETATM    9  C   UNL     1      40.318 -16.247   1.828  1.00  0.00     0.247 C 
HETATM   10  O   UNL     1      40.123 -17.465   1.834  1.00  0.00    -0.271 OA
HETATM   11  H   UNL     1      38.485 -15.889   2.561  1.00  0.00     0.170 HD
BRANCH   9  12
HETATM   12  C   UNL     1      41.488 -15.643   1.052  1.00  0.00     0.278 C 
BRANCH  12  13
HETATM   13  O   UNL     1      42.708 -15.600   1.773  1.00  0.00    -0.342 OA
BRANCH  13  14
HETATM   14  C   UNL     1      43.196 -16.817   2.187  1.00  0.00     0.069 A 
HETATM   15  C   UNL     1      43.482 -17.718   1.157  1.00  0.00     0.040 A 
HETATM   16  C   UNL     1      43.969 -18.995   1.448  1.00  0.00     0.045 A 
HETATM   17  C   UNL     1      44.174 -19.365   2.770  1.00  0.00     0.116 A 
HETATM   18  F   UNL     1      44.642 -20.587   3.053  1.00  0.00    -0.206 F 
HETATM   19  C   UNL     1      43.900 -18.481   3.805  1.00  0.00     0.045 A 
HETATM   20  C   UNL     1      43.411 -17.203   3.515  1.00  0.00     0.040 A 
ENDBRANCH  13  14
ENDBRANCH  12  13
ENDBRANCH   9  12
ENDBRANCH   6   8
BRANCH   7  21
HETATM   21  C   UNL     1      41.009 -14.283   4.722  1.00  0.00    -0.020 A 
HETATM   22  C   UNL     1      42.339 -13.980   5.037  1.00  0.00     0.014 A 
HETATM   23  C   UNL     1      43.033 -14.764   5.962  1.00  0.00     0.020 A 
HETATM   24  C   UNL     1      42.397 -15.844   6.575  1.00  0.00     0.011 A 
HETATM   25 BR   UNL     1      43.345 -16.918   7.809  1.00  0.00    -0.051 Br
HETATM   26  C   UNL     1      41.070 -16.144   6.279  1.00  0.00     0.020 A 
HETATM   27  C   UNL     1      40.377 -15.362   5.353  1.00  0.00     0.014 A 
ENDBRANCH   7  21
TORSDOF 5
ENDMDL
