MODEL 1
REMARK VINA RESULT:      -9.5      0.000      0.000
REMARK  5 active torsions:
REMARK  status: ('A' for Active; 'I' for Inactive)
REMARK    1  A    between atoms: C_4  and  C_5 
REMARK    2  A    between atoms: C_5  and  O_6 
REMARK    3  A    between atoms: O_6  and  C_7 
REMARK    4  A    between atoms: C_10  and  N_11 
REMARK       I    between atoms: N_11  and  C_12 
REMARK    5  A    between atoms: C_12  and  C_13 
ROOT
HETATM    1  N   UNL     1      43.588 -13.830   7.243  1.00  0.00    -0.322 N 
HETATM    2  C   UNL     1      44.742 -13.217   7.681  1.00  0.00     0.277 C 
HETATM    3  O   UNL     1      45.866 -13.281   7.212  1.00  0.00    -0.266 OA
HETATM    4  H   UNL     1      42.737 -13.506   7.694  1.00  0.00     0.169 HD
ENDROOT
BRANCH   1   5
HETATM    5  C   UNL     1      43.464 -14.820   6.253  1.00  0.00     0.035 A 
HETATM    6  C   UNL     1      43.387 -16.184   6.531  1.00  0.00     0.032 A 
HETATM    7  C   UNL     1      43.175 -17.102   5.497  1.00  0.00     0.039 A 
HETATM    8  C   UNL     1      43.030 -16.668   4.179  1.00  0.00     0.069 A 
HETATM    9  C   UNL     1      43.162 -15.312   3.888  1.00  0.00     0.039 A 
HETATM   10  C   UNL     1      43.369 -14.393   4.924  1.00  0.00     0.032 A 
BRANCH   8  11
HETATM   11  O   UNL     1      42.773 -17.655   3.269  1.00  0.00    -0.347 OA
BRANCH  11  12
HETATM   12  C   UNL     1      43.894 -18.127   2.517  1.00  0.00     0.214 C 
BRANCH  12  13
HETATM   13  C   UNL     1      44.093 -19.606   2.768  1.00  0.00    -0.034 A 
HETATM   14  C   UNL     1      43.740 -20.538   1.779  1.00  0.00     0.009 A 
HETATM   15  C   UNL     1      43.928 -21.905   1.991  1.00  0.00     0.001 A 
HETATM   16  C   UNL     1      44.480 -22.356   3.188  1.00  0.00     0.000 A 
HETATM   17  C   UNL     1      44.852 -21.440   4.171  1.00  0.00     0.001 A 
HETATM   18  C   UNL     1      44.666 -20.073   3.960  1.00  0.00     0.009 A 
ENDBRANCH  12  13
ENDBRANCH  11  12
ENDBRANCH   8  11
ENDBRANCH   1   5
BRANCH   2  19
HETATM   19  C   UNL     1      44.487 -12.362   8.922  1.00  0.00     0.156 A 
HETATM   20  N   UNL     1      45.312 -12.546   9.916  1.00  0.00    -0.166 NA
HETATM   21  N   UNL     1      45.138 -11.793  11.037  1.00  0.00    -0.242 N 
HETATM   22  C   UNL     1      44.167 -10.839  11.229  1.00  0.00     0.272 A 
HETATM   23  H   UNL     1      45.771 -11.968  11.812  1.00  0.00     0.192 HD
HETATM   24  O   UNL     1      44.070 -10.205  12.274  1.00  0.00    -0.266 OA
HETATM   25  C   UNL     1      43.252 -10.607  10.099  1.00  0.00     0.046 A 
HETATM   26  C   UNL     1      43.401 -11.359   8.935  1.00  0.00     0.016 A 
HETATM   27  C   UNL     1      42.255  -9.627  10.194  1.00  0.00     0.018 A 
HETATM   28  C   UNL     1      42.553 -11.113   7.848  1.00  0.00     0.015 A 
HETATM   29  C   UNL     1      41.557 -10.136   7.941  1.00  0.00     0.001 A 
HETATM   30  C   UNL     1      41.407  -9.395   9.112  1.00  0.00     0.001 A 
ENDBRANCH   2  19
TORSDOF 5
ENDMDL
MODEL 2
REMARK VINA RESULT:      -9.0      2.436      9.905
REMARK  5 active torsions:
REMARK  status: ('A' for Active; 'I' for Inactive)
REMARK    1  A    between atoms: C_4  and  C_5 
REMARK    2  A    between atoms: C_5  and  O_6 
REMARK    3  A    between atoms: O_6  and  C_7 
REMARK    4  A    between atoms: C_10  and  N_11 
REMARK       I    between atoms: N_11  and  C_12 
REMARK    5  A    between atoms: C_12  and  C_13 
ROOT
HETATM    1  N   UNL     1      43.805 -15.389   5.885  1.00  0.00    -0.322 N 
HETATM    2  C   UNL     1      43.048 -16.516   6.125  1.00  0.00     0.277 C 
HETATM    3  O   UNL     1      42.091 -16.649   6.869  1.00  0.00    -0.266 OA
HETATM    4  H   UNL     1      44.453 -15.470   5.106  1.00  0.00     0.169 HD
ENDROOT
BRANCH   1   5
HETATM    5  C   UNL     1      43.765 -14.166   6.575  1.00  0.00     0.035 A 
HETATM    6  C   UNL     1      42.807 -13.180   6.345  1.00  0.00     0.032 A 
HETATM    7  C   UNL     1      42.781 -12.026   7.136  1.00  0.00     0.039 A 
HETATM    8  C   UNL     1      43.704 -11.848   8.166  1.00  0.00     0.069 A 
HETATM    9  C   UNL     1      44.698 -12.803   8.364  1.00  0.00     0.039 A 
HETATM   10  C   UNL     1      44.722 -13.961   7.577  1.00  0.00     0.032 A 
BRANCH   8  11
HETATM   11  O   UNL     1      43.541 -10.707   8.900  1.00  0.00    -0.347 OA
BRANCH  11  12
HETATM   12  C   UNL     1      42.243 -10.500   9.464  1.00  0.00     0.214 C 
BRANCH  12  13
HETATM   13  C   UNL     1      42.341 -10.463  10.974  1.00  0.00    -0.034 A 
HETATM   14  C   UNL     1      43.428  -9.824  11.590  1.00  0.00     0.009 A 
HETATM   15  C   UNL     1      43.527  -9.772  12.982  1.00  0.00     0.001 A 
HETATM   16  C   UNL     1      42.535 -10.348  13.773  1.00  0.00     0.000 A 
HETATM   17  C   UNL     1      41.441 -10.968  13.174  1.00  0.00     0.001 A 
HETATM   18  C   UNL     1      41.340 -11.020  11.783  1.00  0.00     0.009 A 
ENDBRANCH  12  13
ENDBRANCH  11  12
ENDBRANCH   8  11
ENDBRANCH   1   5
BRANCH   2  19
HETATM   19  C   UNL     1      43.543 -17.709   5.308  1.00  0.00     0.156 A 
HETATM   20  N   UNL     1      43.891 -18.762   5.996  1.00  0.00    -0.166 NA
HETATM   21  N   UNL     1      44.320 -19.858   5.310  1.00  0.00    -0.242 N 
HETATM   22  C   UNL     1      44.422 -19.970   3.944  1.00  0.00     0.272 A 
HETATM   23  H   UNL     1      44.615 -20.659   5.862  1.00  0.00     0.192 HD
HETATM   24  O   UNL     1      44.826 -20.992   3.400  1.00  0.00    -0.266 OA
HETATM   25  C   UNL     1      44.002 -18.795   3.163  1.00  0.00     0.046 A 
HETATM   26  C   UNL     1      43.556 -17.656   3.830  1.00  0.00     0.016 A 
HETATM   27  C   UNL     1      44.037 -18.835   1.763  1.00  0.00     0.018 A 
HETATM   28  C   UNL     1      43.123 -16.551   3.086  1.00  0.00     0.015 A 
HETATM   29  C   UNL     1      43.159 -16.590   1.688  1.00  0.00     0.001 A 
HETATM   30  C   UNL     1      43.616 -17.729   1.027  1.00  0.00     0.001 A 
ENDBRANCH   2  19
TORSDOF 5
ENDMDL
MODEL 3
REMARK VINA RESULT:      -9.0      4.959      8.362
REMARK  5 active torsions:
REMARK  status: ('A' for Active; 'I' for Inactive)
REMARK    1  A    between atoms: C_4  and  C_5 
REMARK    2  A    between atoms: C_5  and  O_6 
REMARK    3  A    between atoms: O_6  and  C_7 
REMARK    4  A    between atoms: C_10  and  N_11 
REMARK       I    between atoms: N_11  and  C_12 
REMARK    5  A    between atoms: C_12  and  C_13 
ROOT
HETATM    1  N   UNL     1      41.340 -16.375   4.174  1.00  0.00    -0.322 N 
HETATM    2  C   UNL     1      42.603 -16.184   4.693  1.00  0.00     0.277 C 
HETATM    3  O   UNL     1      43.373 -15.257   4.508  1.00  0.00    -0.266 OA
HETATM    4  H   UNL     1      40.820 -17.141   4.593  1.00  0.00     0.169 HD
ENDROOT
BRANCH   1   5
HETATM    5  C   UNL     1      40.706 -15.632   3.164  1.00  0.00     0.035 A 
HETATM    6  C   UNL     1      39.896 -14.526   3.413  1.00  0.00     0.032 A 
HETATM    7  C   UNL     1      39.371 -13.784   2.349  1.00  0.00     0.039 A 
HETATM    8  C   UNL     1      39.656 -14.134   1.029  1.00  0.00     0.069 A 
HETATM    9  C   UNL     1      40.420 -15.271   0.774  1.00  0.00     0.039 A 
HETATM   10  C   UNL     1      40.949 -16.010   1.838  1.00  0.00     0.032 A 
BRANCH   8  11
HETATM   11  O   UNL     1      39.131 -13.300   0.082  1.00  0.00    -0.347 OA
BRANCH  11  12
HETATM   12  C   UNL     1      39.885 -13.162  -1.125  1.00  0.00     0.214 C 
BRANCH  12  13
HETATM   13  C   UNL     1      39.349 -14.110  -2.176  1.00  0.00    -0.034 A 
HETATM   14  C   UNL     1      40.222 -14.989  -2.836  1.00  0.00     0.009 A 
HETATM   15  C   UNL     1      39.742 -15.878  -3.800  1.00  0.00     0.001 A 
HETATM   16  C   UNL     1      38.383 -15.906  -4.107  1.00  0.00     0.000 A 
HETATM   17  C   UNL     1      37.503 -15.052  -3.445  1.00  0.00     0.001 A 
HETATM   18  C   UNL     1      37.981 -14.164  -2.481  1.00  0.00     0.009 A 
ENDBRANCH  12  13
ENDBRANCH  11  12
ENDBRANCH   8  11
ENDBRANCH   1   5
BRANCH   2  19
HETATM   19  C   UNL     1      43.011 -17.334   5.614  1.00  0.00     0.156 A 
HETATM   20  N   UNL     1      42.732 -17.174   6.879  1.00  0.00    -0.166 NA
HETATM   21  N   UNL     1      43.058 -18.181   7.736  1.00  0.00    -0.242 N 
HETATM   22  C   UNL     1      43.658 -19.370   7.397  1.00  0.00     0.272 A 
HETATM   23  H   UNL     1      42.860 -18.028   8.721  1.00  0.00     0.192 HD
HETATM   24  O   UNL     1      43.928 -20.227   8.231  1.00  0.00    -0.266 OA
HETATM   25  C   UNL     1      43.948 -19.568   5.967  1.00  0.00     0.046 A 
HETATM   26  C   UNL     1      43.626 -18.560   5.060  1.00  0.00     0.016 A 
HETATM   27  C   UNL     1      44.525 -20.766   5.528  1.00  0.00     0.018 A 
HETATM   28  C   UNL     1      43.870 -18.762   3.696  1.00  0.00     0.015 A 
HETATM   29  C   UNL     1      44.446 -19.958   3.257  1.00  0.00     0.001 A 
HETATM   30  C   UNL     1      44.775 -20.958   4.170  1.00  0.00     0.001 A 
ENDBRANCH   2  19
TORSDOF 5
ENDMDL
MODEL 4
REMARK VINA RESULT:      -8.9      2.713      3.402
REMARK  5 active torsions:
REMARK  status: ('A' for Active; 'I' for Inactive)
REMARK    1  A    between atoms: C_4  and  C_5 
REMARK    2  A    between atoms: C_5  and  O_6 
REMARK    3  A    between atoms: O_6  and  C_7 
REMARK    4  A    between atoms: C_10  and  N_11 
REMARK       I    between atoms: N_11  and  C_12 
REMARK    5  A    between atoms: C_12  and  C_13 
ROOT
HETATM    1  N   UNL     1      40.664 -12.730   6.718  1.00  0.00    -0.322 N 
HETATM    2  C   UNL     1      40.717 -11.355   6.795  1.00  0.00     0.277 C 
HETATM    3  O   UNL     1      41.050 -10.554   5.938  1.00  0.00    -0.266 OA
HETATM    4  H   UNL     1      40.204 -13.182   7.504  1.00  0.00     0.169 HD
ENDROOT
BRANCH   1   5
HETATM    5  C   UNL     1      41.152 -13.552   5.688  1.00  0.00     0.035 A 
HETATM    6  C   UNL     1      42.508 -13.742   5.429  1.00  0.00     0.032 A 
HETATM    7  C   UNL     1      42.916 -14.645   4.441  1.00  0.00     0.039 A 
HETATM    8  C   UNL     1      41.977 -15.372   3.710  1.00  0.00     0.069 A 
HETATM    9  C   UNL     1      40.619 -15.145   3.926  1.00  0.00     0.039 A 
HETATM   10  C   UNL     1      40.211 -14.245   4.918  1.00  0.00     0.032 A 
BRANCH   8  11
HETATM   11  O   UNL     1      42.501 -16.261   2.815  1.00  0.00    -0.347 OA
BRANCH  11  12
HETATM   12  C   UNL     1      41.865 -17.540   2.749  1.00  0.00     0.214 C 
BRANCH  12  13
HETATM   13  C   UNL     1      42.878 -18.632   3.018  1.00  0.00    -0.034 A 
HETATM   14  C   UNL     1      43.147 -19.595   2.034  1.00  0.00     0.009 A 
HETATM   15  C   UNL     1      44.086 -20.602   2.262  1.00  0.00     0.001 A 
HETATM   16  C   UNL     1      44.776 -20.651   3.472  1.00  0.00     0.000 A 
HETATM   17  C   UNL     1      44.531 -19.690   4.451  1.00  0.00     0.001 A 
HETATM   18  C   UNL     1      43.593 -18.682   4.223  1.00  0.00     0.009 A 
ENDBRANCH  12  13
ENDBRANCH  11  12
ENDBRANCH   8  11
ENDBRANCH   1   5
BRANCH   2  19
HETATM   19  C   UNL     1      40.283 -10.853   8.172  1.00  0.00     0.156 A 
HETATM   20  N   UNL     1      38.995 -10.746   8.356  1.00  0.00    -0.166 NA
HETATM   21  N   UNL     1      38.558 -10.321   9.574  1.00  0.00    -0.242 N 
HETATM   22  C   UNL     1      39.350  -9.992  10.648  1.00  0.00     0.272 A 
HETATM   23  H   UNL     1      37.554 -10.215   9.692  1.00  0.00     0.192 HD
HETATM   24  O   UNL     1      38.880  -9.609  11.714  1.00  0.00    -0.266 OA
HETATM   25  C   UNL     1      40.802 -10.140  10.455  1.00  0.00     0.046 A 
HETATM   26  C   UNL     1      41.286 -10.574   9.222  1.00  0.00     0.016 A 
HETATM   27  C   UNL     1      41.681  -9.862  11.510  1.00  0.00     0.018 A 
HETATM   28  C   UNL     1      42.664 -10.748   9.050  1.00  0.00     0.015 A 
HETATM   29  C   UNL     1      43.543 -10.471  10.102  1.00  0.00     0.001 A 
HETATM   30  C   UNL     1      43.054 -10.027  11.329  1.00  0.00     0.001 A 
ENDBRANCH   2  19
TORSDOF 5
ENDMDL
MODEL 5
REMARK VINA RESULT:      -8.9      5.312      8.801
REMARK  5 active torsions:
REMARK  status: ('A' for Active; 'I' for Inactive)
REMARK    1  A    between atoms: C_4  and  C_5 
REMARK    2  A    between atoms: C_5  and  O_6 
REMARK    3  A    between atoms: O_6  and  C_7 
REMARK    4  A    between atoms: C_10  and  N_11 
REMARK       I    between atoms: N_11  and  C_12 
REMARK    5  A    between atoms: C_12  and  C_13 
ROOT
HETATM    1  N   UNL     1      41.723 -16.794   3.266  1.00  0.00    -0.322 N 
HETATM    2  C   UNL     1      42.771 -16.393   4.067  1.00  0.00     0.277 C 
HETATM    3  O   UNL     1      43.419 -15.362   4.017  1.00  0.00    -0.266 OA
HETATM    4  H   UNL     1      41.231 -17.621   3.593  1.00  0.00     0.169 HD
ENDROOT
BRANCH   1   5
HETATM    5  C   UNL     1      41.265 -16.187   2.085  1.00  0.00     0.035 A 
HETATM    6  C   UNL     1      40.382 -15.108   2.063  1.00  0.00     0.032 A 
HETATM    7  C   UNL     1      40.042 -14.502   0.849  1.00  0.00     0.039 A 
HETATM    8  C   UNL     1      40.585 -14.959  -0.352  1.00  0.00     0.069 A 
HETATM    9  C   UNL     1      41.424 -16.071  -0.342  1.00  0.00     0.039 A 
HETATM   10  C   UNL     1      41.769 -16.675   0.873  1.00  0.00     0.032 A 
BRANCH   8  11
HETATM   11  O   UNL     1      40.219 -14.250  -1.461  1.00  0.00    -0.347 OA
BRANCH  11  12
HETATM   12  C   UNL     1      41.169 -14.213  -2.529  1.00  0.00     0.214 C 
BRANCH  12  13
HETATM   13  C   UNL     1      41.801 -12.840  -2.606  1.00  0.00    -0.034 A 
HETATM   14  C   UNL     1      41.660 -12.069  -3.770  1.00  0.00     0.009 A 
HETATM   15  C   UNL     1      42.227 -10.796  -3.853  1.00  0.00     0.001 A 
HETATM   16  C   UNL     1      42.932 -10.274  -2.770  1.00  0.00     0.000 A 
HETATM   17  C   UNL     1      43.063 -11.022  -1.602  1.00  0.00     0.001 A 
HETATM   18  C   UNL     1      42.495 -12.294  -1.517  1.00  0.00     0.009 A 
ENDBRANCH  12  13
ENDBRANCH  11  12
ENDBRANCH   8  11
ENDBRANCH   1   5
BRANCH   2  19
HETATM   19  C   UNL     1      43.094 -17.440   5.133  1.00  0.00     0.156 A 
HETATM   20  N   UNL     1      42.744 -17.135   6.353  1.00  0.00    -0.166 NA
HETATM   21  N   UNL     1      42.993 -18.045   7.335  1.00  0.00    -0.242 N 
HETATM   22  C   UNL     1      43.583 -19.275   7.168  1.00  0.00     0.272 A 
HETATM   23  H   UNL     1      42.740 -17.780   8.282  1.00  0.00     0.192 HD
HETATM   24  O   UNL     1      43.782 -20.038   8.106  1.00  0.00    -0.266 OA
HETATM   25  C   UNL     1      43.954 -19.636   5.789  1.00  0.00     0.046 A 
HETATM   26  C   UNL     1      43.712 -18.730   4.758  1.00  0.00     0.016 A 
HETATM   27  C   UNL     1      44.527 -20.886   5.522  1.00  0.00     0.018 A 
HETATM   28  C   UNL     1      44.032 -19.088   3.443  1.00  0.00     0.015 A 
HETATM   29  C   UNL     1      44.605 -20.336   3.175  1.00  0.00     0.001 A 
HETATM   30  C   UNL     1      44.853 -21.233   4.212  1.00  0.00     0.001 A 
ENDBRANCH   2  19
TORSDOF 5
ENDMDL
MODEL 6
REMARK VINA RESULT:      -8.8      6.977      9.399
REMARK  5 active torsions:
REMARK  status: ('A' for Active; 'I' for Inactive)
REMARK    1  A    between atoms: C_4  and  C_5 
REMARK    2  A    between atoms: C_5  and  O_6 
REMARK    3  A    between atoms: O_6  and  C_7 
REMARK    4  A    between atoms: C_10  and  N_11 
REMARK       I    between atoms: N_11  and  C_12 
REMARK    5  A    between atoms: C_12  and  C_13 
ROOT
HETATM    1  N   UNL     1      40.596 -15.061  -0.357  1.00  0.00    -0.322 N 
HETATM    2  C   UNL     1      40.723 -15.203  -1.722  1.00  0.00     0.277 C 
HETATM    3  O   UNL     1      41.163 -16.149  -2.354  1.00  0.00    -0.266 OA
HETATM    4  H   UNL     1      40.055 -14.253  -0.063  1.00  0.00     0.169 HD
ENDROOT
BRANCH   1   5
HETATM    5  C   UNL     1      41.109 -15.902   0.645  1.00  0.00     0.035 A 
HETATM    6  C   UNL     1      42.428 -16.352   0.675  1.00  0.00     0.032 A 
HETATM    7  C   UNL     1      42.887 -17.115   1.754  1.00  0.00     0.039 A 
HETATM    8  C   UNL     1      42.038 -17.430   2.815  1.00  0.00     0.069 A 
HETATM    9  C   UNL     1      40.704 -17.031   2.763  1.00  0.00     0.039 A 
HETATM   10  C   UNL     1      40.246 -16.263   1.686  1.00  0.00     0.032 A 
BRANCH   8  11
HETATM   11  O   UNL     1      42.619 -18.132   3.833  1.00  0.00    -0.347 OA
BRANCH  11  12
HETATM   12  C   UNL     1      44.019 -18.390   3.704  1.00  0.00     0.214 C 
BRANCH  12  13
HETATM   13  C   UNL     1      44.263 -19.882   3.643  1.00  0.00    -0.034 A 
HETATM   14  C   UNL     1      44.646 -20.576   4.801  1.00  0.00     0.009 A 
HETATM   15  C   UNL     1      44.865 -21.955   4.764  1.00  0.00     0.001 A 
HETATM   16  C   UNL     1      44.692 -22.657   3.572  1.00  0.00     0.000 A 
HETATM   17  C   UNL     1      44.294 -21.982   2.420  1.00  0.00     0.001 A 
HETATM   18  C   UNL     1      44.074 -20.604   2.456  1.00  0.00     0.009 A 
ENDBRANCH  12  13
ENDBRANCH  11  12
ENDBRANCH   8  11
ENDBRANCH   1   5
BRANCH   2  19
HETATM   19  C   UNL     1      40.220 -13.965  -2.464  1.00  0.00     0.156 A 
HETATM   20  N   UNL     1      39.040 -14.074  -3.013  1.00  0.00    -0.166 NA
HETATM   21  N   UNL     1      38.540 -12.990  -3.669  1.00  0.00    -0.242 N 
HETATM   22  C   UNL     1      39.160 -11.772  -3.810  1.00  0.00     0.272 A 
HETATM   23  H   UNL     1      37.633 -13.100  -4.114  1.00  0.00     0.192 HD
HETATM   24  O   UNL     1      38.647 -10.843  -4.424  1.00  0.00    -0.266 OA
HETATM   25  C   UNL     1      40.478 -11.635  -3.168  1.00  0.00     0.046 A 
HETATM   26  C   UNL     1      41.022 -12.723  -2.487  1.00  0.00     0.016 A 
HETATM   27  C   UNL     1      41.166 -10.416  -3.231  1.00  0.00     0.018 A 
HETATM   28  C   UNL     1      42.258 -12.582  -1.846  1.00  0.00     0.015 A 
HETATM   29  C   UNL     1      42.946 -11.366  -1.908  1.00  0.00     0.001 A 
HETATM   30  C   UNL     1      42.402 -10.285  -2.600  1.00  0.00     0.001 A 
ENDBRANCH   2  19
TORSDOF 5
ENDMDL
MODEL 7
REMARK VINA RESULT:      -8.7      6.182      9.954
REMARK  5 active torsions:
REMARK  status: ('A' for Active; 'I' for Inactive)
REMARK    1  A    between atoms: C_4  and  C_5 
REMARK    2  A    between atoms: C_5  and  O_6 
REMARK    3  A    between atoms: O_6  and  C_7 
REMARK    4  A    between atoms: C_10  and  N_11 
REMARK       I    between atoms: N_11  and  C_12 
REMARK    5  A    between atoms: C_12  and  C_13 
ROOT
HETATM    1  N   UNL     1      42.294 -16.049   1.328  1.00  0.00    -0.322 N 
HETATM    2  C   UNL     1      41.662 -16.792   2.302  1.00  0.00     0.277 C 
HETATM    3  O   UNL     1      40.473 -17.033   2.426  1.00  0.00    -0.266 OA
HETATM    4  H   UNL     1      43.309 -16.116   1.334  1.00  0.00     0.169 HD
ENDROOT
BRANCH   1   5
HETATM    5  C   UNL     1      41.701 -15.241   0.344  1.00  0.00     0.035 A 
HETATM    6  C   UNL     1      41.533 -13.863   0.474  1.00  0.00     0.032 A 
HETATM    7  C   UNL     1      41.014 -13.114  -0.588  1.00  0.00     0.039 A 
HETATM    8  C   UNL     1      40.665 -13.730  -1.790  1.00  0.00     0.069 A 
HETATM    9  C   UNL     1      40.778 -15.114  -1.905  1.00  0.00     0.039 A 
HETATM   10  C   UNL     1      41.302 -15.863  -0.845  1.00  0.00     0.032 A 
BRANCH   8  11
HETATM   11  O   UNL     1      40.222 -12.885  -2.767  1.00  0.00    -0.347 OA
BRANCH  11  12
HETATM   12  C   UNL     1      39.006 -12.183  -2.492  1.00  0.00     0.214 C 
BRANCH  12  13
HETATM   13  C   UNL     1      37.887 -12.743  -3.341  1.00  0.00    -0.034 A 
HETATM   14  C   UNL     1      37.036 -11.872  -4.040  1.00  0.00     0.009 A 
HETATM   15  C   UNL     1      36.004 -12.373  -4.837  1.00  0.00     0.001 A 
HETATM   16  C   UNL     1      35.819 -13.749  -4.954  1.00  0.00     0.000 A 
HETATM   17  C   UNL     1      36.669 -14.624  -4.280  1.00  0.00     0.001 A 
HETATM   18  C   UNL     1      37.701 -14.125  -3.484  1.00  0.00     0.009 A 
ENDBRANCH  12  13
ENDBRANCH  11  12
ENDBRANCH   8  11
ENDBRANCH   1   5
BRANCH   2  19
HETATM   19  C   UNL     1      42.659 -17.351   3.317  1.00  0.00     0.156 A 
HETATM   20  N   UNL     1      42.863 -16.615   4.375  1.00  0.00    -0.166 NA
HETATM   21  N   UNL     1      43.728 -17.081   5.318  1.00  0.00    -0.242 N 
HETATM   22  C   UNL     1      44.416 -18.270   5.269  1.00  0.00     0.272 A 
HETATM   23  H   UNL     1      43.899 -16.483   6.122  1.00  0.00     0.192 HD
HETATM   24  O   UNL     1      45.185 -18.618   6.158  1.00  0.00    -0.266 OA
HETATM   25  C   UNL     1      44.165 -19.118   4.092  1.00  0.00     0.046 A 
HETATM   26  C   UNL     1      43.285 -18.674   3.106  1.00  0.00     0.016 A 
HETATM   27  C   UNL     1      44.795 -20.364   3.978  1.00  0.00     0.018 A 
HETATM   28  C   UNL     1      43.020 -19.496   2.004  1.00  0.00     0.015 A 
HETATM   29  C   UNL     1      43.649 -20.740   1.889  1.00  0.00     0.001 A 
HETATM   30  C   UNL     1      44.536 -21.173   2.873  1.00  0.00     0.001 A 
ENDBRANCH   2  19
TORSDOF 5
ENDMDL
MODEL 8
REMARK VINA RESULT:      -8.7      2.527     10.070
REMARK  5 active torsions:
REMARK  status: ('A' for Active; 'I' for Inactive)
REMARK    1  A    between atoms: C_4  and  C_5 
REMARK    2  A    between atoms: C_5  and  O_6 
REMARK    3  A    between atoms: O_6  and  C_7 
REMARK    4  A    between atoms: C_10  and  N_11 
REMARK       I    between atoms: N_11  and  C_12 
REMARK    5  A    between atoms: C_12  and  C_13 
ROOT
HETATM    1  N   UNL     1      43.859 -15.186   5.640  1.00  0.00    -0.322 N 
HETATM    2  C   UNL     1      42.837 -16.081   5.409  1.00  0.00     0.277 C 
HETATM    3  O   UNL     1      41.662 -15.995   5.722  1.00  0.00    -0.266 OA
HETATM    4  H   UNL     1      44.725 -15.393   5.148  1.00  0.00     0.169 HD
ENDROOT
BRANCH   1   5
HETATM    5  C   UNL     1      43.828 -14.038   6.449  1.00  0.00     0.035 A 
HETATM    6  C   UNL     1      42.878 -13.026   6.317  1.00  0.00     0.032 A 
HETATM    7  C   UNL     1      42.860 -11.956   7.219  1.00  0.00     0.039 A 
HETATM    8  C   UNL     1      43.782 -11.890   8.263  1.00  0.00     0.069 A 
HETATM    9  C   UNL     1      44.768 -12.869   8.366  1.00  0.00     0.039 A 
HETATM   10  C   UNL     1      44.784 -13.942   7.468  1.00  0.00     0.032 A 
BRANCH   8  11
HETATM   11  O   UNL     1      43.626 -10.827   9.108  1.00  0.00    -0.347 OA
BRANCH  11  12
HETATM   12  C   UNL     1      42.311 -10.625   9.632  1.00  0.00     0.214 C 
BRANCH  12  13
HETATM   13  C   UNL     1      42.373 -10.505  11.139  1.00  0.00    -0.034 A 
HETATM   14  C   UNL     1      43.451  -9.841  11.745  1.00  0.00     0.009 A 
HETATM   15  C   UNL     1      43.517  -9.713  13.134  1.00  0.00     0.001 A 
HETATM   16  C   UNL     1      42.502 -10.237  13.932  1.00  0.00     0.000 A 
HETATM   17  C   UNL     1      41.418 -10.883  13.342  1.00  0.00     0.001 A 
HETATM   18  C   UNL     1      41.349 -11.011  11.953  1.00  0.00     0.009 A 
ENDBRANCH  12  13
ENDBRANCH  11  12
ENDBRANCH   8  11
ENDBRANCH   1   5
BRANCH   2  19
HETATM   19  C   UNL     1      43.332 -17.315   4.654  1.00  0.00     0.156 A 
HETATM   20  N   UNL     1      43.545 -17.150   3.377  1.00  0.00    -0.166 NA
HETATM   21  N   UNL     1      44.005 -18.216   2.664  1.00  0.00    -0.242 N 
HETATM   22  C   UNL     1      44.276 -19.467   3.164  1.00  0.00     0.272 A 
HETATM   23  H   UNL     1      44.139 -18.079   1.666  1.00  0.00     0.192 HD
HETATM   24  O   UNL     1      44.683 -20.381   2.455  1.00  0.00    -0.266 OA
HETATM   25  C   UNL     1      44.066 -19.649   4.610  1.00  0.00     0.046 A 
HETATM   26  C   UNL     1      43.597 -18.580   5.371  1.00  0.00     0.016 A 
HETATM   27  C   UNL     1      44.352 -20.882   5.210  1.00  0.00     0.018 A 
HETATM   28  C   UNL     1      43.430 -18.744   6.752  1.00  0.00     0.015 A 
HETATM   29  C   UNL     1      43.715 -19.974   7.352  1.00  0.00     0.001 A 
HETATM   30  C   UNL     1      44.174 -21.042   6.583  1.00  0.00     0.001 A 
ENDBRANCH   2  19
TORSDOF 5
ENDMDL
MODEL 9
REMARK VINA RESULT:      -8.7      5.860     10.017
REMARK  5 active torsions:
REMARK  status: ('A' for Active; 'I' for Inactive)
REMARK    1  A    between atoms: C_4  and  C_5 
REMARK    2  A    between atoms: C_5  and  O_6 
REMARK    3  A    between atoms: O_6  and  C_7 
REMARK    4  A    between atoms: C_10  and  N_11 
REMARK       I    between atoms: N_11  and  C_12 
REMARK    5  A    between atoms: C_12  and  C_13 
ROOT
HETATM    1  N   UNL     1      42.325 -16.101   1.424  1.00  0.00    -0.322 N 
HETATM    2  C   UNL     1      41.660 -16.818   2.395  1.00  0.00     0.277 C 
HETATM    3  O   UNL     1      40.463 -17.019   2.511  1.00  0.00    -0.266 OA
HETATM    4  H   UNL     1      43.336 -16.202   1.439  1.00  0.00     0.169 HD
ENDROOT
BRANCH   1   5
HETATM    5  C   UNL     1      41.766 -15.278   0.432  1.00  0.00     0.035 A 
HETATM    6  C   UNL     1      41.654 -13.893   0.549  1.00  0.00     0.032 A 
HETATM    7  C   UNL     1      41.168 -13.133  -0.520  1.00  0.00     0.039 A 
HETATM    8  C   UNL     1      40.797 -13.745  -1.718  1.00  0.00     0.069 A 
HETATM    9  C   UNL     1      40.854 -15.133  -1.821  1.00  0.00     0.039 A 
HETATM   10  C   UNL     1      41.346 -15.894  -0.753  1.00  0.00     0.032 A 
BRANCH   8  11
HETATM   11  O   UNL     1      40.390 -12.891  -2.703  1.00  0.00    -0.347 OA
BRANCH  11  12
HETATM   12  C   UNL     1      41.325 -12.657  -3.760  1.00  0.00     0.214 C 
BRANCH  12  13
HETATM   13  C   UNL     1      41.731 -11.199  -3.772  1.00  0.00    -0.034 A 
HETATM   14  C   UNL     1      41.332 -10.370  -4.832  1.00  0.00     0.009 A 
HETATM   15  C   UNL     1      41.690  -9.020  -4.852  1.00  0.00     0.001 A 
HETATM   16  C   UNL     1      42.439  -8.482  -3.808  1.00  0.00     0.000 A 
HETATM   17  C   UNL     1      42.825  -9.290  -2.741  1.00  0.00     0.001 A 
HETATM   18  C   UNL     1      42.467 -10.639  -2.718  1.00  0.00     0.009 A 
ENDBRANCH  12  13
ENDBRANCH  11  12
ENDBRANCH   8  11
ENDBRANCH   1   5
BRANCH   2  19
HETATM   19  C   UNL     1      42.629 -17.406   3.421  1.00  0.00     0.156 A 
HETATM   20  N   UNL     1      42.800 -16.702   4.507  1.00  0.00    -0.166 NA
HETATM   21  N   UNL     1      43.639 -17.195   5.461  1.00  0.00    -0.242 N 
HETATM   22  C   UNL     1      44.332 -18.379   5.395  1.00  0.00     0.272 A 
HETATM   23  H   UNL     1      43.783 -16.621   6.287  1.00  0.00     0.192 HD
HETATM   24  O   UNL     1      45.077 -18.752   6.294  1.00  0.00    -0.266 OA
HETATM   25  C   UNL     1      44.120 -19.190   4.184  1.00  0.00     0.046 A 
HETATM   26  C   UNL     1      43.267 -18.719   3.188  1.00  0.00     0.016 A 
HETATM   27  C   UNL     1      44.758 -20.430   4.050  1.00  0.00     0.018 A 
HETATM   28  C   UNL     1      43.037 -19.507   2.053  1.00  0.00     0.015 A 
HETATM   29  C   UNL     1      43.675 -20.744   1.918  1.00  0.00     0.001 A 
HETATM   30  C   UNL     1      44.535 -21.205   2.913  1.00  0.00     0.001 A 
ENDBRANCH   2  19
TORSDOF 5
ENDMDL
MODEL 10
REMARK VINA RESULT:      -8.4      5.858      9.912
REMARK  5 active torsions:
REMARK  status: ('A' for Active; 'I' for Inactive)
REMARK    1  A    between atoms: C_4  and  C_5 
REMARK    2  A    between atoms: C_5  and  O_6 
REMARK    3  A    between atoms: O_6  and  C_7 
REMARK    4  A    between atoms: C_10  and  N_11 
REMARK       I    between atoms: N_11  and  C_12 
REMARK    5  A    between atoms: C_12  and  C_13 
ROOT
HETATM    1  N   UNL     1      42.368 -15.994   1.412  1.00  0.00    -0.322 N 
HETATM    2  C   UNL     1      41.726 -16.797   2.329  1.00  0.00     0.277 C 
HETATM    3  O   UNL     1      40.539 -17.066   2.410  1.00  0.00    -0.266 OA
HETATM    4  H   UNL     1      43.383 -16.043   1.442  1.00  0.00     0.169 HD
ENDROOT
BRANCH   1   5
HETATM    5  C   UNL     1      41.784 -15.148   0.454  1.00  0.00     0.035 A 
HETATM    6  C   UNL     1      41.197 -15.607  -0.725  1.00  0.00     0.032 A 
HETATM    7  C   UNL     1      40.557 -14.710  -1.587  1.00  0.00     0.039 A 
HETATM    8  C   UNL     1      40.490 -13.351  -1.279  1.00  0.00     0.069 A 
HETATM    9  C   UNL     1      41.123 -12.880  -0.131  1.00  0.00     0.039 A 
HETATM   10  C   UNL     1      41.759 -13.777   0.735  1.00  0.00     0.032 A 
BRANCH   8  11
HETATM   11  O   UNL     1      39.792 -12.588  -2.172  1.00  0.00    -0.347 OA
BRANCH  11  12
HETATM   12  C   UNL     1      38.480 -13.049  -2.506  1.00  0.00     0.214 C 
BRANCH  12  13
HETATM   13  C   UNL     1      37.453 -12.333  -1.656  1.00  0.00    -0.034 A 
HETATM   14  C   UNL     1      37.397 -12.575  -0.275  1.00  0.00     0.009 A 
HETATM   15  C   UNL     1      36.462 -11.915   0.525  1.00  0.00     0.001 A 
HETATM   16  C   UNL     1      35.581 -10.998  -0.044  1.00  0.00     0.000 A 
HETATM   17  C   UNL     1      35.639 -10.735  -1.411  1.00  0.00     0.001 A 
HETATM   18  C   UNL     1      36.574 -11.393  -2.212  1.00  0.00     0.009 A 
ENDBRANCH  12  13
ENDBRANCH  11  12
ENDBRANCH   8  11
ENDBRANCH   1   5
BRANCH   2  19
HETATM   19  C   UNL     1      42.707 -17.388   3.341  1.00  0.00     0.156 A 
HETATM   20  N   UNL     1      42.919 -16.671   4.411  1.00  0.00    -0.166 NA
HETATM   21  N   UNL     1      43.770 -17.166   5.352  1.00  0.00    -0.242 N 
HETATM   22  C   UNL     1      44.436 -18.366   5.290  1.00  0.00     0.272 A 
HETATM   23  H   UNL     1      43.946 -16.583   6.166  1.00  0.00     0.192 HD
HETATM   24  O   UNL     1      45.195 -18.741   6.178  1.00  0.00    -0.266 OA
HETATM   25  C   UNL     1      44.177 -19.192   4.099  1.00  0.00     0.046 A 
HETATM   26  C   UNL     1      43.311 -18.719   3.115  1.00  0.00     0.016 A 
HETATM   27  C   UNL     1      44.786 -20.448   3.970  1.00  0.00     0.018 A 
HETATM   28  C   UNL     1      43.037 -19.520   2.000  1.00  0.00     0.015 A 
HETATM   29  C   UNL     1      43.645 -20.773   1.870  1.00  0.00     0.001 A 
HETATM   30  C   UNL     1      44.519 -21.236   2.852  1.00  0.00     0.001 A 
ENDBRANCH   2  19
TORSDOF 5
ENDMDL
