MODEL 1
REMARK VINA RESULT:      -9.3      0.000      0.000
REMARK  6 active torsions:
REMARK  status: ('A' for Active; 'I' for Inactive)
REMARK    1  A    between atoms: C_3  and  C_4 
REMARK    2  A    between atoms: C_4  and  N_5 
REMARK       I    between atoms: N_5  and  C_6 
REMARK    3  A    between atoms: C_6  and  C_7 
REMARK    4  A    between atoms: C_10  and  C_11 
REMARK    5  A    between atoms: C_11  and  N_12 
REMARK    6  A    between atoms: N_12  and  C_13 
ROOT
HETATM    1  C   UNL     1      41.877 -13.395   4.894  1.00  0.00     0.032 A 
HETATM    2  C   UNL     1      40.948 -14.426   5.082  1.00  0.00     0.017 A 
HETATM    3  C   UNL     1      41.074 -15.619   4.364  1.00  0.00     0.010 A 
HETATM    4  C   UNL     1      42.130 -15.799   3.457  1.00  0.00    -0.041 A 
HETATM    5  C   UNL     1      43.040 -14.752   3.254  1.00  0.00     0.010 A 
HETATM    6  C   UNL     1      42.912 -13.557   3.966  1.00  0.00     0.017 A 
ENDROOT
BRANCH   4   7
HETATM    7  C   UNL     1      42.255 -17.089   2.680  1.00  0.00     0.160 C 
BRANCH   7   8
HETATM    8  N   UNL     1      43.585 -17.641   2.871  1.00  0.00    -0.370 N 
HETATM    9  H   UNL     1      44.322 -17.005   2.593  1.00  0.00     0.161 HD
BRANCH   8  10
HETATM   10  C   UNL     1      43.855 -18.500   3.918  1.00  0.00     0.139 A 
HETATM   11  N   UNL     1      43.855 -18.036   5.136  1.00  0.00    -0.202 NA
HETATM   12  C   UNL     1      44.144 -18.837   6.209  1.00  0.00     0.200 A 
HETATM   13  S   UNL     1      44.146 -18.282   7.794  1.00  0.00    -0.039 SA
HETATM   14  N   UNL     1      44.463 -20.153   6.004  1.00  0.00    -0.331 N 
HETATM   15  C   UNL     1      44.465 -20.727   4.736  1.00  0.00     0.048 A 
HETATM   16  H   UNL     1      44.673 -20.705   6.824  1.00  0.00     0.168 HD
HETATM   17  C   UNL     1      44.147 -19.935   3.636  1.00  0.00     0.036 A 
HETATM   18  C   UNL     1      44.767 -22.080   4.580  1.00  0.00     0.030 A 
HETATM   19  C   UNL     1      44.103 -20.505   2.360  1.00  0.00     0.017 A 
HETATM   20  C   UNL     1      44.403 -21.861   2.198  1.00  0.00     0.001 A 
HETATM   21  C   UNL     1      44.739 -22.644   3.304  1.00  0.00     0.002 A 
ENDBRANCH   8  10
ENDBRANCH   7   8
ENDBRANCH   4   7
BRANCH   1  22
HETATM   22  C   UNL     1      41.784 -12.106   5.630  1.00  0.00     0.251 C 
HETATM   23  N   UNL     1      42.038 -12.156   6.983  1.00  0.00    -0.353 N 
HETATM   24  H   UNL     1      42.395 -13.005   7.399  1.00  0.00     0.163 HD
HETATM   25  O   UNL     1      41.530 -11.074   5.020  1.00  0.00    -0.268 OA
BRANCH  23  26
HETATM   26  C   UNL     1      42.018 -10.966   7.809  1.00  0.00     0.163 C 
BRANCH  26  27
HETATM   27  C   UNL     1      42.997 -10.980   8.964  1.00  0.00    -0.019 A 
HETATM   28  C   UNL     1      44.197 -11.713   8.915  1.00  0.00     0.010 A 
HETATM   29  C   UNL     1      45.101 -11.695   9.982  1.00  0.00     0.001 A 
HETATM   30  C   UNL     1      44.831 -10.933  11.114  1.00  0.00     0.002 A 
HETATM   31  C   UNL     1      43.657 -10.186  11.179  1.00  0.00     0.024 A 
HETATM   32  C   UNL     1      42.750 -10.205  10.114  1.00  0.00     0.042 A 
HETATM   33 CL   UNL     1      41.326  -9.235  10.269  1.00  0.00    -0.084 Cl
ENDBRANCH  26  27
ENDBRANCH  23  26
ENDBRANCH   1  22
TORSDOF 6
ENDMDL
MODEL 2
REMARK VINA RESULT:      -9.3      1.083      1.556
REMARK  6 active torsions:
REMARK  status: ('A' for Active; 'I' for Inactive)
REMARK    1  A    between atoms: C_3  and  C_4 
REMARK    2  A    between atoms: C_4  and  N_5 
REMARK       I    between atoms: N_5  and  C_6 
REMARK    3  A    between atoms: C_6  and  C_7 
REMARK    4  A    between atoms: C_10  and  C_11 
REMARK    5  A    between atoms: C_11  and  N_12 
REMARK    6  A    between atoms: N_12  and  C_13 
ROOT
HETATM    1  C   UNL     1      41.272 -12.982   5.774  1.00  0.00     0.032 A 
HETATM    2  C   UNL     1      42.419 -13.175   4.995  1.00  0.00     0.017 A 
HETATM    3  C   UNL     1      42.542 -14.325   4.209  1.00  0.00     0.010 A 
HETATM    4  C   UNL     1      41.523 -15.290   4.187  1.00  0.00    -0.041 A 
HETATM    5  C   UNL     1      40.390 -15.102   4.991  1.00  0.00     0.010 A 
HETATM    6  C   UNL     1      40.267 -13.956   5.782  1.00  0.00     0.017 A 
ENDROOT
BRANCH   4   7
HETATM    7  C   UNL     1      41.668 -16.532   3.340  1.00  0.00     0.160 C 
BRANCH   7   8
HETATM    8  N   UNL     1      43.057 -16.954   3.334  1.00  0.00    -0.370 N 
HETATM    9  H   UNL     1      43.702 -16.193   3.164  1.00  0.00     0.161 HD
BRANCH   8  10
HETATM   10  C   UNL     1      43.492 -17.981   4.149  1.00  0.00     0.139 A 
HETATM   11  N   UNL     1      43.629 -17.762   5.427  1.00  0.00    -0.202 NA
HETATM   12  C   UNL     1      44.084 -18.734   6.277  1.00  0.00     0.200 A 
HETATM   13  S   UNL     1      44.266 -18.497   7.929  1.00  0.00    -0.039 SA
HETATM   14  N   UNL     1      44.427 -19.963   5.777  1.00  0.00    -0.331 N 
HETATM   15  C   UNL     1      44.290 -20.280   4.429  1.00  0.00     0.048 A 
HETATM   16  H   UNL     1      44.762 -20.648   6.441  1.00  0.00     0.168 HD
HETATM   17  C   UNL     1      43.803 -19.312   3.554  1.00  0.00     0.036 A 
HETATM   18  C   UNL     1      44.624 -21.554   3.971  1.00  0.00     0.030 A 
HETATM   19  C   UNL     1      43.619 -19.627   2.204  1.00  0.00     0.017 A 
HETATM   20  C   UNL     1      43.950 -20.904   1.741  1.00  0.00     0.001 A 
HETATM   21  C   UNL     1      44.455 -21.862   2.622  1.00  0.00     0.002 A 
ENDBRANCH   8  10
ENDBRANCH   7   8
ENDBRANCH   4   7
BRANCH   1  22
HETATM   22  C   UNL     1      41.094 -11.778   6.629  1.00  0.00     0.251 C 
HETATM   23  N   UNL     1      42.136 -11.472   7.476  1.00  0.00    -0.353 N 
HETATM   24  H   UNL     1      43.010 -11.973   7.404  1.00  0.00     0.163 HD
HETATM   25  O   UNL     1      40.076 -11.103   6.527  1.00  0.00    -0.268 OA
BRANCH  23  26
HETATM   26  C   UNL     1      42.105 -10.305   8.335  1.00  0.00     0.163 C 
BRANCH  26  27
HETATM   27  C   UNL     1      42.502 -10.568   9.774  1.00  0.00    -0.019 A 
HETATM   28  C   UNL     1      43.825 -10.410  10.223  1.00  0.00     0.010 A 
HETATM   29  C   UNL     1      44.168 -10.634  11.560  1.00  0.00     0.001 A 
HETATM   30  C   UNL     1      43.192 -11.006  12.479  1.00  0.00     0.002 A 
HETATM   31  C   UNL     1      41.872 -11.153  12.061  1.00  0.00     0.024 A 
HETATM   32  C   UNL     1      41.528 -10.932  10.723  1.00  0.00     0.042 A 
HETATM   33 CL   UNL     1      39.862 -11.118  10.292  1.00  0.00    -0.084 Cl
ENDBRANCH  26  27
ENDBRANCH  23  26
ENDBRANCH   1  22
TORSDOF 6
ENDMDL
MODEL 3
REMARK VINA RESULT:      -9.0      5.634      9.505
REMARK  6 active torsions:
REMARK  status: ('A' for Active; 'I' for Inactive)
REMARK    1  A    between atoms: C_3  and  C_4 
REMARK    2  A    between atoms: C_4  and  N_5 
REMARK       I    between atoms: N_5  and  C_6 
REMARK    3  A    between atoms: C_6  and  C_7 
REMARK    4  A    between atoms: C_10  and  C_11 
REMARK    5  A    between atoms: C_11  and  N_12 
REMARK    6  A    between atoms: N_12  and  C_13 
ROOT
HETATM    1  C   UNL     1      41.598 -15.936   3.495  1.00  0.00     0.032 A 
HETATM    2  C   UNL     1      40.986 -14.727   3.844  1.00  0.00     0.017 A 
HETATM    3  C   UNL     1      39.891 -14.262   3.109  1.00  0.00     0.010 A 
HETATM    4  C   UNL     1      39.393 -15.000   2.024  1.00  0.00    -0.041 A 
HETATM    5  C   UNL     1      40.029 -16.196   1.664  1.00  0.00     0.010 A 
HETATM    6  C   UNL     1      41.126 -16.660   2.394  1.00  0.00     0.017 A 
ENDROOT
BRANCH   4   7
HETATM    7  C   UNL     1      38.213 -14.487   1.231  1.00  0.00     0.160 C 
BRANCH   7   8
HETATM    8  N   UNL     1      38.635 -13.370   0.405  1.00  0.00    -0.370 N 
HETATM    9  H   UNL     1      39.207 -12.700   0.905  1.00  0.00     0.161 HD
BRANCH   8  10
HETATM   10  C   UNL     1      38.892 -13.538  -0.942  1.00  0.00     0.139 A 
HETATM   11  N   UNL     1      37.939 -13.967  -1.721  1.00  0.00    -0.202 NA
HETATM   12  C   UNL     1      38.146 -14.178  -3.058  1.00  0.00     0.200 A 
HETATM   13  S   UNL     1      36.944 -14.721  -4.098  1.00  0.00    -0.039 SA
HETATM   14  N   UNL     1      39.387 -13.958  -3.593  1.00  0.00    -0.331 N 
HETATM   15  C   UNL     1      40.450 -13.481  -2.832  1.00  0.00     0.048 A 
HETATM   16  H   UNL     1      39.495 -14.132  -4.583  1.00  0.00     0.168 HD
HETATM   17  C   UNL     1      40.251 -13.234  -1.475  1.00  0.00     0.036 A 
HETATM   18  C   UNL     1      41.688 -13.243  -3.427  1.00  0.00     0.030 A 
HETATM   19  C   UNL     1      41.295 -12.714  -0.704  1.00  0.00     0.017 A 
HETATM   20  C   UNL     1      42.538 -12.472  -1.297  1.00  0.00     0.001 A 
HETATM   21  C   UNL     1      42.734 -12.740  -2.653  1.00  0.00     0.002 A 
ENDBRANCH   8  10
ENDBRANCH   7   8
ENDBRANCH   4   7
BRANCH   1  22
HETATM   22  C   UNL     1      42.767 -16.472   4.242  1.00  0.00     0.251 C 
HETATM   23  N   UNL     1      42.973 -17.831   4.162  1.00  0.00    -0.353 N 
HETATM   24  H   UNL     1      42.427 -18.388   3.519  1.00  0.00     0.163 HD
HETATM   25  O   UNL     1      43.503 -15.705   4.852  1.00  0.00    -0.268 OA
BRANCH  23  26
HETATM   26  C   UNL     1      44.097 -18.474   4.813  1.00  0.00     0.163 C 
BRANCH  26  27
HETATM   27  C   UNL     1      44.329 -19.913   4.399  1.00  0.00    -0.019 A 
HETATM   28  C   UNL     1      44.580 -20.928   5.339  1.00  0.00     0.010 A 
HETATM   29  C   UNL     1      44.769 -22.255   4.940  1.00  0.00     0.001 A 
HETATM   30  C   UNL     1      44.697 -22.597   3.593  1.00  0.00     0.002 A 
HETATM   31  C   UNL     1      44.433 -21.612   2.645  1.00  0.00     0.024 A 
HETATM   32  C   UNL     1      44.247 -20.283   3.043  1.00  0.00     0.042 A 
HETATM   33 CL   UNL     1      43.906 -19.126   1.802  1.00  0.00    -0.084 Cl
ENDBRANCH  26  27
ENDBRANCH  23  26
ENDBRANCH   1  22
TORSDOF 6
ENDMDL
MODEL 4
REMARK VINA RESULT:      -9.0      2.351      3.193
REMARK  6 active torsions:
REMARK  status: ('A' for Active; 'I' for Inactive)
REMARK    1  A    between atoms: C_3  and  C_4 
REMARK    2  A    between atoms: C_4  and  N_5 
REMARK       I    between atoms: N_5  and  C_6 
REMARK    3  A    between atoms: C_6  and  C_7 
REMARK    4  A    between atoms: C_10  and  C_11 
REMARK    5  A    between atoms: C_11  and  N_12 
REMARK    6  A    between atoms: N_12  and  C_13 
ROOT
HETATM    1  C   UNL     1      40.110 -11.737   6.825  1.00  0.00     0.032 A 
HETATM    2  C   UNL     1      39.415 -12.872   6.391  1.00  0.00     0.017 A 
HETATM    3  C   UNL     1      39.879 -13.594   5.287  1.00  0.00     0.010 A 
HETATM    4  C   UNL     1      41.041 -13.195   4.608  1.00  0.00    -0.041 A 
HETATM    5  C   UNL     1      41.716 -12.042   5.033  1.00  0.00     0.010 A 
HETATM    6  C   UNL     1      41.251 -11.316   6.132  1.00  0.00     0.017 A 
ENDROOT
BRANCH   4   7
HETATM    7  C   UNL     1      41.531 -13.977   3.412  1.00  0.00     0.160 C 
BRANCH   7   8
HETATM    8  N   UNL     1      42.880 -14.451   3.664  1.00  0.00    -0.370 N 
HETATM    9  H   UNL     1      43.522 -13.709   3.911  1.00  0.00     0.161 HD
BRANCH   8  10
HETATM   10  C   UNL     1      43.103 -15.693   4.227  1.00  0.00     0.139 A 
HETATM   11  N   UNL     1      43.065 -15.817   5.524  1.00  0.00    -0.202 NA
HETATM   12  C   UNL     1      43.307 -17.018   6.137  1.00  0.00     0.200 A 
HETATM   13  S   UNL     1      43.258 -17.224   7.803  1.00  0.00    -0.039 SA
HETATM   14  N   UNL     1      43.620 -18.114   5.378  1.00  0.00    -0.331 N 
HETATM   15  C   UNL     1      43.662 -18.066   3.988  1.00  0.00     0.048 A 
HETATM   16  H   UNL     1      43.796 -18.977   5.873  1.00  0.00     0.168 HD
HETATM   17  C   UNL     1      43.391 -16.860   3.345  1.00  0.00     0.036 A 
HETATM   18  C   UNL     1      43.956 -19.215   3.255  1.00  0.00     0.030 A 
HETATM   19  C   UNL     1      43.386 -16.804   1.948  1.00  0.00     0.017 A 
HETATM   20  C   UNL     1      43.678 -17.955   1.209  1.00  0.00     0.001 A 
HETATM   21  C   UNL     1      43.967 -19.155   1.862  1.00  0.00     0.002 A 
ENDBRANCH   8  10
ENDBRANCH   7   8
ENDBRANCH   4   7
BRANCH   1  22
HETATM   22  C   UNL     1      39.657 -10.934   7.992  1.00  0.00     0.251 C 
HETATM   23  N   UNL     1      40.345 -11.125   9.169  1.00  0.00    -0.353 N 
HETATM   24  H   UNL     1      41.187 -11.682   9.178  1.00  0.00     0.163 HD
HETATM   25  O   UNL     1      38.742 -10.130   7.858  1.00  0.00    -0.268 OA
BRANCH  23  26
HETATM   26  C   UNL     1      40.028 -10.377  10.370  1.00  0.00     0.163 C 
BRANCH  26  27
HETATM   27  C   UNL     1      41.193 -10.178  11.318  1.00  0.00    -0.019 A 
HETATM   28  C   UNL     1      42.182  -9.205  11.089  1.00  0.00     0.010 A 
HETATM   29  C   UNL     1      43.237  -9.019  11.988  1.00  0.00     0.001 A 
HETATM   30  C   UNL     1      43.318  -9.794  13.140  1.00  0.00     0.002 A 
HETATM   31  C   UNL     1      42.342 -10.754  13.396  1.00  0.00     0.024 A 
HETATM   32  C   UNL     1      41.287 -10.942  12.497  1.00  0.00     0.042 A 
HETATM   33 CL   UNL     1      40.107 -12.142  12.900  1.00  0.00    -0.084 Cl
ENDBRANCH  26  27
ENDBRANCH  23  26
ENDBRANCH   1  22
TORSDOF 6
ENDMDL
MODEL 5
REMARK VINA RESULT:      -8.8      5.491      9.155
REMARK  6 active torsions:
REMARK  status: ('A' for Active; 'I' for Inactive)
REMARK    1  A    between atoms: C_3  and  C_4 
REMARK    2  A    between atoms: C_4  and  N_5 
REMARK       I    between atoms: N_5  and  C_6 
REMARK    3  A    between atoms: C_6  and  C_7 
REMARK    4  A    between atoms: C_10  and  C_11 
REMARK    5  A    between atoms: C_11  and  N_12 
REMARK    6  A    between atoms: N_12  and  C_13 
ROOT
HETATM    1  C   UNL     1      40.281 -14.604   3.138  1.00  0.00     0.032 A 
HETATM    2  C   UNL     1      40.006 -13.232   3.124  1.00  0.00     0.017 A 
HETATM    3  C   UNL     1      39.050 -12.721   2.242  1.00  0.00     0.010 A 
HETATM    4  C   UNL     1      38.355 -13.572   1.368  1.00  0.00    -0.041 A 
HETATM    5  C   UNL     1      38.657 -14.942   1.369  1.00  0.00     0.010 A 
HETATM    6  C   UNL     1      39.616 -15.453   2.247  1.00  0.00     0.017 A 
ENDROOT
BRANCH   4   7
HETATM    7  C   UNL     1      37.329 -13.011   0.413  1.00  0.00     0.160 C 
BRANCH   7   8
HETATM    8  N   UNL     1      38.003 -12.299  -0.658  1.00  0.00    -0.370 N 
HETATM    9  H   UNL     1      38.190 -11.329  -0.433  1.00  0.00     0.161 HD
BRANCH   8  10
HETATM   10  C   UNL     1      38.907 -12.942  -1.481  1.00  0.00     0.139 A 
HETATM   11  N   UNL     1      38.496 -13.932  -2.223  1.00  0.00    -0.202 NA
HETATM   12  C   UNL     1      39.354 -14.623  -3.036  1.00  0.00     0.200 A 
HETATM   13  S   UNL     1      38.866 -15.898  -4.014  1.00  0.00    -0.039 SA
HETATM   14  N   UNL     1      40.682 -14.286  -3.060  1.00  0.00    -0.331 N 
HETATM   15  C   UNL     1      41.193 -13.230  -2.312  1.00  0.00     0.048 A 
HETATM   16  H   UNL     1      41.279 -14.826  -3.671  1.00  0.00     0.168 HD
HETATM   17  C   UNL     1      40.330 -12.498  -1.500  1.00  0.00     0.036 A 
HETATM   18  C   UNL     1      42.547 -12.905  -2.391  1.00  0.00     0.030 A 
HETATM   19  C   UNL     1      40.818 -11.406  -0.775  1.00  0.00     0.017 A 
HETATM   20  C   UNL     1      42.174 -11.075  -0.853  1.00  0.00     0.001 A 
HETATM   21  C   UNL     1      43.036 -11.826  -1.655  1.00  0.00     0.002 A 
ENDBRANCH   8  10
ENDBRANCH   7   8
ENDBRANCH   4   7
BRANCH   1  22
HETATM   22  C   UNL     1      41.292 -15.196   4.055  1.00  0.00     0.251 C 
HETATM   23  N   UNL     1      41.974 -16.296   3.584  1.00  0.00    -0.353 N 
HETATM   24  H   UNL     1      41.870 -16.580   2.620  1.00  0.00     0.163 HD
HETATM   25  O   UNL     1      41.501 -14.679   5.146  1.00  0.00    -0.268 OA
BRANCH  23  26
HETATM   26  C   UNL     1      43.010 -16.944   4.363  1.00  0.00     0.163 C 
BRANCH  26  27
HETATM   27  C   UNL     1      43.452 -18.292   3.830  1.00  0.00    -0.019 A 
HETATM   28  C   UNL     1      42.988 -18.797   2.602  1.00  0.00     0.010 A 
HETATM   29  C   UNL     1      43.425 -20.033   2.115  1.00  0.00     0.001 A 
HETATM   30  C   UNL     1      44.347 -20.783   2.839  1.00  0.00     0.002 A 
HETATM   31  C   UNL     1      44.834 -20.296   4.049  1.00  0.00     0.024 A 
HETATM   32  C   UNL     1      44.395 -19.061   4.539  1.00  0.00     0.042 A 
HETATM   33 CL   UNL     1      45.063 -18.522   6.042  1.00  0.00    -0.084 Cl
ENDBRANCH  26  27
ENDBRANCH  23  26
ENDBRANCH   1  22
TORSDOF 6
ENDMDL
MODEL 6
REMARK VINA RESULT:      -8.8      3.856      9.657
REMARK  6 active torsions:
REMARK  status: ('A' for Active; 'I' for Inactive)
REMARK    1  A    between atoms: C_3  and  C_4 
REMARK    2  A    between atoms: C_4  and  N_5 
REMARK       I    between atoms: N_5  and  C_6 
REMARK    3  A    between atoms: C_6  and  C_7 
REMARK    4  A    between atoms: C_10  and  C_11 
REMARK    5  A    between atoms: C_11  and  N_12 
REMARK    6  A    between atoms: N_12  and  C_13 
ROOT
HETATM    1  C   UNL     1      41.818 -15.760   4.016  1.00  0.00     0.032 A 
HETATM    2  C   UNL     1      40.518 -15.242   4.000  1.00  0.00     0.017 A 
HETATM    3  C   UNL     1      40.225 -14.072   4.707  1.00  0.00     0.010 A 
HETATM    4  C   UNL     1      41.225 -13.404   5.430  1.00  0.00    -0.041 A 
HETATM    5  C   UNL     1      42.518 -13.944   5.463  1.00  0.00     0.010 A 
HETATM    6  C   UNL     1      42.812 -15.116   4.762  1.00  0.00     0.017 A 
ENDROOT
BRANCH   4   7
HETATM    7  C   UNL     1      40.898 -12.143   6.196  1.00  0.00     0.160 C 
BRANCH   7   8
HETATM    8  N   UNL     1      42.081 -11.688   6.905  1.00  0.00    -0.370 N 
HETATM    9  H   UNL     1      42.836 -11.419   6.286  1.00  0.00     0.161 HD
BRANCH   8  10
HETATM   10  C   UNL     1      41.975 -11.007   8.102  1.00  0.00     0.139 A 
HETATM   11  N   UNL     1      40.887 -10.334   8.355  1.00  0.00    -0.202 NA
HETATM   12  C   UNL     1      40.740  -9.618   9.513  1.00  0.00     0.200 A 
HETATM   13  S   UNL     1      39.354  -8.746   9.883  1.00  0.00    -0.039 SA
HETATM   14  N   UNL     1      41.764  -9.586  10.423  1.00  0.00    -0.331 N 
HETATM   15  C   UNL     1      42.947 -10.293  10.234  1.00  0.00     0.048 A 
HETATM   16  H   UNL     1      41.612  -9.041  11.261  1.00  0.00     0.168 HD
HETATM   17  C   UNL     1      43.104 -11.049   9.075  1.00  0.00     0.036 A 
HETATM   18  C   UNL     1      43.950 -10.253  11.202  1.00  0.00     0.030 A 
HETATM   19  C   UNL     1      44.269 -11.800   8.889  1.00  0.00     0.017 A 
HETATM   20  C   UNL     1      45.276 -11.765   9.858  1.00  0.00     0.001 A 
HETATM   21  C   UNL     1      45.118 -10.990  11.008  1.00  0.00     0.002 A 
ENDBRANCH   8  10
ENDBRANCH   7   8
ENDBRANCH   4   7
BRANCH   1  22
HETATM   22  C   UNL     1      42.180 -17.004   3.284  1.00  0.00     0.251 C 
HETATM   23  N   UNL     1      43.500 -17.389   3.350  1.00  0.00    -0.353 N 
HETATM   24  H   UNL     1      44.135 -16.912   3.975  1.00  0.00     0.163 HD
HETATM   25  O   UNL     1      41.311 -17.640   2.699  1.00  0.00    -0.268 OA
BRANCH  23  26
HETATM   26  C   UNL     1      43.976 -18.601   2.713  1.00  0.00     0.163 C 
BRANCH  26  27
HETATM   27  C   UNL     1      44.220 -19.759   3.659  1.00  0.00    -0.019 A 
HETATM   28  C   UNL     1      44.228 -19.592   5.055  1.00  0.00     0.010 A 
HETATM   29  C   UNL     1      44.431 -20.678   5.913  1.00  0.00     0.001 A 
HETATM   30  C   UNL     1      44.616 -21.955   5.393  1.00  0.00     0.002 A 
HETATM   31  C   UNL     1      44.597 -22.147   4.014  1.00  0.00     0.024 A 
HETATM   32  C   UNL     1      44.396 -21.062   3.154  1.00  0.00     0.042 A 
HETATM   33 CL   UNL     1      44.368 -21.391   1.456  1.00  0.00    -0.084 Cl
ENDBRANCH  26  27
ENDBRANCH  23  26
ENDBRANCH   1  22
TORSDOF 6
ENDMDL
MODEL 7
REMARK VINA RESULT:      -8.7      6.262      9.452
REMARK  6 active torsions:
REMARK  status: ('A' for Active; 'I' for Inactive)
REMARK    1  A    between atoms: C_3  and  C_4 
REMARK    2  A    between atoms: C_4  and  N_5 
REMARK       I    between atoms: N_5  and  C_6 
REMARK    3  A    between atoms: C_6  and  C_7 
REMARK    4  A    between atoms: C_10  and  C_11 
REMARK    5  A    between atoms: C_11  and  N_12 
REMARK    6  A    between atoms: N_12  and  C_13 
ROOT
HETATM    1  C   UNL     1      40.722 -14.573   2.948  1.00  0.00     0.032 A 
HETATM    2  C   UNL     1      40.778 -13.201   2.673  1.00  0.00     0.017 A 
HETATM    3  C   UNL     1      39.771 -12.601   1.910  1.00  0.00     0.010 A 
HETATM    4  C   UNL     1      38.698 -13.360   1.419  1.00  0.00    -0.041 A 
HETATM    5  C   UNL     1      38.664 -14.738   1.675  1.00  0.00     0.010 A 
HETATM    6  C   UNL     1      39.671 -15.341   2.433  1.00  0.00     0.017 A 
ENDROOT
BRANCH   4   7
HETATM    7  C   UNL     1      37.618 -12.705   0.589  1.00  0.00     0.160 C 
BRANCH   7   8
HETATM    8  N   UNL     1      38.202 -12.165  -0.625  1.00  0.00    -0.370 N 
HETATM    9  H   UNL     1      39.084 -11.692  -0.466  1.00  0.00     0.161 HD
BRANCH   8  10
HETATM   10  C   UNL     1      38.040 -12.804  -1.839  1.00  0.00     0.139 A 
HETATM   11  N   UNL     1      37.061 -12.443  -2.620  1.00  0.00    -0.202 NA
HETATM   12  C   UNL     1      36.836 -13.062  -3.821  1.00  0.00     0.200 A 
HETATM   13  S   UNL     1      35.593 -12.622  -4.861  1.00  0.00    -0.039 SA
HETATM   14  N   UNL     1      37.641 -14.100  -4.208  1.00  0.00    -0.331 N 
HETATM   15  C   UNL     1      38.717 -14.531  -3.439  1.00  0.00     0.048 A 
HETATM   16  H   UNL     1      37.434 -14.529  -5.099  1.00  0.00     0.168 HD
HETATM   17  C   UNL     1      38.978 -13.896  -2.227  1.00  0.00     0.036 A 
HETATM   18  C   UNL     1      39.527 -15.573  -3.888  1.00  0.00     0.030 A 
HETATM   19  C   UNL     1      40.082 -14.287  -1.462  1.00  0.00     0.017 A 
HETATM   20  C   UNL     1      40.898 -15.330  -1.910  1.00  0.00     0.001 A 
HETATM   21  C   UNL     1      40.618 -15.974  -3.117  1.00  0.00     0.002 A 
ENDBRANCH   8  10
ENDBRANCH   7   8
ENDBRANCH   4   7
BRANCH   1  22
HETATM   22  C   UNL     1      41.769 -15.259   3.752  1.00  0.00     0.251 C 
HETATM   23  N   UNL     1      41.542 -16.586   4.044  1.00  0.00    -0.353 N 
HETATM   24  H   UNL     1      40.770 -17.073   3.613  1.00  0.00     0.163 HD
HETATM   25  O   UNL     1      42.779 -14.650   4.082  1.00  0.00    -0.268 OA
BRANCH  23  26
HETATM   26  C   UNL     1      42.501 -17.379   4.788  1.00  0.00     0.163 C 
BRANCH  26  27
HETATM   27  C   UNL     1      43.147 -18.497   3.995  1.00  0.00    -0.019 A 
HETATM   28  C   UNL     1      42.807 -18.753   2.655  1.00  0.00     0.010 A 
HETATM   29  C   UNL     1      43.431 -19.774   1.931  1.00  0.00     0.001 A 
HETATM   30  C   UNL     1      44.418 -20.551   2.529  1.00  0.00     0.002 A 
HETATM   31  C   UNL     1      44.784 -20.306   3.850  1.00  0.00     0.024 A 
HETATM   32  C   UNL     1      44.158 -19.286   4.576  1.00  0.00     0.042 A 
HETATM   33 CL   UNL     1      44.684 -19.036   6.205  1.00  0.00    -0.084 Cl
ENDBRANCH  26  27
ENDBRANCH  23  26
ENDBRANCH   1  22
TORSDOF 6
ENDMDL
MODEL 8
REMARK VINA RESULT:      -8.7      2.216      3.501
REMARK  6 active torsions:
REMARK  status: ('A' for Active; 'I' for Inactive)
REMARK    1  A    between atoms: C_3  and  C_4 
REMARK    2  A    between atoms: C_4  and  N_5 
REMARK       I    between atoms: N_5  and  C_6 
REMARK    3  A    between atoms: C_6  and  C_7 
REMARK    4  A    between atoms: C_10  and  C_11 
REMARK    5  A    between atoms: C_11  and  N_12 
REMARK    6  A    between atoms: N_12  and  C_13 
ROOT
HETATM    1  C   UNL     1      40.474 -12.079   6.323  1.00  0.00     0.032 A 
HETATM    2  C   UNL     1      41.701 -12.206   5.661  1.00  0.00     0.017 A 
HETATM    3  C   UNL     1      41.909 -13.267   4.774  1.00  0.00     0.010 A 
HETATM    4  C   UNL     1      40.894 -14.207   4.534  1.00  0.00    -0.041 A 
HETATM    5  C   UNL     1      39.678 -14.088   5.222  1.00  0.00     0.010 A 
HETATM    6  C   UNL     1      39.471 -13.032   6.112  1.00  0.00     0.017 A 
ENDROOT
BRANCH   4   7
HETATM    7  C   UNL     1      41.129 -15.354   3.579  1.00  0.00     0.160 C 
BRANCH   7   8
HETATM    8  N   UNL     1      40.934 -16.612   4.278  1.00  0.00    -0.370 N 
HETATM    9  H   UNL     1      39.992 -16.973   4.190  1.00  0.00     0.161 HD
BRANCH   8  10
HETATM   10  C   UNL     1      41.957 -17.535   4.379  1.00  0.00     0.139 A 
HETATM   11  N   UNL     1      42.291 -18.231   3.328  1.00  0.00    -0.202 NA
HETATM   12  C   UNL     1      43.277 -19.179   3.380  1.00  0.00     0.200 A 
HETATM   13  S   UNL     1      43.745 -20.089   2.048  1.00  0.00    -0.039 SA
HETATM   14  N   UNL     1      43.918 -19.424   4.565  1.00  0.00    -0.331 N 
HETATM   15  C   UNL     1      43.632 -18.711   5.725  1.00  0.00     0.048 A 
HETATM   16  H   UNL     1      44.636 -20.136   4.556  1.00  0.00     0.168 HD
HETATM   17  C   UNL     1      42.651 -17.724   5.685  1.00  0.00     0.036 A 
HETATM   18  C   UNL     1      44.333 -18.976   6.901  1.00  0.00     0.030 A 
HETATM   19  C   UNL     1      42.381 -16.968   6.830  1.00  0.00     0.017 A 
HETATM   20  C   UNL     1      43.082 -17.228   8.012  1.00  0.00     0.001 A 
HETATM   21  C   UNL     1      44.051 -18.232   8.047  1.00  0.00     0.002 A 
ENDBRANCH   8  10
ENDBRANCH   7   8
ENDBRANCH   4   7
BRANCH   1  22
HETATM   22  C   UNL     1      40.205 -10.971   7.278  1.00  0.00     0.251 C 
HETATM   23  N   UNL     1      40.868 -11.031   8.484  1.00  0.00    -0.353 N 
HETATM   24  H   UNL     1      41.588 -11.724   8.632  1.00  0.00     0.163 HD
HETATM   25  O   UNL     1      39.458 -10.055   6.954  1.00  0.00    -0.268 OA
BRANCH  23  26
HETATM   26  C   UNL     1      40.723  -9.995   9.488  1.00  0.00     0.163 C 
BRANCH  26  27
HETATM   27  C   UNL     1      41.649 -10.135  10.679  1.00  0.00    -0.019 A 
HETATM   28  C   UNL     1      43.048 -10.162  10.536  1.00  0.00     0.010 A 
HETATM   29  C   UNL     1      43.888 -10.267  11.649  1.00  0.00     0.001 A 
HETATM   30  C   UNL     1      43.347 -10.334  12.929  1.00  0.00     0.002 A 
HETATM   31  C   UNL     1      41.965 -10.292  13.097  1.00  0.00     0.024 A 
HETATM   32  C   UNL     1      41.123 -10.190  11.984  1.00  0.00     0.042 A 
HETATM   33 CL   UNL     1      39.420 -10.126  12.283  1.00  0.00    -0.084 Cl
ENDBRANCH  26  27
ENDBRANCH  23  26
ENDBRANCH   1  22
TORSDOF 6
ENDMDL
MODEL 9
REMARK VINA RESULT:      -8.6      7.002     10.966
REMARK  6 active torsions:
REMARK  status: ('A' for Active; 'I' for Inactive)
REMARK    1  A    between atoms: C_3  and  C_4 
REMARK    2  A    between atoms: C_4  and  N_5 
REMARK       I    between atoms: N_5  and  C_6 
REMARK    3  A    between atoms: C_6  and  C_7 
REMARK    4  A    between atoms: C_10  and  C_11 
REMARK    5  A    between atoms: C_11  and  N_12 
REMARK    6  A    between atoms: N_12  and  C_13 
ROOT
HETATM    1  C   UNL     1      41.536 -15.606   0.346  1.00  0.00     0.032 A 
HETATM    2  C   UNL     1      41.167 -16.291  -0.818  1.00  0.00     0.017 A 
HETATM    3  C   UNL     1      41.035 -15.596  -2.024  1.00  0.00     0.010 A 
HETATM    4  C   UNL     1      41.273 -14.213  -2.082  1.00  0.00    -0.041 A 
HETATM    5  C   UNL     1      41.614 -13.531  -0.906  1.00  0.00     0.010 A 
HETATM    6  C   UNL     1      41.742 -14.223   0.301  1.00  0.00     0.017 A 
ENDROOT
BRANCH   4   7
HETATM    7  C   UNL     1      41.121 -13.468  -3.388  1.00  0.00     0.160 C 
BRANCH   7   8
HETATM    8  N   UNL     1      42.286 -12.629  -3.604  1.00  0.00    -0.370 N 
HETATM    9  H   UNL     1      43.056 -13.122  -4.039  1.00  0.00     0.161 HD
BRANCH   8  10
HETATM   10  C   UNL     1      42.150 -11.286  -3.899  1.00  0.00     0.139 A 
HETATM   11  N   UNL     1      41.571 -10.936  -5.013  1.00  0.00    -0.202 NA
HETATM   12  C   UNL     1      41.436  -9.621  -5.369  1.00  0.00     0.200 A 
HETATM   13  S   UNL     1      40.689  -9.127  -6.790  1.00  0.00    -0.039 SA
HETATM   14  N   UNL     1      41.937  -8.644  -4.550  1.00  0.00    -0.331 N 
HETATM   15  C   UNL     1      42.550  -8.936  -3.336  1.00  0.00     0.048 A 
HETATM   16  H   UNL     1      41.818  -7.688  -4.856  1.00  0.00     0.168 HD
HETATM   17  C   UNL     1      42.673 -10.267  -2.944  1.00  0.00     0.036 A 
HETATM   18  C   UNL     1      43.018  -7.906  -2.521  1.00  0.00     0.030 A 
HETATM   19  C   UNL     1      43.247 -10.576  -1.707  1.00  0.00     0.017 A 
HETATM   20  C   UNL     1      43.716  -9.547  -0.886  1.00  0.00     0.001 A 
HETATM   21  C   UNL     1      43.606  -8.216  -1.295  1.00  0.00     0.002 A 
ENDBRANCH   8  10
ENDBRANCH   7   8
ENDBRANCH   4   7
BRANCH   1  22
HETATM   22  C   UNL     1      41.686 -16.299   1.654  1.00  0.00     0.251 C 
HETATM   23  N   UNL     1      42.945 -16.772   1.953  1.00  0.00    -0.353 N 
HETATM   24  H   UNL     1      43.729 -16.531   1.363  1.00  0.00     0.163 HD
HETATM   25  O   UNL     1      40.726 -16.389   2.409  1.00  0.00    -0.268 OA
BRANCH  23  26
HETATM   26  C   UNL     1      43.235 -17.433   3.210  1.00  0.00     0.163 C 
BRANCH  26  27
HETATM   27  C   UNL     1      43.633 -18.889   3.082  1.00  0.00    -0.019 A 
HETATM   28  C   UNL     1      43.301 -19.656   1.951  1.00  0.00     0.010 A 
HETATM   29  C   UNL     1      43.698 -20.992   1.840  1.00  0.00     0.001 A 
HETATM   30  C   UNL     1      44.446 -21.585   2.852  1.00  0.00     0.002 A 
HETATM   31  C   UNL     1      44.800 -20.842   3.974  1.00  0.00     0.024 A 
HETATM   32  C   UNL     1      44.402 -19.505   4.088  1.00  0.00     0.042 A 
HETATM   33 CL   UNL     1      44.900 -18.648   5.506  1.00  0.00    -0.084 Cl
ENDBRANCH  26  27
ENDBRANCH  23  26
ENDBRANCH   1  22
TORSDOF 6
ENDMDL
MODEL 10
REMARK VINA RESULT:      -8.6      4.731      8.897
REMARK  6 active torsions:
REMARK  status: ('A' for Active; 'I' for Inactive)
REMARK    1  A    between atoms: C_3  and  C_4 
REMARK    2  A    between atoms: C_4  and  N_5 
REMARK       I    between atoms: N_5  and  C_6 
REMARK    3  A    between atoms: C_6  and  C_7 
REMARK    4  A    between atoms: C_10  and  C_11 
REMARK    5  A    between atoms: C_11  and  N_12 
REMARK    6  A    between atoms: N_12  and  C_13 
ROOT
HETATM    1  C   UNL     1      42.483 -16.142   5.893  1.00  0.00     0.032 A 
HETATM    2  C   UNL     1      41.115 -15.941   6.114  1.00  0.00     0.017 A 
HETATM    3  C   UNL     1      40.549 -14.683   5.885  1.00  0.00     0.010 A 
HETATM    4  C   UNL     1      41.339 -13.616   5.429  1.00  0.00    -0.041 A 
HETATM    5  C   UNL     1      42.713 -13.819   5.237  1.00  0.00     0.010 A 
HETATM    6  C   UNL     1      43.281 -15.073   5.470  1.00  0.00     0.017 A 
ENDROOT
BRANCH   4   7
HETATM    7  C   UNL     1      40.721 -12.258   5.190  1.00  0.00     0.160 C 
BRANCH   7   8
HETATM    8  N   UNL     1      39.886 -12.308   4.004  1.00  0.00    -0.370 N 
HETATM    9  H   UNL     1      38.961 -11.924   4.152  1.00  0.00     0.161 HD
BRANCH   8  10
HETATM   10  C   UNL     1      40.433 -12.169   2.743  1.00  0.00     0.139 A 
HETATM   11  N   UNL     1      40.729 -10.976   2.308  1.00  0.00    -0.202 NA
HETATM   12  C   UNL     1      41.246 -10.776   1.056  1.00  0.00     0.200 A 
HETATM   13  S   UNL     1      41.649  -9.258   0.461  1.00  0.00    -0.039 SA
HETATM   14  N   UNL     1      41.439 -11.848   0.226  1.00  0.00    -0.331 N 
HETATM   15  C   UNL     1      41.166 -13.153   0.623  1.00  0.00     0.048 A 
HETATM   16  H   UNL     1      41.818 -11.653  -0.691  1.00  0.00     0.168 HD
HETATM   17  C   UNL     1      40.666 -13.378   1.903  1.00  0.00     0.036 A 
HETATM   18  C   UNL     1      41.408 -14.216  -0.247  1.00  0.00     0.030 A 
HETATM   19  C   UNL     1      40.427 -14.687   2.335  1.00  0.00     0.017 A 
HETATM   20  C   UNL     1      40.669 -15.756   1.467  1.00  0.00     0.001 A 
HETATM   21  C   UNL     1      41.154 -15.520   0.178  1.00  0.00     0.002 A 
ENDBRANCH   8  10
ENDBRANCH   7   8
ENDBRANCH   4   7
BRANCH   1  22
HETATM   22  C   UNL     1      43.133 -17.460   6.125  1.00  0.00     0.251 C 
HETATM   23  N   UNL     1      43.776 -18.022   5.045  1.00  0.00    -0.353 N 
HETATM   24  H   UNL     1      43.899 -17.488   4.196  1.00  0.00     0.163 HD
HETATM   25  O   UNL     1      43.106 -17.963   7.242  1.00  0.00    -0.268 OA
BRANCH  23  26
HETATM   26  C   UNL     1      44.481 -19.284   5.147  1.00  0.00     0.163 C 
BRANCH  26  27
HETATM   27  C   UNL     1      44.322 -20.196   3.948  1.00  0.00    -0.019 A 
HETATM   28  C   UNL     1      43.893 -19.716   2.698  1.00  0.00     0.010 A 
HETATM   29  C   UNL     1      43.775 -20.568   1.595  1.00  0.00     0.001 A 
HETATM   30  C   UNL     1      44.097 -21.916   1.716  1.00  0.00     0.002 A 
HETATM   31  C   UNL     1      44.540 -22.412   2.940  1.00  0.00     0.024 A 
HETATM   32  C   UNL     1      44.655 -21.561   4.045  1.00  0.00     0.042 A 
HETATM   33 CL   UNL     1      45.230 -22.254   5.522  1.00  0.00    -0.084 Cl
ENDBRANCH  26  27
ENDBRANCH  23  26
ENDBRANCH   1  22
TORSDOF 6
ENDMDL
