MODEL 1
REMARK VINA RESULT:      -8.1      0.000      0.000
REMARK  4 active torsions:
REMARK  status: ('A' for Active; 'I' for Inactive)
REMARK    1  A    between atoms: C_9  and  C_10 
REMARK       I    between atoms: C_10  and  N_11 
REMARK    2  A    between atoms: N_11  and  C_12 
REMARK    3  A    between atoms: C_12  and  C_13 
REMARK    4  A    between atoms: C_14  and  O_15 
ROOT
HETATM    1  C   UNL     1      42.942 -16.021   3.665  1.00  0.00     0.273 C 
HETATM    2  N   UNL     1      43.002 -17.368   3.394  1.00  0.00    -0.347 N 
HETATM    3  O   UNL     1      43.717 -15.185   3.213  1.00  0.00    -0.266 OA
HETATM    4  H   UNL     1      42.222 -17.901   3.768  1.00  0.00     0.163 HD
ENDROOT
BRANCH   1   5
HETATM    5  C   UNL     1      41.817 -15.666   4.548  1.00  0.00     0.157 A 
HETATM    6  C   UNL     1      41.257 -14.369   4.756  1.00  0.00     0.029 A 
HETATM    7  C   UNL     1      41.512 -13.066   4.284  1.00  0.00     0.023 A 
HETATM    8  C   UNL     1      40.219 -14.564   5.658  1.00  0.00     0.063 A 
HETATM    9  C   UNL     1      40.715 -12.000   4.731  1.00  0.00    -0.061 A 
HETATM   10  C   UNL     1      40.972 -10.603   4.244  1.00  0.00     0.048 C 
HETATM   11  C   UNL     1      39.677 -12.239   5.641  1.00  0.00     0.009 A 
HETATM   12  C   UNL     1      39.408 -13.527   6.123  1.00  0.00     0.032 A 
HETATM   13  N   UNL     1      40.221 -15.905   5.925  1.00  0.00    -0.277 N 
HETATM   14  H   UNL     1      39.596 -16.406   6.547  1.00  0.00     0.189 HD
HETATM   15  N   UNL     1      41.167 -16.604   5.274  1.00  0.00    -0.168 NA
ENDBRANCH   1   5
BRANCH   2  16
HETATM   16  C   UNL     1      43.903 -18.039   2.465  1.00  0.00     0.116 C 
HETATM   17  C   UNL     1      43.596 -17.778   0.989  1.00  0.00     0.037 C 
BRANCH  16  18
HETATM   18  C   UNL     1      44.072 -19.527   2.748  1.00  0.00    -0.003 A 
HETATM   19  C   UNL     1      44.556 -19.965   4.002  1.00  0.00     0.076 A 
HETATM   20  C   UNL     1      44.721 -21.334   4.249  1.00  0.00     0.037 A 
HETATM   21  C   UNL     1      44.425 -22.274   3.260  1.00  0.00     0.003 A 
HETATM   22  C   UNL     1      43.971 -21.853   2.016  1.00  0.00     0.001 A 
HETATM   23  C   UNL     1      43.803 -20.492   1.761  1.00  0.00     0.012 A 
BRANCH  19  24
HETATM   24  O   UNL     1      44.838 -18.981   4.915  1.00  0.00    -0.355 OA
HETATM   25  C   UNL     1      44.319 -19.136   6.230  1.00  0.00     0.210 C 
ENDBRANCH  19  24
ENDBRANCH  16  18
ENDBRANCH   2  16
TORSDOF 4
ENDMDL
MODEL 2
REMARK VINA RESULT:      -7.9      4.482      5.325
REMARK  4 active torsions:
REMARK  status: ('A' for Active; 'I' for Inactive)
REMARK    1  A    between atoms: C_9  and  C_10 
REMARK       I    between atoms: C_10  and  N_11 
REMARK    2  A    between atoms: N_11  and  C_12 
REMARK    3  A    between atoms: C_12  and  C_13 
REMARK    4  A    between atoms: C_14  and  O_15 
ROOT
HETATM    1  C   UNL     1      43.915 -14.588   6.623  1.00  0.00     0.273 C 
HETATM    2  N   UNL     1      44.256 -15.915   6.753  1.00  0.00    -0.347 N 
HETATM    3  O   UNL     1      42.830 -14.184   6.220  1.00  0.00    -0.266 OA
HETATM    4  H   UNL     1      45.156 -16.070   7.197  1.00  0.00     0.163 HD
ENDROOT
BRANCH   1   5
HETATM    5  C   UNL     1      44.994 -13.678   7.049  1.00  0.00     0.157 A 
HETATM    6  C   UNL     1      45.022 -12.860   8.219  1.00  0.00     0.029 A 
HETATM    7  C   UNL     1      44.153 -12.602   9.298  1.00  0.00     0.023 A 
HETATM    8  C   UNL     1      46.248 -12.209   8.175  1.00  0.00     0.063 A 
HETATM    9  C   UNL     1      44.545 -11.700  10.301  1.00  0.00    -0.061 A 
HETATM   10  C   UNL     1      43.634 -11.409  11.458  1.00  0.00     0.048 C 
HETATM   11  C   UNL     1      45.791 -11.065  10.220  1.00  0.00     0.009 A 
HETATM   12  C   UNL     1      46.668 -11.307   9.155  1.00  0.00     0.032 A 
HETATM   13  N   UNL     1      46.852 -12.655   7.033  1.00  0.00    -0.277 N 
HETATM   14  H   UNL     1      47.764 -12.390   6.678  1.00  0.00     0.189 HD
HETATM   15  N   UNL     1      46.130 -13.543   6.328  1.00  0.00    -0.168 NA
ENDBRANCH   1   5
BRANCH   2  16
HETATM   16  C   UNL     1      43.390 -17.069   6.545  1.00  0.00     0.116 C 
HETATM   17  C   UNL     1      43.096 -17.874   7.811  1.00  0.00     0.037 C 
BRANCH  16  18
HETATM   18  C   UNL     1      43.841 -17.969   5.400  1.00  0.00    -0.003 A 
HETATM   19  C   UNL     1      43.519 -17.640   4.063  1.00  0.00     0.076 A 
HETATM   20  C   UNL     1      43.926 -18.480   3.019  1.00  0.00     0.037 A 
HETATM   21  C   UNL     1      44.637 -19.652   3.286  1.00  0.00     0.003 A 
HETATM   22  C   UNL     1      44.938 -19.997   4.598  1.00  0.00     0.001 A 
HETATM   23  C   UNL     1      44.538 -19.166   5.645  1.00  0.00     0.012 A 
BRANCH  19  24
HETATM   24  O   UNL     1      42.807 -16.482   3.884  1.00  0.00    -0.355 OA
HETATM   25  C   UNL     1      43.343 -15.512   2.992  1.00  0.00     0.210 C 
ENDBRANCH  19  24
ENDBRANCH  16  18
ENDBRANCH   2  16
TORSDOF 4
ENDMDL
MODEL 3
REMARK VINA RESULT:      -7.8      3.163      7.411
REMARK  4 active torsions:
REMARK  status: ('A' for Active; 'I' for Inactive)
REMARK    1  A    between atoms: C_9  and  C_10 
REMARK       I    between atoms: C_10  and  N_11 
REMARK    2  A    between atoms: N_11  and  C_12 
REMARK    3  A    between atoms: C_12  and  C_13 
REMARK    4  A    between atoms: C_14  and  O_15 
ROOT
HETATM    1  C   UNL     1      41.339 -16.695   2.067  1.00  0.00     0.273 C 
HETATM    2  N   UNL     1      41.859 -15.732   1.233  1.00  0.00    -0.347 N 
HETATM    3  O   UNL     1      40.190 -17.118   2.011  1.00  0.00    -0.266 OA
HETATM    4  H   UNL     1      42.855 -15.574   1.352  1.00  0.00     0.163 HD
ENDROOT
BRANCH   1   5
HETATM    5  C   UNL     1      42.326 -17.199   3.039  1.00  0.00     0.157 A 
HETATM    6  C   UNL     1      43.039 -18.435   2.984  1.00  0.00     0.029 A 
HETATM    7  C   UNL     1      43.087 -19.541   2.112  1.00  0.00     0.023 A 
HETATM    8  C   UNL     1      43.849 -18.435   4.112  1.00  0.00     0.063 A 
HETATM    9  C   UNL     1      43.949 -20.612   2.399  1.00  0.00    -0.061 A 
HETATM   10  C   UNL     1      44.014 -21.801   1.485  1.00  0.00     0.048 C 
HETATM   11  C   UNL     1      44.751 -20.572   3.547  1.00  0.00     0.009 A 
HETATM   12  C   UNL     1      44.717 -19.484   4.427  1.00  0.00     0.032 A 
HETATM   13  N   UNL     1      43.583 -17.255   4.747  1.00  0.00    -0.277 N 
HETATM   14  H   UNL     1      43.995 -16.917   5.610  1.00  0.00     0.189 HD
HETATM   15  N   UNL     1      42.673 -16.481   4.131  1.00  0.00    -0.168 NA
ENDBRANCH   1   5
BRANCH   2  16
HETATM   16  C   UNL     1      41.203 -15.117   0.086  1.00  0.00     0.116 C 
HETATM   17  C   UNL     1      41.178 -15.989  -1.170  1.00  0.00     0.037 C 
BRANCH  16  18
HETATM   18  C   UNL     1      41.704 -13.709  -0.218  1.00  0.00    -0.003 A 
HETATM   19  C   UNL     1      41.684 -12.711   0.783  1.00  0.00     0.076 A 
HETATM   20  C   UNL     1      42.134 -11.418   0.491  1.00  0.00     0.037 A 
HETATM   21  C   UNL     1      42.589 -11.097  -0.789  1.00  0.00     0.003 A 
HETATM   22  C   UNL     1      42.591 -12.064  -1.788  1.00  0.00     0.001 A 
HETATM   23  C   UNL     1      42.146 -13.355  -1.506  1.00  0.00     0.012 A 
BRANCH  19  24
HETATM   24  O   UNL     1      41.209 -13.101   2.010  1.00  0.00    -0.355 OA
HETATM   25  C   UNL     1      41.953 -12.711   3.157  1.00  0.00     0.210 C 
ENDBRANCH  19  24
ENDBRANCH  16  18
ENDBRANCH   2  16
TORSDOF 4
ENDMDL
MODEL 4
REMARK VINA RESULT:      -7.5      1.848      7.128
REMARK  4 active torsions:
REMARK  status: ('A' for Active; 'I' for Inactive)
REMARK    1  A    between atoms: C_9  and  C_10 
REMARK       I    between atoms: C_10  and  N_11 
REMARK    2  A    between atoms: N_11  and  C_12 
REMARK    3  A    between atoms: C_12  and  C_13 
REMARK    4  A    between atoms: C_14  and  O_15 
ROOT
HETATM    1  C   UNL     1      43.175 -16.713   2.980  1.00  0.00     0.273 C 
HETATM    2  N   UNL     1      41.840 -16.842   2.674  1.00  0.00    -0.347 N 
HETATM    3  O   UNL     1      43.910 -15.841   2.531  1.00  0.00    -0.266 OA
HETATM    4  H   UNL     1      41.358 -17.557   3.213  1.00  0.00     0.163 HD
ENDROOT
BRANCH   1   5
HETATM    5  C   UNL     1      43.641 -17.729   3.940  1.00  0.00     0.157 A 
HETATM    6  C   UNL     1      43.954 -19.095   3.668  1.00  0.00     0.029 A 
HETATM    7  C   UNL     1      43.943 -19.933   2.535  1.00  0.00     0.023 A 
HETATM    8  C   UNL     1      44.357 -19.623   4.888  1.00  0.00     0.063 A 
HETATM    9  C   UNL     1      44.338 -21.275   2.662  1.00  0.00    -0.061 A 
HETATM   10  C   UNL     1      44.330 -22.186   1.469  1.00  0.00     0.048 C 
HETATM   11  C   UNL     1      44.738 -21.768   3.911  1.00  0.00     0.009 A 
HETATM   12  C   UNL     1      44.755 -20.953   5.050  1.00  0.00     0.032 A 
HETATM   13  N   UNL     1      44.262 -18.590   5.777  1.00  0.00    -0.277 N 
HETATM   14  H   UNL     1      44.477 -18.612   6.768  1.00  0.00     0.189 HD
HETATM   15  N   UNL     1      43.836 -17.431   5.245  1.00  0.00    -0.168 NA
ENDBRANCH   1   5
BRANCH   2  16
HETATM   16  C   UNL     1      41.032 -15.939   1.865  1.00  0.00     0.116 C 
HETATM   17  C   UNL     1      41.300 -16.026   0.362  1.00  0.00     0.037 C 
BRANCH  16  18
HETATM   18  C   UNL     1      41.055 -14.496   2.357  1.00  0.00    -0.003 A 
HETATM   19  C   UNL     1      40.652 -14.183   3.675  1.00  0.00     0.076 A 
HETATM   20  C   UNL     1      40.664 -12.853   4.113  1.00  0.00     0.037 A 
HETATM   21  C   UNL     1      41.058 -11.826   3.253  1.00  0.00     0.003 A 
HETATM   22  C   UNL     1      41.433 -12.119   1.948  1.00  0.00     0.001 A 
HETATM   23  C   UNL     1      41.425 -13.441   1.503  1.00  0.00     0.012 A 
BRANCH  19  24
HETATM   24  O   UNL     1      40.266 -15.245   4.453  1.00  0.00    -0.355 OA
HETATM   25  C   UNL     1      40.687 -15.252   5.812  1.00  0.00     0.210 C 
ENDBRANCH  19  24
ENDBRANCH  16  18
ENDBRANCH   2  16
TORSDOF 4
ENDMDL
MODEL 5
REMARK VINA RESULT:      -7.5      2.675      7.114
REMARK  4 active torsions:
REMARK  status: ('A' for Active; 'I' for Inactive)
REMARK    1  A    between atoms: C_9  and  C_10 
REMARK       I    between atoms: C_10  and  N_11 
REMARK    2  A    between atoms: N_11  and  C_12 
REMARK    3  A    between atoms: C_12  and  C_13 
REMARK    4  A    between atoms: C_14  and  O_15 
ROOT
HETATM    1  C   UNL     1      44.064 -19.489   6.751  1.00  0.00     0.273 C 
HETATM    2  N   UNL     1      44.302 -18.183   6.388  1.00  0.00    -0.347 N 
HETATM    3  O   UNL     1      43.689 -19.845   7.862  1.00  0.00    -0.266 OA
HETATM    4  H   UNL     1      44.508 -18.058   5.401  1.00  0.00     0.163 HD
ENDROOT
BRANCH   1   5
HETATM    5  C   UNL     1      44.281 -20.437   5.643  1.00  0.00     0.157 A 
HETATM    6  C   UNL     1      44.164 -20.173   4.245  1.00  0.00     0.029 A 
HETATM    7  C   UNL     1      43.828 -19.061   3.446  1.00  0.00     0.023 A 
HETATM    8  C   UNL     1      44.481 -21.373   3.623  1.00  0.00     0.063 A 
HETATM    9  C   UNL     1      43.824 -19.189   2.048  1.00  0.00    -0.061 A 
HETATM   10  C   UNL     1      43.466 -18.018   1.178  1.00  0.00     0.048 C 
HETATM   11  C   UNL     1      44.151 -20.418   1.460  1.00  0.00     0.009 A 
HETATM   12  C   UNL     1      44.486 -21.535   2.235  1.00  0.00     0.032 A 
HETATM   13  N   UNL     1      44.755 -22.245   4.639  1.00  0.00    -0.277 N 
HETATM   14  H   UNL     1      45.024 -23.219   4.555  1.00  0.00     0.189 HD
HETATM   15  N   UNL     1      44.648 -21.718   5.872  1.00  0.00    -0.168 NA
ENDBRANCH   1   5
BRANCH   2  16
HETATM   16  C   UNL     1      44.065 -16.991   7.192  1.00  0.00     0.116 C 
HETATM   17  C   UNL     1      43.461 -17.268   8.570  1.00  0.00     0.037 C 
BRANCH  16  18
HETATM   18  C   UNL     1      43.300 -15.900   6.452  1.00  0.00    -0.003 A 
HETATM   19  C   UNL     1      43.805 -14.581   6.402  1.00  0.00     0.076 A 
HETATM   20  C   UNL     1      43.088 -13.582   5.731  1.00  0.00     0.037 A 
HETATM   21  C   UNL     1      41.866 -13.874   5.121  1.00  0.00     0.003 A 
HETATM   22  C   UNL     1      41.349 -15.161   5.185  1.00  0.00     0.001 A 
HETATM   23  C   UNL     1      42.056 -16.163   5.850  1.00  0.00     0.012 A 
BRANCH  19  24
HETATM   24  O   UNL     1      45.003 -14.371   7.037  1.00  0.00    -0.355 OA
HETATM   25  C   UNL     1      45.117 -13.217   7.861  1.00  0.00     0.210 C 
ENDBRANCH  19  24
ENDBRANCH  16  18
ENDBRANCH   2  16
TORSDOF 4
ENDMDL
MODEL 6
REMARK VINA RESULT:      -7.5      2.349      6.413
REMARK  4 active torsions:
REMARK  status: ('A' for Active; 'I' for Inactive)
REMARK    1  A    between atoms: C_9  and  C_10 
REMARK       I    between atoms: C_10  and  N_11 
REMARK    2  A    between atoms: N_11  and  C_12 
REMARK    3  A    between atoms: C_12  and  C_13 
REMARK    4  A    between atoms: C_14  and  O_15 
ROOT
HETATM    1  C   UNL     1      43.897 -15.373   6.320  1.00  0.00     0.273 C 
HETATM    2  N   UNL     1      43.020 -15.271   5.264  1.00  0.00    -0.347 N 
HETATM    3  O   UNL     1      44.671 -14.488   6.670  1.00  0.00    -0.266 OA
HETATM    4  H   UNL     1      42.383 -16.058   5.178  1.00  0.00     0.163 HD
ENDROOT
BRANCH   1   5
HETATM    5  C   UNL     1      43.797 -16.665   7.021  1.00  0.00     0.157 A 
HETATM    6  C   UNL     1      43.960 -17.968   6.459  1.00  0.00     0.029 A 
HETATM    7  C   UNL     1      44.233 -18.495   5.181  1.00  0.00     0.023 A 
HETATM    8  C   UNL     1      43.786 -18.844   7.523  1.00  0.00     0.063 A 
HETATM    9  C   UNL     1      44.324 -19.886   5.012  1.00  0.00    -0.061 A 
HETATM   10  C   UNL     1      44.611 -20.470   3.658  1.00  0.00     0.048 C 
HETATM   11  C   UNL     1      44.143 -20.736   6.111  1.00  0.00     0.009 A 
HETATM   12  C   UNL     1      43.870 -20.232   7.389  1.00  0.00     0.032 A 
HETATM   13  N   UNL     1      43.539 -18.050   8.608  1.00  0.00    -0.277 N 
HETATM   14  H   UNL     1      43.363 -18.351   9.560  1.00  0.00     0.189 HD
HETATM   15  N   UNL     1      43.540 -16.731   8.347  1.00  0.00    -0.168 NA
ENDBRANCH   1   5
BRANCH   2  16
HETATM   16  C   UNL     1      42.767 -14.095   4.442  1.00  0.00     0.116 C 
HETATM   17  C   UNL     1      42.189 -12.903   5.206  1.00  0.00     0.037 C 
BRANCH  16  18
HETATM   18  C   UNL     1      41.966 -14.395   3.181  1.00  0.00    -0.003 A 
HETATM   19  C   UNL     1      42.465 -15.298   2.214  1.00  0.00     0.076 A 
HETATM   20  C   UNL     1      41.728 -15.558   1.052  1.00  0.00     0.037 A 
HETATM   21  C   UNL     1      40.507 -14.919   0.829  1.00  0.00     0.003 A 
HETATM   22  C   UNL     1      40.018 -14.011   1.760  1.00  0.00     0.001 A 
HETATM   23  C   UNL     1      40.745 -13.747   2.921  1.00  0.00     0.012 A 
BRANCH  19  24
HETATM   24  O   UNL     1      43.678 -15.874   2.500  1.00  0.00    -0.355 OA
HETATM   25  C   UNL     1      44.042 -17.038   1.768  1.00  0.00     0.210 C 
ENDBRANCH  19  24
ENDBRANCH  16  18
ENDBRANCH   2  16
TORSDOF 4
ENDMDL
MODEL 7
REMARK VINA RESULT:      -7.5      3.437      4.770
REMARK  4 active torsions:
REMARK  status: ('A' for Active; 'I' for Inactive)
REMARK    1  A    between atoms: C_9  and  C_10 
REMARK       I    between atoms: C_10  and  N_11 
REMARK    2  A    between atoms: N_11  and  C_12 
REMARK    3  A    between atoms: C_12  and  C_13 
REMARK    4  A    between atoms: C_14  and  O_15 
ROOT
HETATM    1  C   UNL     1      40.954 -15.728   2.496  1.00  0.00     0.273 C 
HETATM    2  N   UNL     1      41.806 -16.276   3.427  1.00  0.00    -0.347 N 
HETATM    3  O   UNL     1      39.896 -16.233   2.138  1.00  0.00    -0.266 OA
HETATM    4  H   UNL     1      42.586 -15.676   3.680  1.00  0.00     0.163 HD
ENDROOT
BRANCH   1   5
HETATM    5  C   UNL     1      41.434 -14.435   1.977  1.00  0.00     0.157 A 
HETATM    6  C   UNL     1      41.563 -14.047   0.609  1.00  0.00     0.029 A 
HETATM    7  C   UNL     1      41.332 -14.651  -0.643  1.00  0.00     0.023 A 
HETATM    8  C   UNL     1      42.036 -12.742   0.647  1.00  0.00     0.063 A 
HETATM    9  C   UNL     1      41.583 -13.925  -1.819  1.00  0.00    -0.061 A 
HETATM   10  C   UNL     1      41.347 -14.550  -3.163  1.00  0.00     0.048 C 
HETATM   11  C   UNL     1      42.059 -12.610  -1.737  1.00  0.00     0.009 A 
HETATM   12  C   UNL     1      42.296 -11.991  -0.503  1.00  0.00     0.032 A 
HETATM   13  N   UNL     1      42.159 -12.441   1.974  1.00  0.00    -0.277 N 
HETATM   14  H   UNL     1      42.480 -11.568   2.377  1.00  0.00     0.189 HD
HETATM   15  N   UNL     1      41.803 -13.434   2.808  1.00  0.00    -0.168 NA
ENDBRANCH   1   5
BRANCH   2  16
HETATM   16  C   UNL     1      41.580 -17.473   4.227  1.00  0.00     0.116 C 
HETATM   17  C   UNL     1      41.034 -17.202   5.630  1.00  0.00     0.037 C 
BRANCH  16  18
HETATM   18  C   UNL     1      42.779 -18.415   4.264  1.00  0.00    -0.003 A 
HETATM   19  C   UNL     1      43.313 -18.939   3.064  1.00  0.00     0.076 A 
HETATM   20  C   UNL     1      44.406 -19.814   3.109  1.00  0.00     0.037 A 
HETATM   21  C   UNL     1      44.965 -20.188   4.332  1.00  0.00     0.003 A 
HETATM   22  C   UNL     1      44.433 -19.699   5.518  1.00  0.00     0.001 A 
HETATM   23  C   UNL     1      43.345 -18.827   5.484  1.00  0.00     0.012 A 
BRANCH  19  24
HETATM   24  O   UNL     1      42.699 -18.534   1.906  1.00  0.00    -0.355 OA
HETATM   25  C   UNL     1      43.506 -17.902   0.920  1.00  0.00     0.210 C 
ENDBRANCH  19  24
ENDBRANCH  16  18
ENDBRANCH   2  16
TORSDOF 4
ENDMDL
MODEL 8
REMARK VINA RESULT:      -7.4      2.566      7.380
REMARK  4 active torsions:
REMARK  status: ('A' for Active; 'I' for Inactive)
REMARK    1  A    between atoms: C_9  and  C_10 
REMARK       I    between atoms: C_10  and  N_11 
REMARK    2  A    between atoms: N_11  and  C_12 
REMARK    3  A    between atoms: C_12  and  C_13 
REMARK    4  A    between atoms: C_14  and  O_15 
ROOT
HETATM    1  C   UNL     1      43.348 -16.422   2.960  1.00  0.00     0.273 C 
HETATM    2  N   UNL     1      42.777 -15.331   3.573  1.00  0.00    -0.347 N 
HETATM    3  O   UNL     1      43.531 -16.525   1.752  1.00  0.00    -0.266 OA
HETATM    4  H   UNL     1      42.795 -15.369   4.588  1.00  0.00     0.163 HD
ENDROOT
BRANCH   1   5
HETATM    5  C   UNL     1      43.752 -17.467   3.918  1.00  0.00     0.157 A 
HETATM    6  C   UNL     1      43.985 -18.848   3.642  1.00  0.00     0.029 A 
HETATM    7  C   UNL     1      43.926 -19.680   2.506  1.00  0.00     0.023 A 
HETATM    8  C   UNL     1      44.355 -19.402   4.860  1.00  0.00     0.063 A 
HETATM    9  C   UNL     1      44.241 -21.043   2.629  1.00  0.00    -0.061 A 
HETATM   10  C   UNL     1      44.181 -21.948   1.433  1.00  0.00     0.048 C 
HETATM   11  C   UNL     1      44.610 -21.563   3.877  1.00  0.00     0.009 A 
HETATM   12  C   UNL     1      44.674 -20.754   5.018  1.00  0.00     0.032 A 
HETATM   13  N   UNL     1      44.320 -18.368   5.752  1.00  0.00    -0.277 N 
HETATM   14  H   UNL     1      44.532 -18.406   6.743  1.00  0.00     0.189 HD
HETATM   15  N   UNL     1      43.964 -17.184   5.223  1.00  0.00    -0.168 NA
ENDBRANCH   1   5
BRANCH   2  16
HETATM   16  C   UNL     1      42.383 -14.076   2.945  1.00  0.00     0.116 C 
HETATM   17  C   UNL     1      42.334 -12.881   3.898  1.00  0.00     0.037 C 
BRANCH  16  18
HETATM   18  C   UNL     1      41.109 -14.185   2.115  1.00  0.00    -0.003 A 
HETATM   19  C   UNL     1      41.034 -13.584   0.838  1.00  0.00     0.076 A 
HETATM   20  C   UNL     1      39.855 -13.678   0.088  1.00  0.00     0.037 A 
HETATM   21  C   UNL     1      38.742 -14.349   0.598  1.00  0.00     0.003 A 
HETATM   22  C   UNL     1      38.796 -14.922   1.862  1.00  0.00     0.001 A 
HETATM   23  C   UNL     1      39.966 -14.835   2.616  1.00  0.00     0.012 A 
BRANCH  19  24
HETATM   24  O   UNL     1      42.164 -12.932   0.414  1.00  0.00    -0.355 OA
HETATM   25  C   UNL     1      42.048 -11.547   0.106  1.00  0.00     0.210 C 
ENDBRANCH  19  24
ENDBRANCH  16  18
ENDBRANCH   2  16
TORSDOF 4
ENDMDL
MODEL 9
REMARK VINA RESULT:      -7.4      2.654      7.146
REMARK  4 active torsions:
REMARK  status: ('A' for Active; 'I' for Inactive)
REMARK    1  A    between atoms: C_9  and  C_10 
REMARK       I    between atoms: C_10  and  N_11 
REMARK    2  A    between atoms: N_11  and  C_12 
REMARK    3  A    between atoms: C_12  and  C_13 
REMARK    4  A    between atoms: C_14  and  O_15 
ROOT
HETATM    1  C   UNL     1      44.195 -19.986   6.728  1.00  0.00     0.273 C 
HETATM    2  N   UNL     1      44.603 -18.698   6.470  1.00  0.00    -0.347 N 
HETATM    3  O   UNL     1      43.703 -20.362   7.786  1.00  0.00    -0.266 OA
HETATM    4  H   UNL     1      44.893 -18.539   5.510  1.00  0.00     0.163 HD
ENDROOT
BRANCH   1   5
HETATM    5  C   UNL     1      44.385 -20.885   5.575  1.00  0.00     0.157 A 
HETATM    6  C   UNL     1      44.232 -20.562   4.193  1.00  0.00     0.029 A 
HETATM    7  C   UNL     1      43.875 -19.417   3.452  1.00  0.00     0.023 A 
HETATM    8  C   UNL     1      44.534 -21.734   3.513  1.00  0.00     0.063 A 
HETATM    9  C   UNL     1      43.835 -19.486   2.050  1.00  0.00    -0.061 A 
HETATM   10  C   UNL     1      43.454 -18.280   1.241  1.00  0.00     0.048 C 
HETATM   11  C   UNL     1      44.148 -20.687   1.402  1.00  0.00     0.009 A 
HETATM   12  C   UNL     1      44.504 -21.836   2.119  1.00  0.00     0.032 A 
HETATM   13  N   UNL     1      44.835 -22.647   4.483  1.00  0.00    -0.277 N 
HETATM   14  H   UNL     1      45.102 -23.617   4.351  1.00  0.00     0.189 HD
HETATM   15  N   UNL     1      44.759 -22.175   5.740  1.00  0.00    -0.168 NA
ENDBRANCH   1   5
BRANCH   2  16
HETATM   16  C   UNL     1      44.444 -17.536   7.336  1.00  0.00     0.116 C 
HETATM   17  C   UNL     1      43.579 -17.784   8.573  1.00  0.00     0.037 C 
BRANCH  16  18
HETATM   18  C   UNL     1      44.011 -16.278   6.591  1.00  0.00    -0.003 A 
HETATM   19  C   UNL     1      42.876 -16.301   5.748  1.00  0.00     0.076 A 
HETATM   20  C   UNL     1      42.494 -15.144   5.058  1.00  0.00     0.037 A 
HETATM   21  C   UNL     1      43.234 -13.966   5.182  1.00  0.00     0.003 A 
HETATM   22  C   UNL     1      44.365 -13.939   5.989  1.00  0.00     0.001 A 
HETATM   23  C   UNL     1      44.753 -15.086   6.681  1.00  0.00     0.012 A 
BRANCH  19  24
HETATM   24  O   UNL     1      42.212 -17.498   5.668  1.00  0.00    -0.355 OA
HETATM   25  C   UNL     1      41.059 -17.556   4.836  1.00  0.00     0.210 C 
ENDBRANCH  19  24
ENDBRANCH  16  18
ENDBRANCH   2  16
TORSDOF 4
ENDMDL
MODEL 10
REMARK VINA RESULT:      -7.3      3.816      8.034
REMARK  4 active torsions:
REMARK  status: ('A' for Active; 'I' for Inactive)
REMARK    1  A    between atoms: C_9  and  C_10 
REMARK       I    between atoms: C_10  and  N_11 
REMARK    2  A    between atoms: N_11  and  C_12 
REMARK    3  A    between atoms: C_12  and  C_13 
REMARK    4  A    between atoms: C_14  and  O_15 
ROOT
HETATM    1  C   UNL     1      41.369 -16.902   1.403  1.00  0.00     0.273 C 
HETATM    2  N   UNL     1      41.502 -15.574   1.070  1.00  0.00    -0.347 N 
HETATM    3  O   UNL     1      40.643 -17.697   0.816  1.00  0.00    -0.266 OA
HETATM    4  H   UNL     1      42.222 -15.085   1.596  1.00  0.00     0.163 HD
ENDROOT
BRANCH   1   5
HETATM    5  C   UNL     1      42.221 -17.293   2.540  1.00  0.00     0.157 A 
HETATM    6  C   UNL     1      42.967 -18.502   2.684  1.00  0.00     0.029 A 
HETATM    7  C   UNL     1      43.168 -19.668   1.920  1.00  0.00     0.023 A 
HETATM    8  C   UNL     1      43.609 -18.385   3.910  1.00  0.00     0.063 A 
HETATM    9  C   UNL     1      44.009 -20.681   2.410  1.00  0.00    -0.061 A 
HETATM   10  C   UNL     1      44.234 -21.933   1.613  1.00  0.00     0.048 C 
HETATM   11  C   UNL     1      44.638 -20.524   3.651  1.00  0.00     0.009 A 
HETATM   12  C   UNL     1      44.452 -19.373   4.427  1.00  0.00     0.032 A 
HETATM   13  N   UNL     1      43.225 -17.170   4.405  1.00  0.00    -0.277 N 
HETATM   14  H   UNL     1      43.502 -16.752   5.286  1.00  0.00     0.189 HD
HETATM   15  N   UNL     1      42.391 -16.481   3.608  1.00  0.00    -0.168 NA
ENDBRANCH   1   5
BRANCH   2  16
HETATM   16  C   UNL     1      40.909 -14.889  -0.071  1.00  0.00     0.116 C 
HETATM   17  C   UNL     1      41.906 -14.104  -0.925  1.00  0.00     0.037 C 
BRANCH  16  18
HETATM   18  C   UNL     1      39.692 -14.045   0.291  1.00  0.00    -0.003 A 
HETATM   19  C   UNL     1      38.715 -13.743  -0.685  1.00  0.00     0.076 A 
HETATM   20  C   UNL     1      37.608 -12.956  -0.347  1.00  0.00     0.037 A 
HETATM   21  C   UNL     1      37.466 -12.449   0.946  1.00  0.00     0.003 A 
HETATM   22  C   UNL     1      38.432 -12.719   1.907  1.00  0.00     0.001 A 
HETATM   23  C   UNL     1      39.538 -13.503   1.580  1.00  0.00     0.012 A 
BRANCH  19  24
HETATM   24  O   UNL     1      38.934 -14.265  -1.935  1.00  0.00    -0.355 OA
HETATM   25  C   UNL     1      37.794 -14.538  -2.742  1.00  0.00     0.210 C 
ENDBRANCH  19  24
ENDBRANCH  16  18
ENDBRANCH   2  16
TORSDOF 4
ENDMDL
