MODEL 1
REMARK VINA RESULT:      -9.7      0.000      0.000
REMARK  5 active torsions:
REMARK  status: ('A' for Active; 'I' for Inactive)
REMARK    1  A    between atoms: C_6  and  S_7 
REMARK    2  A    between atoms: S_7  and  C_8 
REMARK    3  A    between atoms: C_8  and  C_9 
REMARK       I    between atoms: C_9  and  N_10 
REMARK    4  A    between atoms: N_10  and  C_11 
REMARK    5  A    between atoms: N_22  and  C_23 
ROOT
HETATM    1  C   UNL     1      44.803 -20.682   3.828  1.00  0.00     0.001 A 
HETATM    2  C   UNL     1      44.421 -19.517   4.492  1.00  0.00     0.019 A 
HETATM    3  C   UNL     1      43.543 -18.621   3.871  1.00  0.00     0.061 A 
HETATM    4  C   UNL     1      43.044 -18.877   2.597  1.00  0.00     0.075 A 
HETATM    5  N   UNL     1      42.161 -18.006   1.951  1.00  0.00    -0.223 NA
HETATM    6  C   UNL     1      41.806 -16.922   2.559  1.00  0.00     0.177 A 
HETATM    7  N   UNL     1      42.229 -16.565   3.833  1.00  0.00    -0.255 N 
HETATM    8  C   UNL     1      43.129 -17.371   4.536  1.00  0.00     0.267 A 
HETATM    9  O   UNL     1      43.625 -17.095   5.627  1.00  0.00    -0.267 OA
HETATM   10  C   UNL     1      43.437 -20.045   1.938  1.00  0.00     0.032 A 
HETATM   11  C   UNL     1      44.312 -20.945   2.550  1.00  0.00     0.002 A 
ENDROOT
BRANCH   6  12
HETATM   12  S   UNL     1      40.647 -15.911   1.706  1.00  0.00    -0.082 SA
BRANCH  12  13
HETATM   13  C   UNL     1      41.280 -16.048   0.005  1.00  0.00     0.185 C 
BRANCH  13  14
HETATM   14  C   UNL     1      41.053 -14.793  -0.834  1.00  0.00     0.231 C 
HETATM   15  N   UNL     1      42.202 -14.093  -1.143  1.00  0.00    -0.326 N 
HETATM   16  H   UNL     1      43.069 -14.516  -0.818  1.00  0.00     0.169 HD
HETATM   17  O   UNL     1      39.909 -14.445  -1.120  1.00  0.00    -0.272 OA
BRANCH  15  18
HETATM   18  C   UNL     1      42.330 -12.877  -1.839  1.00  0.00     0.037 A 
HETATM   19  C   UNL     1      42.329 -12.778  -3.235  1.00  0.00     0.061 A 
HETATM   20  C   UNL     1      42.433 -11.514  -3.771  1.00  0.00     0.065 A 
HETATM   21  C   UNL     1      42.548 -10.372  -2.982  1.00  0.00     0.063 A 
HETATM   22  N   UNL     1      42.436 -11.113  -5.104  1.00  0.00    -0.306 N 
HETATM   23  N   UNL     1      42.628  -9.272  -3.826  1.00  0.00    -0.307 N 
HETATM   24  C   UNL     1      42.563 -10.432  -1.612  1.00  0.00     0.034 A 
HETATM   25  C   UNL     1      42.556  -9.717  -5.155  1.00  0.00     0.325 A 
HETATM   26  H   UNL     1      42.718  -8.304  -3.566  1.00  0.00     0.170 HD
HETATM   27  O   UNL     1      42.587  -9.024  -6.155  1.00  0.00    -0.247 OA
HETATM   28  C   UNL     1      42.445 -11.706  -1.042  1.00  0.00     0.032 A 
HETATM   29  H   UNL     1      42.363 -11.704  -5.915  1.00  0.00     0.170 HD
ENDBRANCH  15  18
ENDBRANCH  13  14
ENDBRANCH  12  13
ENDBRANCH   6  12
BRANCH   7  30
HETATM   30  C   UNL     1      41.795 -15.374   4.487  1.00  0.00     0.066 A 
HETATM   31  C   UNL     1      42.461 -14.150   4.295  1.00  0.00     0.061 A 
HETATM   32 CL   UNL     1      43.921 -14.039   3.374  1.00  0.00    -0.082 Cl
HETATM   33  C   UNL     1      41.988 -12.990   4.912  1.00  0.00     0.026 A 
HETATM   34  C   UNL     1      40.851 -13.040   5.720  1.00  0.00     0.002 A 
HETATM   35  C   UNL     1      40.186 -14.249   5.915  1.00  0.00     0.002 A 
HETATM   36  C   UNL     1      40.651 -15.414   5.300  1.00  0.00     0.032 A 
ENDBRANCH   7  30
TORSDOF 5
ENDMDL
MODEL 2
REMARK VINA RESULT:      -9.6      3.150      3.486
REMARK  5 active torsions:
REMARK  status: ('A' for Active; 'I' for Inactive)
REMARK    1  A    between atoms: C_6  and  S_7 
REMARK    2  A    between atoms: S_7  and  C_8 
REMARK    3  A    between atoms: C_8  and  C_9 
REMARK       I    between atoms: C_9  and  N_10 
REMARK    4  A    between atoms: N_10  and  C_11 
REMARK    5  A    between atoms: N_22  and  C_23 
ROOT
HETATM    1  C   UNL     1      44.082 -21.165   6.460  1.00  0.00     0.001 A 
HETATM    2  C   UNL     1      43.430 -19.970   6.764  1.00  0.00     0.019 A 
HETATM    3  C   UNL     1      43.409 -18.934   5.824  1.00  0.00     0.061 A 
HETATM    4  C   UNL     1      44.030 -19.078   4.587  1.00  0.00     0.075 A 
HETATM    5  N   UNL     1      44.022 -18.066   3.622  1.00  0.00    -0.223 NA
HETATM    6  C   UNL     1      43.422 -16.953   3.899  1.00  0.00     0.177 A 
HETATM    7  N   UNL     1      42.760 -16.698   5.092  1.00  0.00    -0.255 N 
HETATM    8  C   UNL     1      42.742 -17.651   6.115  1.00  0.00     0.267 A 
HETATM    9  O   UNL     1      42.259 -17.481   7.233  1.00  0.00    -0.267 OA
HETATM   10  C   UNL     1      44.685 -20.277   4.294  1.00  0.00     0.032 A 
HETATM   11  C   UNL     1      44.711 -21.318   5.226  1.00  0.00     0.002 A 
ENDROOT
BRANCH   6  12
HETATM   12  S   UNL     1      43.404 -15.754   2.613  1.00  0.00    -0.082 SA
BRANCH  12  13
HETATM   13  C   UNL     1      43.069 -16.819   1.175  1.00  0.00     0.185 C 
BRANCH  13  14
HETATM   14  C   UNL     1      41.746 -16.510   0.480  1.00  0.00     0.231 C 
HETATM   15  N   UNL     1      41.863 -15.751  -0.667  1.00  0.00    -0.326 N 
HETATM   16  H   UNL     1      42.817 -15.526  -0.943  1.00  0.00     0.169 HD
HETATM   17  O   UNL     1      40.686 -16.872   0.989  1.00  0.00    -0.272 OA
BRANCH  15  18
HETATM   18  C   UNL     1      40.843 -15.248  -1.496  1.00  0.00     0.037 A 
HETATM   19  C   UNL     1      39.963 -14.231  -1.111  1.00  0.00     0.061 A 
HETATM   20  C   UNL     1      39.034 -13.823  -2.043  1.00  0.00     0.065 A 
HETATM   21  C   UNL     1      38.948 -14.390  -3.312  1.00  0.00     0.063 A 
HETATM   22  N   UNL     1      38.062 -12.833  -1.952  1.00  0.00    -0.306 N 
HETATM   23  N   UNL     1      37.921 -13.755  -3.998  1.00  0.00    -0.307 N 
HETATM   24  C   UNL     1      39.788 -15.395  -3.720  1.00  0.00     0.034 A 
HETATM   25  C   UNL     1      37.359 -12.777  -3.164  1.00  0.00     0.325 A 
HETATM   26  H   UNL     1      37.607 -13.935  -4.938  1.00  0.00     0.170 HD
HETATM   27  O   UNL     1      36.443 -12.025  -3.442  1.00  0.00    -0.247 OA
HETATM   28  C   UNL     1      40.750 -15.819  -2.794  1.00  0.00     0.032 A 
HETATM   29  H   UNL     1      37.873 -12.238  -1.162  1.00  0.00     0.170 HD
ENDBRANCH  15  18
ENDBRANCH  13  14
ENDBRANCH  12  13
ENDBRANCH   6  12
BRANCH   7  30
HETATM   30  C   UNL     1      42.084 -15.469   5.354  1.00  0.00     0.066 A 
HETATM   31  C   UNL     1      42.782 -14.329   5.790  1.00  0.00     0.061 A 
HETATM   32 CL   UNL     1      44.469 -14.379   6.171  1.00  0.00    -0.082 Cl
HETATM   33  C   UNL     1      42.102 -13.126   5.995  1.00  0.00     0.026 A 
HETATM   34  C   UNL     1      40.728 -13.051   5.767  1.00  0.00     0.002 A 
HETATM   35  C   UNL     1      40.029 -14.177   5.335  1.00  0.00     0.002 A 
HETATM   36  C   UNL     1      40.701 -15.383   5.125  1.00  0.00     0.032 A 
ENDBRANCH   7  30
TORSDOF 5
ENDMDL
MODEL 3
REMARK VINA RESULT:      -9.3      3.003      9.485
REMARK  5 active torsions:
REMARK  status: ('A' for Active; 'I' for Inactive)
REMARK    1  A    between atoms: C_6  and  S_7 
REMARK    2  A    between atoms: S_7  and  C_8 
REMARK    3  A    between atoms: C_8  and  C_9 
REMARK       I    between atoms: C_9  and  N_10 
REMARK    4  A    between atoms: N_10  and  C_11 
REMARK    5  A    between atoms: N_22  and  C_23 
ROOT
HETATM    1  C   UNL     1      43.491  -9.285  -1.980  1.00  0.00     0.001 A 
HETATM    2  C   UNL     1      42.852 -10.299  -2.692  1.00  0.00     0.019 A 
HETATM    3  C   UNL     1      42.083 -11.247  -2.008  1.00  0.00     0.061 A 
HETATM    4  C   UNL     1      41.944 -11.192  -0.624  1.00  0.00     0.075 A 
HETATM    5  N   UNL     1      41.178 -12.119   0.089  1.00  0.00    -0.223 NA
HETATM    6  C   UNL     1      40.586 -13.065  -0.565  1.00  0.00     0.177 A 
HETATM    7  N   UNL     1      40.642 -13.216  -1.944  1.00  0.00    -0.255 N 
HETATM    8  C   UNL     1      41.406 -12.344  -2.725  1.00  0.00     0.267 A 
HETATM    9  O   UNL     1      41.585 -12.450  -3.938  1.00  0.00    -0.267 OA
HETATM   10  C   UNL     1      42.592 -10.174   0.081  1.00  0.00     0.032 A 
HETATM   11  C   UNL     1      43.362  -9.223  -0.593  1.00  0.00     0.002 A 
ENDROOT
BRANCH   6  12
HETATM   12  S   UNL     1      39.593 -14.153   0.396  1.00  0.00    -0.082 SA
BRANCH  12  13
HETATM   13  C   UNL     1      40.656 -14.363   1.859  1.00  0.00     0.185 C 
BRANCH  13  14
HETATM   14  C   UNL     1      40.931 -15.823   2.209  1.00  0.00     0.231 C 
HETATM   15  N   UNL     1      42.249 -16.102   2.513  1.00  0.00    -0.326 N 
HETATM   16  H   UNL     1      42.874 -15.298   2.515  1.00  0.00     0.169 HD
HETATM   17  O   UNL     1      40.026 -16.653   2.138  1.00  0.00    -0.272 OA
BRANCH  15  18
HETATM   18  C   UNL     1      42.838 -17.344   2.813  1.00  0.00     0.037 A 
HETATM   19  C   UNL     1      42.826 -18.438   1.942  1.00  0.00     0.061 A 
HETATM   20  C   UNL     1      43.471 -19.580   2.365  1.00  0.00     0.065 A 
HETATM   21  C   UNL     1      44.100 -19.670   3.603  1.00  0.00     0.063 A 
HETATM   22  N   UNL     1      43.640 -20.796   1.711  1.00  0.00    -0.306 N 
HETATM   23  N   UNL     1      44.650 -20.940   3.716  1.00  0.00    -0.307 N 
HETATM   24  C   UNL     1      44.122 -18.621   4.487  1.00  0.00     0.034 A 
HETATM   25  C   UNL     1      44.376 -21.655   2.540  1.00  0.00     0.325 A 
HETATM   26  H   UNL     1      45.170 -21.318   4.490  1.00  0.00     0.170 HD
HETATM   27  O   UNL     1      44.714 -22.797   2.290  1.00  0.00    -0.247 OA
HETATM   28  C   UNL     1      43.484 -17.444   4.075  1.00  0.00     0.032 A 
HETATM   29  H   UNL     1      43.306 -21.045   0.795  1.00  0.00     0.170 HD
ENDBRANCH  15  18
ENDBRANCH  13  14
ENDBRANCH  12  13
ENDBRANCH   6  12
BRANCH   7  30
HETATM   30  C   UNL     1      39.954 -14.256  -2.637  1.00  0.00     0.066 A 
HETATM   31  C   UNL     1      38.654 -14.064  -3.137  1.00  0.00     0.061 A 
HETATM   32 CL   UNL     1      37.758 -12.618  -2.826  1.00  0.00    -0.082 Cl
HETATM   33  C   UNL     1      38.020 -15.084  -3.852  1.00  0.00     0.026 A 
HETATM   34  C   UNL     1      38.675 -16.296  -4.073  1.00  0.00     0.002 A 
HETATM   35  C   UNL     1      39.964 -16.493  -3.579  1.00  0.00     0.002 A 
HETATM   36  C   UNL     1      40.605 -15.478  -2.866  1.00  0.00     0.032 A 
ENDBRANCH   7  30
TORSDOF 5
ENDMDL
MODEL 4
REMARK VINA RESULT:      -9.2      3.055      3.556
REMARK  5 active torsions:
REMARK  status: ('A' for Active; 'I' for Inactive)
REMARK    1  A    between atoms: C_6  and  S_7 
REMARK    2  A    between atoms: S_7  and  C_8 
REMARK    3  A    between atoms: C_8  and  C_9 
REMARK       I    between atoms: C_9  and  N_10 
REMARK    4  A    between atoms: N_10  and  C_11 
REMARK    5  A    between atoms: N_22  and  C_23 
ROOT
HETATM    1  C   UNL     1      44.765 -20.680   3.745  1.00  0.00     0.001 A 
HETATM    2  C   UNL     1      44.383 -19.511   4.403  1.00  0.00     0.019 A 
HETATM    3  C   UNL     1      43.485 -18.632   3.788  1.00  0.00     0.061 A 
HETATM    4  C   UNL     1      42.965 -18.906   2.527  1.00  0.00     0.075 A 
HETATM    5  N   UNL     1      42.061 -18.053   1.888  1.00  0.00    -0.223 NA
HETATM    6  C   UNL     1      41.705 -16.965   2.491  1.00  0.00     0.177 A 
HETATM    7  N   UNL     1      42.148 -16.590   3.752  1.00  0.00    -0.255 N 
HETATM    8  C   UNL     1      43.070 -17.379   4.447  1.00  0.00     0.267 A 
HETATM    9  O   UNL     1      43.583 -17.085   5.526  1.00  0.00    -0.267 OA
HETATM   10  C   UNL     1      43.358 -20.078   1.874  1.00  0.00     0.032 A 
HETATM   11  C   UNL     1      44.253 -20.962   2.480  1.00  0.00     0.002 A 
ENDROOT
BRANCH   6  12
HETATM   12  S   UNL     1      40.520 -15.976   1.648  1.00  0.00    -0.082 SA
BRANCH  12  13
HETATM   13  C   UNL     1      41.566 -15.246   0.349  1.00  0.00     0.185 C 
BRANCH  13  14
HETATM   14  C   UNL     1      40.810 -14.939  -0.942  1.00  0.00     0.231 C 
HETATM   15  N   UNL     1      39.670 -14.178  -0.772  1.00  0.00    -0.326 N 
HETATM   16  H   UNL     1      39.491 -13.871   0.182  1.00  0.00     0.169 HD
HETATM   17  O   UNL     1      41.194 -15.418  -2.007  1.00  0.00    -0.272 OA
BRANCH  15  18
HETATM   18  C   UNL     1      38.729 -13.778  -1.738  1.00  0.00     0.037 A 
HETATM   19  C   UNL     1      38.187 -14.642  -2.696  1.00  0.00     0.061 A 
HETATM   20  C   UNL     1      37.252 -14.112  -3.558  1.00  0.00     0.065 A 
HETATM   21  C   UNL     1      36.858 -12.778  -3.506  1.00  0.00     0.063 A 
HETATM   22  N   UNL     1      36.538 -14.728  -4.580  1.00  0.00    -0.306 N 
HETATM   23  N   UNL     1      35.909 -12.571  -4.499  1.00  0.00    -0.307 N 
HETATM   24  C   UNL     1      37.375 -11.900  -2.588  1.00  0.00     0.034 A 
HETATM   25  C   UNL     1      35.694 -13.780  -5.176  1.00  0.00     0.325 A 
HETATM   26  H   UNL     1      35.429 -11.714  -4.721  1.00  0.00     0.170 HD
HETATM   27  O   UNL     1      34.923 -13.968  -6.099  1.00  0.00    -0.247 OA
HETATM   28  C   UNL     1      38.319 -12.418  -1.692  1.00  0.00     0.032 A 
HETATM   29  H   UNL     1      36.594 -15.692  -4.865  1.00  0.00     0.170 HD
ENDBRANCH  15  18
ENDBRANCH  13  14
ENDBRANCH  12  13
ENDBRANCH   6  12
BRANCH   7  30
HETATM   30  C   UNL     1      41.714 -15.396   4.401  1.00  0.00     0.066 A 
HETATM   31  C   UNL     1      42.371 -14.170   4.193  1.00  0.00     0.061 A 
HETATM   32 CL   UNL     1      43.822 -14.058   3.257  1.00  0.00    -0.082 Cl
HETATM   33  C   UNL     1      41.897 -13.007   4.805  1.00  0.00     0.026 A 
HETATM   34  C   UNL     1      40.769 -13.057   5.624  1.00  0.00     0.002 A 
HETATM   35  C   UNL     1      40.112 -14.269   5.835  1.00  0.00     0.002 A 
HETATM   36  C   UNL     1      40.578 -15.435   5.226  1.00  0.00     0.032 A 
ENDBRANCH   7  30
TORSDOF 5
ENDMDL
MODEL 5
REMARK VINA RESULT:      -9.1      6.621     10.821
REMARK  5 active torsions:
REMARK  status: ('A' for Active; 'I' for Inactive)
REMARK    1  A    between atoms: C_6  and  S_7 
REMARK    2  A    between atoms: S_7  and  C_8 
REMARK    3  A    between atoms: C_8  and  C_9 
REMARK       I    between atoms: C_9  and  N_10 
REMARK    4  A    between atoms: N_10  and  C_11 
REMARK    5  A    between atoms: N_22  and  C_23 
ROOT
HETATM    1  C   UNL     1      40.024  -7.823   6.584  1.00  0.00     0.001 A 
HETATM    2  C   UNL     1      40.133  -7.819   7.974  1.00  0.00     0.019 A 
HETATM    3  C   UNL     1      40.968  -8.746   8.607  1.00  0.00     0.061 A 
HETATM    4  C   UNL     1      41.694  -9.676   7.868  1.00  0.00     0.075 A 
HETATM    5  N   UNL     1      42.542 -10.611   8.468  1.00  0.00    -0.223 NA
HETATM    6  C   UNL     1      42.644 -10.615   9.758  1.00  0.00     0.177 A 
HETATM    7  N   UNL     1      41.979  -9.733  10.598  1.00  0.00    -0.255 N 
HETATM    8  C   UNL     1      41.096  -8.782  10.076  1.00  0.00     0.267 A 
HETATM    9  O   UNL     1      40.400  -8.020  10.745  1.00  0.00    -0.267 OA
HETATM   10  C   UNL     1      41.575  -9.675   6.475  1.00  0.00     0.032 A 
HETATM   11  C   UNL     1      40.744  -8.752   5.835  1.00  0.00     0.002 A 
ENDROOT
BRANCH   6  12
HETATM   12  S   UNL     1      43.776 -11.781  10.431  1.00  0.00    -0.082 SA
BRANCH  12  13
HETATM   13  C   UNL     1      45.222 -11.489   9.365  1.00  0.00     0.185 C 
BRANCH  13  14
HETATM   14  C   UNL     1      45.354 -12.497   8.226  1.00  0.00     0.231 C 
HETATM   15  N   UNL     1      44.187 -13.167   7.915  1.00  0.00    -0.326 N 
HETATM   16  H   UNL     1      43.367 -12.881   8.446  1.00  0.00     0.169 HD
HETATM   17  O   UNL     1      46.452 -12.703   7.712  1.00  0.00    -0.272 OA
BRANCH  15  18
HETATM   18  C   UNL     1      43.987 -14.190   6.970  1.00  0.00     0.037 A 
HETATM   19  C   UNL     1      44.277 -15.537   7.213  1.00  0.00     0.061 A 
HETATM   20  C   UNL     1      43.999 -16.428   6.200  1.00  0.00     0.065 A 
HETATM   21  C   UNL     1      43.467 -16.029   4.977  1.00  0.00     0.063 A 
HETATM   22  N   UNL     1      44.158 -17.809   6.166  1.00  0.00    -0.306 N 
HETATM   23  N   UNL     1      43.305 -17.161   4.188  1.00  0.00    -0.307 N 
HETATM   24  C   UNL     1      43.181 -14.717   4.700  1.00  0.00     0.034 A 
HETATM   25  C   UNL     1      43.728 -18.282   4.917  1.00  0.00     0.325 A 
HETATM   26  H   UNL     1      42.943 -17.210   3.250  1.00  0.00     0.170 HD
HETATM   27  O   UNL     1      43.719 -19.439   4.539  1.00  0.00    -0.247 OA
HETATM   28  C   UNL     1      43.442 -13.792   5.719  1.00  0.00     0.032 A 
HETATM   29  H   UNL     1      44.515 -18.398   6.900  1.00  0.00     0.170 HD
ENDBRANCH  15  18
ENDBRANCH  13  14
ENDBRANCH  12  13
ENDBRANCH   6  12
BRANCH   7  30
HETATM   30  C   UNL     1      42.136  -9.747  12.015  1.00  0.00     0.066 A 
HETATM   31  C   UNL     1      41.327 -10.556  12.833  1.00  0.00     0.061 A 
HETATM   32 CL   UNL     1      40.007 -11.473  12.193  1.00  0.00    -0.082 Cl
HETATM   33  C   UNL     1      41.533 -10.585  14.214  1.00  0.00     0.026 A 
HETATM   34  C   UNL     1      42.543  -9.811  14.788  1.00  0.00     0.002 A 
HETATM   35  C   UNL     1      43.348  -9.006  13.984  1.00  0.00     0.002 A 
HETATM   36  C   UNL     1      43.150  -8.973  12.602  1.00  0.00     0.032 A 
ENDBRANCH   7  30
TORSDOF 5
ENDMDL
MODEL 6
REMARK VINA RESULT:      -9.1      4.041      9.066
REMARK  5 active torsions:
REMARK  status: ('A' for Active; 'I' for Inactive)
REMARK    1  A    between atoms: C_6  and  S_7 
REMARK    2  A    between atoms: S_7  and  C_8 
REMARK    3  A    between atoms: C_8  and  C_9 
REMARK       I    between atoms: C_9  and  N_10 
REMARK    4  A    between atoms: N_10  and  C_11 
REMARK    5  A    between atoms: N_22  and  C_23 
ROOT
HETATM    1  C   UNL     1      37.807  -8.932   4.576  1.00  0.00     0.001 A 
HETATM    2  C   UNL     1      37.944 -10.046   3.748  1.00  0.00     0.019 A 
HETATM    3  C   UNL     1      39.081 -10.854   3.855  1.00  0.00     0.061 A 
HETATM    4  C   UNL     1      40.081 -10.562   4.779  1.00  0.00     0.075 A 
HETATM    5  N   UNL     1      41.226 -11.352   4.917  1.00  0.00    -0.223 NA
HETATM    6  C   UNL     1      41.361 -12.384   4.149  1.00  0.00     0.177 A 
HETATM    7  N   UNL     1      40.429 -12.780   3.200  1.00  0.00    -0.255 N 
HETATM    8  C   UNL     1      39.268 -12.031   2.986  1.00  0.00     0.267 A 
HETATM    9  O   UNL     1      38.431 -12.254   2.113  1.00  0.00    -0.267 OA
HETATM   10  C   UNL     1      39.937  -9.441   5.600  1.00  0.00     0.032 A 
HETATM   11  C   UNL     1      38.804  -8.629   5.501  1.00  0.00     0.002 A 
ENDROOT
BRANCH   6  12
HETATM   12  S   UNL     1      42.799 -13.360   4.425  1.00  0.00    -0.082 SA
BRANCH  12  13
HETATM   13  C   UNL     1      42.251 -14.356   5.847  1.00  0.00     0.185 C 
BRANCH  13  14
HETATM   14  C   UNL     1      42.268 -15.859   5.582  1.00  0.00     0.231 C 
HETATM   15  N   UNL     1      43.412 -16.319   4.959  1.00  0.00    -0.326 N 
HETATM   16  H   UNL     1      44.128 -15.615   4.791  1.00  0.00     0.169 HD
HETATM   17  O   UNL     1      41.284 -16.543   5.858  1.00  0.00    -0.272 OA
BRANCH  15  18
HETATM   18  C   UNL     1      43.711 -17.623   4.525  1.00  0.00     0.037 A 
HETATM   19  C   UNL     1      43.292 -18.147   3.297  1.00  0.00     0.061 A 
HETATM   20  C   UNL     1      43.689 -19.431   2.998  1.00  0.00     0.065 A 
HETATM   21  C   UNL     1      44.461 -20.198   3.866  1.00  0.00     0.063 A 
HETATM   22  N   UNL     1      43.446 -20.192   1.859  1.00  0.00    -0.306 N 
HETATM   23  N   UNL     1      44.688 -21.430   3.267  1.00  0.00    -0.307 N 
HETATM   24  C   UNL     1      44.881 -19.722   5.082  1.00  0.00     0.034 A 
HETATM   25  C   UNL     1      44.064 -21.442   2.010  1.00  0.00     0.325 A 
HETATM   26  H   UNL     1      45.211 -22.207   3.637  1.00  0.00     0.170 HD
HETATM   27  O   UNL     1      44.063 -22.358   1.209  1.00  0.00    -0.247 OA
HETATM   28  C   UNL     1      44.501 -18.413   5.404  1.00  0.00     0.032 A 
HETATM   29  H   UNL     1      42.922 -19.916   1.045  1.00  0.00     0.170 HD
ENDBRANCH  15  18
ENDBRANCH  13  14
ENDBRANCH  12  13
ENDBRANCH   6  12
BRANCH   7  30
HETATM   30  C   UNL     1      40.596 -13.942   2.388  1.00  0.00     0.066 A 
HETATM   31  C   UNL     1      41.366 -13.907   1.212  1.00  0.00     0.061 A 
HETATM   32 CL   UNL     1      42.037 -12.434   0.601  1.00  0.00    -0.082 Cl
HETATM   33  C   UNL     1      41.551 -15.070   0.460  1.00  0.00     0.026 A 
HETATM   34  C   UNL     1      40.974 -16.271   0.875  1.00  0.00     0.002 A 
HETATM   35  C   UNL     1      40.209 -16.313   2.040  1.00  0.00     0.002 A 
HETATM   36  C   UNL     1      40.021 -15.155   2.798  1.00  0.00     0.032 A 
ENDBRANCH   7  30
TORSDOF 5
ENDMDL
MODEL 7
REMARK VINA RESULT:      -8.9      4.479      8.914
REMARK  5 active torsions:
REMARK  status: ('A' for Active; 'I' for Inactive)
REMARK    1  A    between atoms: C_6  and  S_7 
REMARK    2  A    between atoms: S_7  and  C_8 
REMARK    3  A    between atoms: C_8  and  C_9 
REMARK       I    between atoms: C_9  and  N_10 
REMARK    4  A    between atoms: N_10  and  C_11 
REMARK    5  A    between atoms: N_22  and  C_23 
ROOT
HETATM    1  C   UNL     1      39.158  -8.695   5.323  1.00  0.00     0.001 A 
HETATM    2  C   UNL     1      39.817  -9.720   6.001  1.00  0.00     0.019 A 
HETATM    3  C   UNL     1      40.498 -10.704   5.276  1.00  0.00     0.061 A 
HETATM    4  C   UNL     1      40.528 -10.676   3.885  1.00  0.00     0.075 A 
HETATM    5  N   UNL     1      41.204 -11.639   3.130  1.00  0.00    -0.223 NA
HETATM    6  C   UNL     1      41.815 -12.595   3.753  1.00  0.00     0.177 A 
HETATM    7  N   UNL     1      41.863 -12.722   5.135  1.00  0.00    -0.255 N 
HETATM    8  C   UNL     1      41.193 -11.812   5.958  1.00  0.00     0.267 A 
HETATM    9  O   UNL     1      41.108 -11.893   7.182  1.00  0.00    -0.267 OA
HETATM   10  C   UNL     1      39.859  -9.647   3.214  1.00  0.00     0.032 A 
HETATM   11  C   UNL     1      39.178  -8.660   3.930  1.00  0.00     0.002 A 
ENDROOT
BRANCH   6  12
HETATM   12  S   UNL     1      42.692 -13.731   2.737  1.00  0.00    -0.082 SA
BRANCH  12  13
HETATM   13  C   UNL     1      41.311 -14.723   2.085  1.00  0.00     0.185 C 
BRANCH  13  14
HETATM   14  C   UNL     1      41.487 -16.225   2.291  1.00  0.00     0.231 C 
HETATM   15  N   UNL     1      42.762 -16.608   2.657  1.00  0.00    -0.326 N 
HETATM   16  H   UNL     1      43.423 -15.845   2.792  1.00  0.00     0.169 HD
HETATM   17  O   UNL     1      40.551 -16.990   2.065  1.00  0.00    -0.272 OA
BRANCH  15  18
HETATM   18  C   UNL     1      43.265 -17.906   2.861  1.00  0.00     0.037 A 
HETATM   19  C   UNL     1      43.747 -18.367   4.091  1.00  0.00     0.061 A 
HETATM   20  C   UNL     1      44.180 -19.674   4.142  1.00  0.00     0.065 A 
HETATM   21  C   UNL     1      44.162 -20.513   3.031  1.00  0.00     0.063 A 
HETATM   22  N   UNL     1      44.681 -20.401   5.217  1.00  0.00    -0.306 N 
HETATM   23  N   UNL     1      44.656 -21.751   3.419  1.00  0.00    -0.307 N 
HETATM   24  C   UNL     1      43.707 -20.092   1.807  1.00  0.00     0.034 A 
HETATM   25  C   UNL     1      44.981 -21.700   4.782  1.00  0.00     0.325 A 
HETATM   26  H   UNL     1      44.771 -22.573   2.848  1.00  0.00     0.170 HD
HETATM   27  O   UNL     1      45.432 -22.608   5.456  1.00  0.00    -0.247 OA
HETATM   28  C   UNL     1      43.248 -18.771   1.733  1.00  0.00     0.032 A 
HETATM   29  H   UNL     1      44.813 -20.076   6.160  1.00  0.00     0.170 HD
ENDBRANCH  15  18
ENDBRANCH  13  14
ENDBRANCH  12  13
ENDBRANCH   6  12
BRANCH   7  30
HETATM   30  C   UNL     1      42.570 -13.774   5.790  1.00  0.00     0.066 A 
HETATM   31  C   UNL     1      41.977 -15.031   6.003  1.00  0.00     0.061 A 
HETATM   32 CL   UNL     1      40.320 -15.338   5.615  1.00  0.00    -0.082 Cl
HETATM   33  C   UNL     1      42.708 -16.058   6.607  1.00  0.00     0.026 A 
HETATM   34  C   UNL     1      44.029 -15.839   6.999  1.00  0.00     0.002 A 
HETATM   35  C   UNL     1      44.623 -14.596   6.792  1.00  0.00     0.002 A 
HETATM   36  C   UNL     1      43.900 -13.565   6.188  1.00  0.00     0.032 A 
ENDBRANCH   7  30
TORSDOF 5
ENDMDL
MODEL 8
REMARK VINA RESULT:      -8.9      4.162      4.591
REMARK  5 active torsions:
REMARK  status: ('A' for Active; 'I' for Inactive)
REMARK    1  A    between atoms: C_6  and  S_7 
REMARK    2  A    between atoms: S_7  and  C_8 
REMARK    3  A    between atoms: C_8  and  C_9 
REMARK       I    between atoms: C_9  and  N_10 
REMARK    4  A    between atoms: N_10  and  C_11 
REMARK    5  A    between atoms: N_22  and  C_23 
ROOT
HETATM    1  C   UNL     1      44.823 -22.067   5.181  1.00  0.00     0.001 A 
HETATM    2  C   UNL     1      44.532 -20.731   5.456  1.00  0.00     0.019 A 
HETATM    3  C   UNL     1      44.189 -19.867   4.410  1.00  0.00     0.061 A 
HETATM    4  C   UNL     1      44.133 -20.323   3.096  1.00  0.00     0.075 A 
HETATM    5  N   UNL     1      43.787 -19.488   2.029  1.00  0.00    -0.223 NA
HETATM    6  C   UNL     1      43.521 -18.247   2.276  1.00  0.00     0.177 A 
HETATM    7  N   UNL     1      43.534 -17.682   3.544  1.00  0.00    -0.255 N 
HETATM    8  C   UNL     1      43.891 -18.445   4.660  1.00  0.00     0.267 A 
HETATM    9  O   UNL     1      44.015 -18.012   5.804  1.00  0.00    -0.267 OA
HETATM   10  C   UNL     1      44.430 -21.662   2.830  1.00  0.00     0.032 A 
HETATM   11  C   UNL     1      44.773 -22.532   3.868  1.00  0.00     0.002 A 
ENDROOT
BRANCH   6  12
HETATM   12  S   UNL     1      43.036 -17.278   0.890  1.00  0.00    -0.082 SA
BRANCH  12  13
HETATM   13  C   UNL     1      41.249 -17.123   1.207  1.00  0.00     0.185 C 
BRANCH  13  14
HETATM   14  C   UNL     1      40.698 -15.729   0.918  1.00  0.00     0.231 C 
HETATM   15  N   UNL     1      39.751 -15.288   1.821  1.00  0.00    -0.326 N 
HETATM   16  H   UNL     1      39.563 -15.920   2.597  1.00  0.00     0.169 HD
HETATM   17  O   UNL     1      41.054 -15.125  -0.092  1.00  0.00    -0.272 OA
BRANCH  15  18
HETATM   18  C   UNL     1      39.011 -14.091   1.805  1.00  0.00     0.037 A 
HETATM   19  C   UNL     1      37.892 -13.882   0.993  1.00  0.00     0.061 A 
HETATM   20  C   UNL     1      37.254 -12.667   1.110  1.00  0.00     0.065 A 
HETATM   21  C   UNL     1      37.692 -11.672   1.979  1.00  0.00     0.063 A 
HETATM   22  N   UNL     1      36.119 -12.195   0.458  1.00  0.00    -0.306 N 
HETATM   23  N   UNL     1      36.834 -10.586   1.858  1.00  0.00    -0.307 N 
HETATM   24  C   UNL     1      38.791 -11.837   2.782  1.00  0.00     0.034 A 
HETATM   25  C   UNL     1      35.844 -10.898   0.914  1.00  0.00     0.325 A 
HETATM   26  H   UNL     1      36.879  -9.709   2.350  1.00  0.00     0.170 HD
HETATM   27  O   UNL     1      34.923 -10.182   0.565  1.00  0.00    -0.247 OA
HETATM   28  C   UNL     1      39.450 -13.070   2.691  1.00  0.00     0.032 A 
HETATM   29  H   UNL     1      35.567 -12.681  -0.229  1.00  0.00     0.170 HD
ENDBRANCH  15  18
ENDBRANCH  13  14
ENDBRANCH  12  13
ENDBRANCH   6  12
BRANCH   7  30
HETATM   30  C   UNL     1      43.207 -16.314   3.785  1.00  0.00     0.066 A 
HETATM   31  C   UNL     1      42.066 -15.955   4.525  1.00  0.00     0.061 A 
HETATM   32 CL   UNL     1      40.919 -17.131   5.066  1.00  0.00    -0.082 Cl
HETATM   33  C   UNL     1      41.794 -14.609   4.785  1.00  0.00     0.026 A 
HETATM   34  C   UNL     1      42.654 -13.617   4.313  1.00  0.00     0.002 A 
HETATM   35  C   UNL     1      43.786 -13.966   3.578  1.00  0.00     0.002 A 
HETATM   36  C   UNL     1      44.067 -15.308   3.315  1.00  0.00     0.032 A 
ENDBRANCH   7  30
TORSDOF 5
ENDMDL
MODEL 9
REMARK VINA RESULT:      -8.7      4.830      8.613
REMARK  5 active torsions:
REMARK  status: ('A' for Active; 'I' for Inactive)
REMARK    1  A    between atoms: C_6  and  S_7 
REMARK    2  A    between atoms: S_7  and  C_8 
REMARK    3  A    between atoms: C_8  and  C_9 
REMARK       I    between atoms: C_9  and  N_10 
REMARK    4  A    between atoms: N_10  and  C_11 
REMARK    5  A    between atoms: N_22  and  C_23 
ROOT
HETATM    1  C   UNL     1      43.752 -19.606   3.086  1.00  0.00     0.001 A 
HETATM    2  C   UNL     1      42.791 -18.979   2.293  1.00  0.00     0.019 A 
HETATM    3  C   UNL     1      42.360 -17.688   2.618  1.00  0.00     0.061 A 
HETATM    4  C   UNL     1      42.879 -17.017   3.722  1.00  0.00     0.075 A 
HETATM    5  N   UNL     1      42.476 -15.725   4.070  1.00  0.00    -0.223 NA
HETATM    6  C   UNL     1      41.582 -15.139   3.342  1.00  0.00     0.177 A 
HETATM    7  N   UNL     1      41.001 -15.702   2.213  1.00  0.00    -0.255 N 
HETATM    8  C   UNL     1      41.334 -16.999   1.813  1.00  0.00     0.267 A 
HETATM    9  O   UNL     1      40.811 -17.610   0.882  1.00  0.00    -0.267 OA
HETATM   10  C   UNL     1      43.838 -17.657   4.513  1.00  0.00     0.032 A 
HETATM   11  C   UNL     1      44.274 -18.945   4.196  1.00  0.00     0.002 A 
ENDROOT
BRANCH   6  12
HETATM   12  S   UNL     1      41.173 -13.493   3.809  1.00  0.00    -0.082 SA
BRANCH  12  13
HETATM   13  C   UNL     1      40.022 -13.818   5.182  1.00  0.00     0.185 C 
BRANCH  13  14
HETATM   14  C   UNL     1      39.491 -12.550   5.845  1.00  0.00     0.231 C 
HETATM   15  N   UNL     1      40.197 -12.146   6.961  1.00  0.00    -0.326 N 
HETATM   16  H   UNL     1      41.014 -12.711   7.185  1.00  0.00     0.169 HD
HETATM   17  O   UNL     1      38.470 -12.014   5.418  1.00  0.00    -0.272 OA
BRANCH  15  18
HETATM   18  C   UNL     1      39.933 -11.068   7.826  1.00  0.00     0.037 A 
HETATM   19  C   UNL     1      39.105 -11.160   8.949  1.00  0.00     0.061 A 
HETATM   20  C   UNL     1      38.967 -10.025   9.717  1.00  0.00     0.065 A 
HETATM   21  C   UNL     1      39.601  -8.826   9.403  1.00  0.00     0.063 A 
HETATM   22  N   UNL     1      38.239  -9.829  10.886  1.00  0.00    -0.306 N 
HETATM   23  N   UNL     1      39.259  -7.891  10.372  1.00  0.00    -0.307 N 
HETATM   24  C   UNL     1      40.411  -8.696   8.304  1.00  0.00     0.034 A 
HETATM   25  C   UNL     1      38.412  -8.502  11.308  1.00  0.00     0.325 A 
HETATM   26  H   UNL     1      39.553  -6.930  10.430  1.00  0.00     0.170 HD
HETATM   27  O   UNL     1      37.926  -7.982  12.295  1.00  0.00    -0.247 OA
HETATM   28  C   UNL     1      40.578  -9.840   7.514  1.00  0.00     0.032 A 
HETATM   29  H   UNL     1      37.676 -10.507  11.373  1.00  0.00     0.170 HD
ENDBRANCH  15  18
ENDBRANCH  13  14
ENDBRANCH  12  13
ENDBRANCH   6  12
BRANCH   7  30
HETATM   30  C   UNL     1      40.037 -15.016   1.416  1.00  0.00     0.066 A 
HETATM   31  C   UNL     1      40.406 -14.355   0.230  1.00  0.00     0.061 A 
HETATM   32 CL   UNL     1      42.059 -14.212  -0.260  1.00  0.00    -0.082 Cl
HETATM   33  C   UNL     1      39.435 -13.730  -0.556  1.00  0.00     0.026 A 
HETATM   34  C   UNL     1      38.095 -13.760  -0.169  1.00  0.00     0.002 A 
HETATM   35  C   UNL     1      37.722 -14.412   1.006  1.00  0.00     0.002 A 
HETATM   36  C   UNL     1      38.686 -15.041   1.796  1.00  0.00     0.032 A 
ENDBRANCH   7  30
TORSDOF 5
ENDMDL
MODEL 10
REMARK VINA RESULT:      -8.7      4.069      4.568
REMARK  5 active torsions:
REMARK  status: ('A' for Active; 'I' for Inactive)
REMARK    1  A    between atoms: C_6  and  S_7 
REMARK    2  A    between atoms: S_7  and  C_8 
REMARK    3  A    between atoms: C_8  and  C_9 
REMARK       I    between atoms: C_9  and  N_10 
REMARK    4  A    between atoms: N_10  and  C_11 
REMARK    5  A    between atoms: N_22  and  C_23 
ROOT
HETATM    1  C   UNL     1      44.264 -21.104   6.132  1.00  0.00     0.001 A 
HETATM    2  C   UNL     1      43.605 -19.932   6.501  1.00  0.00     0.019 A 
HETATM    3  C   UNL     1      43.499 -18.879   5.585  1.00  0.00     0.061 A 
HETATM    4  C   UNL     1      44.042 -18.984   4.308  1.00  0.00     0.075 A 
HETATM    5  N   UNL     1      43.947 -17.954   3.367  1.00  0.00    -0.223 NA
HETATM    6  C   UNL     1      43.340 -16.862   3.705  1.00  0.00     0.177 A 
HETATM    7  N   UNL     1      42.752 -16.646   4.944  1.00  0.00    -0.255 N 
HETATM    8  C   UNL     1      42.822 -17.619   5.945  1.00  0.00     0.267 A 
HETATM    9  O   UNL     1      42.408 -17.483   7.095  1.00  0.00    -0.267 OA
HETATM   10  C   UNL     1      44.705 -20.161   3.950  1.00  0.00     0.032 A 
HETATM   11  C   UNL     1      44.816 -21.218   4.856  1.00  0.00     0.002 A 
ENDROOT
BRANCH   6  12
HETATM   12  S   UNL     1      43.211 -15.639   2.448  1.00  0.00    -0.082 SA
BRANCH  12  13
HETATM   13  C   UNL     1      41.970 -16.413   1.363  1.00  0.00     0.185 C 
BRANCH  13  14
HETATM   14  C   UNL     1      40.574 -15.812   1.508  1.00  0.00     0.231 C 
HETATM   15  N   UNL     1      40.470 -14.497   1.099  1.00  0.00    -0.326 N 
HETATM   16  H   UNL     1      41.320 -14.096   0.708  1.00  0.00     0.169 HD
HETATM   17  O   UNL     1      39.671 -16.472   2.020  1.00  0.00    -0.272 OA
BRANCH  15  18
HETATM   18  C   UNL     1      39.353 -13.644   1.159  1.00  0.00     0.037 A 
HETATM   19  C   UNL     1      39.233 -12.586   2.066  1.00  0.00     0.061 A 
HETATM   20  C   UNL     1      38.091 -11.820   1.983  1.00  0.00     0.065 A 
HETATM   21  C   UNL     1      37.083 -12.074   1.057  1.00  0.00     0.063 A 
HETATM   22  N   UNL     1      37.715 -10.706   2.728  1.00  0.00    -0.306 N 
HETATM   23  N   UNL     1      36.086 -11.125   1.235  1.00  0.00    -0.307 N 
HETATM   24  C   UNL     1      37.162 -13.109   0.160  1.00  0.00     0.034 A 
HETATM   25  C   UNL     1      36.466 -10.260   2.272  1.00  0.00     0.325 A 
HETATM   26  H   UNL     1      35.224 -11.036   0.722  1.00  0.00     0.170 HD
HETATM   27  O   UNL     1      35.835  -9.307   2.690  1.00  0.00    -0.247 OA
HETATM   28  C   UNL     1      38.320 -13.895   0.215  1.00  0.00     0.032 A 
HETATM   29  H   UNL     1      38.233 -10.270   3.472  1.00  0.00     0.170 HD
ENDBRANCH  15  18
ENDBRANCH  13  14
ENDBRANCH  12  13
ENDBRANCH   6  12
BRANCH   7  30
HETATM   30  C   UNL     1      42.065 -15.440   5.273  1.00  0.00     0.066 A 
HETATM   31  C   UNL     1      42.755 -14.316   5.762  1.00  0.00     0.061 A 
HETATM   32 CL   UNL     1      44.445 -14.367   6.125  1.00  0.00    -0.082 Cl
HETATM   33  C   UNL     1      42.064 -13.132   6.034  1.00  0.00     0.026 A 
HETATM   34  C   UNL     1      40.687 -13.061   5.820  1.00  0.00     0.002 A 
HETATM   35  C   UNL     1      39.996 -14.171   5.337  1.00  0.00     0.002 A 
HETATM   36  C   UNL     1      40.679 -15.357   5.061  1.00  0.00     0.032 A 
ENDBRANCH   7  30
TORSDOF 5
ENDMDL
