MODEL 1
REMARK VINA RESULT:      -8.8      0.000      0.000
REMARK  8 active torsions:
REMARK  status: ('A' for Active; 'I' for Inactive)
REMARK    1  A    between atoms: C_7  and  C_8 
REMARK       I    between atoms: C_8  and  N_9 
REMARK    2  A    between atoms: N_9  and  N_10 
REMARK    3  A    between atoms: N_10  and  C_11 
REMARK    4  A    between atoms: C_11  and  N_12 
REMARK    5  A    between atoms: N_12  and  C_13 
REMARK    6  A    between atoms: N_15  and  C_16 
REMARK    7  A    between atoms: C_16  and  C_17 
REMARK    8  A    between atoms: C_29  and  C_30 
ROOT
HETATM    1  C   UNL     1      39.488 -12.011   6.869  1.00  0.00     0.290 C 
HETATM    2  N   UNL     1      39.940 -13.315   6.867  1.00  0.00    -0.262 N 
HETATM    3  O   UNL     1      38.860 -11.485   5.955  1.00  0.00    -0.264 OA
HETATM    4  H   UNL     1      40.351 -13.684   7.725  1.00  0.00     0.190 HD
ENDROOT
BRANCH   2   5
HETATM    5  N   UNL     1      39.559 -14.214   5.874  1.00  0.00    -0.273 N 
HETATM    6  H   UNL     1      38.556 -14.362   5.717  1.00  0.00     0.189 HD
BRANCH   5   7
HETATM    7  C   UNL     1      40.443 -14.648   4.922  1.00  0.00     0.192 C 
HETATM    8  S   UNL     1      41.480 -13.649   4.059  1.00  0.00    -0.039 SA
BRANCH   7   9
HETATM    9  N   UNL     1      40.473 -15.986   4.648  1.00  0.00    -0.315 N 
HETATM   10  H   UNL     1      39.969 -16.572   5.298  1.00  0.00     0.170 HD
BRANCH   9  11
HETATM   11  C   UNL     1      41.171 -16.628   3.648  1.00  0.00     0.151 A 
HETATM   12  N   UNL     1      42.443 -17.026   3.747  1.00  0.00    -0.154 NA
HETATM   13  N   UNL     1      42.699 -17.620   2.561  1.00  0.00    -0.275 N 
HETATM   14  C   UNL     1      41.632 -17.600   1.711  1.00  0.00     0.116 A 
HETATM   15  C   UNL     1      40.624 -16.956   2.388  1.00  0.00     0.071 A 
BRANCH  13  16
HETATM   16  C   UNL     1      44.033 -18.126   2.268  1.00  0.00     0.192 C 
BRANCH  16  17
HETATM   17  C   UNL     1      44.170 -19.577   2.626  1.00  0.00     0.000 A 
HETATM   18  C   UNL     1      44.604 -19.954   3.899  1.00  0.00     0.124 A 
HETATM   19  F   UNL     1      44.890 -19.011   4.809  1.00  0.00    -0.205 F 
HETATM   20  C   UNL     1      44.740 -21.293   4.253  1.00  0.00     0.043 A 
HETATM   21  C   UNL     1      44.441 -22.285   3.320  1.00  0.00     0.003 A 
HETATM   22  C   UNL     1      44.015 -21.930   2.040  1.00  0.00     0.001 A 
HETATM   23  C   UNL     1      43.885 -20.583   1.691  1.00  0.00     0.012 A 
ENDBRANCH  16  17
ENDBRANCH  13  16
ENDBRANCH   9  11
ENDBRANCH   7   9
ENDBRANCH   5   7
ENDBRANCH   2   5
BRANCH   1  24
HETATM   24  C   UNL     1      39.851 -11.306   8.111  1.00  0.00     0.150 A 
HETATM   25  N   UNL     1      41.097 -10.821   8.310  1.00  0.00    -0.165 NA
HETATM   26  N   UNL     1      41.039 -10.275   9.535  1.00  0.00    -0.240 N 
HETATM   27  C   UNL     1      39.803 -10.352  10.117  1.00  0.00     0.123 A 
HETATM   28  C   UNL     1      42.178  -9.584  10.105  1.00  0.00     0.221 C 
HETATM   29  N   UNL     1      39.549  -9.799  11.322  1.00  0.00    -0.371 N 
HETATM   30  C   UNL     1      39.011 -11.029   9.225  1.00  0.00     0.089 A 
HETATM   31  C   UNL     1      40.624  -9.289  12.164  1.00  0.00     0.081 C 
HETATM   32  H   UNL     1      38.670 -10.002  11.799  1.00  0.00     0.161 HD
HETATM   33  C   UNL     1      41.063 -10.358  13.157  1.00  0.00     0.032 C 
HETATM   34  C   UNL     1      41.752  -8.706  11.297  1.00  0.00     0.061 C 
BRANCH  28  35
HETATM   35  C   UNL     1      43.290 -10.554  10.440  1.00  0.00     0.409 C 
HETATM   36  F   UNL     1      44.160 -10.720   9.420  1.00  0.00    -0.169 F 
HETATM   37  F   UNL     1      44.019 -10.072  11.483  1.00  0.00    -0.169 F 
HETATM   38  F   UNL     1      42.853 -11.773  10.809  1.00  0.00    -0.169 F 
ENDBRANCH  28  35
ENDBRANCH   1  24
TORSDOF 8
ENDMDL
MODEL 2
REMARK VINA RESULT:      -8.8      5.095      9.449
REMARK  8 active torsions:
REMARK  status: ('A' for Active; 'I' for Inactive)
REMARK    1  A    between atoms: C_7  and  C_8 
REMARK       I    between atoms: C_8  and  N_9 
REMARK    2  A    between atoms: N_9  and  N_10 
REMARK    3  A    between atoms: N_10  and  C_11 
REMARK    4  A    between atoms: C_11  and  N_12 
REMARK    5  A    between atoms: N_12  and  C_13 
REMARK    6  A    between atoms: N_15  and  C_16 
REMARK    7  A    between atoms: C_16  and  C_17 
REMARK    8  A    between atoms: C_29  and  C_30 
ROOT
HETATM    1  C   UNL     1      41.710 -17.325   1.123  1.00  0.00     0.290 C 
HETATM    2  N   UNL     1      42.430 -16.278   0.585  1.00  0.00    -0.262 N 
HETATM    3  O   UNL     1      40.546 -17.595   0.838  1.00  0.00    -0.264 OA
HETATM    4  H   UNL     1      43.425 -16.214   0.805  1.00  0.00     0.190 HD
ENDROOT
BRANCH   2   5
HETATM    5  N   UNL     1      41.937 -15.529  -0.482  1.00  0.00    -0.273 N 
HETATM    6  H   UNL     1      41.837 -15.993  -1.391  1.00  0.00     0.189 HD
BRANCH   5   7
HETATM    7  C   UNL     1      41.305 -14.330  -0.284  1.00  0.00     0.192 C 
HETATM    8  S   UNL     1      41.867 -12.852  -0.848  1.00  0.00    -0.039 SA
BRANCH   7   9
HETATM    9  N   UNL     1      40.143 -14.337   0.433  1.00  0.00    -0.315 N 
HETATM   10  H   UNL     1      39.319 -14.611  -0.082  1.00  0.00     0.170 HD
BRANCH   9  11
HETATM   11  C   UNL     1      39.953 -13.939   1.739  1.00  0.00     0.151 A 
HETATM   12  N   UNL     1      40.088 -14.737   2.802  1.00  0.00    -0.154 NA
HETATM   13  N   UNL     1      39.835 -13.933   3.857  1.00  0.00    -0.275 N 
HETATM   14  C   UNL     1      39.533 -12.652   3.493  1.00  0.00     0.116 A 
HETATM   15  C   UNL     1      39.596 -12.627   2.121  1.00  0.00     0.071 A 
BRANCH  13  16
HETATM   16  C   UNL     1      39.821 -14.478   5.207  1.00  0.00     0.192 C 
BRANCH  16  17
HETATM   17  C   UNL     1      41.198 -14.852   5.673  1.00  0.00     0.000 A 
HETATM   18  C   UNL     1      41.410 -16.044   6.368  1.00  0.00     0.124 A 
HETATM   19  F   UNL     1      40.377 -16.863   6.613  1.00  0.00    -0.205 F 
HETATM   20  C   UNL     1      42.678 -16.410   6.811  1.00  0.00     0.043 A 
HETATM   21  C   UNL     1      43.763 -15.572   6.560  1.00  0.00     0.003 A 
HETATM   22  C   UNL     1      43.571 -14.372   5.875  1.00  0.00     0.001 A 
HETATM   23  C   UNL     1      42.295 -14.009   5.437  1.00  0.00     0.012 A 
ENDBRANCH  16  17
ENDBRANCH  13  16
ENDBRANCH   9  11
ENDBRANCH   7   9
ENDBRANCH   5   7
ENDBRANCH   2   5
BRANCH   1  24
HETATM   24  C   UNL     1      42.504 -18.095   2.095  1.00  0.00     0.150 A 
HETATM   25  N   UNL     1      43.354 -19.069   1.699  1.00  0.00    -0.165 NA
HETATM   26  N   UNL     1      43.867 -19.537   2.848  1.00  0.00    -0.240 N 
HETATM   27  C   UNL     1      43.416 -18.883   3.961  1.00  0.00     0.123 A 
HETATM   28  C   UNL     1      44.883 -20.570   2.853  1.00  0.00     0.221 C 
HETATM   29  N   UNL     1      43.874 -19.181   5.196  1.00  0.00    -0.371 N 
HETATM   30  C   UNL     1      42.517 -17.951   3.510  1.00  0.00     0.089 A 
HETATM   31  C   UNL     1      44.701 -20.358   5.434  1.00  0.00     0.081 C 
HETATM   32  H   UNL     1      43.413 -18.790   6.018  1.00  0.00     0.161 HD
HETATM   33  C   UNL     1      43.831 -21.529   5.874  1.00  0.00     0.032 C 
HETATM   34  C   UNL     1      45.597 -20.637   4.216  1.00  0.00     0.061 C 
BRANCH  28  35
HETATM   35  C   UNL     1      44.310 -21.898   2.408  1.00  0.00     0.409 C 
HETATM   36  F   UNL     1      44.616 -22.194   1.125  1.00  0.00    -0.169 F 
HETATM   37  F   UNL     1      44.838 -22.900   3.161  1.00  0.00    -0.169 F 
HETATM   38  F   UNL     1      42.973 -21.983   2.540  1.00  0.00    -0.169 F 
ENDBRANCH  28  35
ENDBRANCH   1  24
TORSDOF 8
ENDMDL
MODEL 3
REMARK VINA RESULT:      -8.7      1.215      1.445
REMARK  8 active torsions:
REMARK  status: ('A' for Active; 'I' for Inactive)
REMARK    1  A    between atoms: C_7  and  C_8 
REMARK       I    between atoms: C_8  and  N_9 
REMARK    2  A    between atoms: N_9  and  N_10 
REMARK    3  A    between atoms: N_10  and  C_11 
REMARK    4  A    between atoms: C_11  and  N_12 
REMARK    5  A    between atoms: N_12  and  C_13 
REMARK    6  A    between atoms: N_15  and  C_16 
REMARK    7  A    between atoms: C_16  and  C_17 
REMARK    8  A    between atoms: C_29  and  C_30 
ROOT
HETATM    1  C   UNL     1      39.855 -11.906   6.722  1.00  0.00     0.290 C 
HETATM    2  N   UNL     1      39.826 -13.286   6.736  1.00  0.00    -0.262 N 
HETATM    3  O   UNL     1      39.697 -11.212   5.721  1.00  0.00    -0.264 OA
HETATM    4  H   UNL     1      39.854 -13.759   7.640  1.00  0.00     0.190 HD
ENDROOT
BRANCH   2   5
HETATM    5  N   UNL     1      39.431 -14.017   5.617  1.00  0.00    -0.273 N 
HETATM    6  H   UNL     1      38.446 -13.970   5.335  1.00  0.00     0.189 HD
BRANCH   5   7
HETATM    7  C   UNL     1      40.345 -14.519   4.730  1.00  0.00     0.192 C 
HETATM    8  S   UNL     1      40.096 -14.645   3.075  1.00  0.00    -0.039 SA
BRANCH   7   9
HETATM    9  N   UNL     1      41.538 -14.957   5.229  1.00  0.00    -0.315 N 
HETATM   10  H   UNL     1      42.147 -14.236   5.590  1.00  0.00     0.170 HD
BRANCH   9  11
HETATM   11  C   UNL     1      42.036 -16.242   5.223  1.00  0.00     0.151 A 
HETATM   12  N   UNL     1      43.312 -16.560   4.983  1.00  0.00    -0.154 NA
HETATM   13  N   UNL     1      43.348 -17.905   5.102  1.00  0.00    -0.275 N 
HETATM   14  C   UNL     1      42.132 -18.449   5.399  1.00  0.00     0.116 A 
HETATM   15  C   UNL     1      41.257 -17.393   5.479  1.00  0.00     0.071 A 
BRANCH  13  16
HETATM   16  C   UNL     1      44.583 -18.630   4.837  1.00  0.00     0.192 C 
BRANCH  16  17
HETATM   17  C   UNL     1      44.373 -19.746   3.854  1.00  0.00     0.000 A 
HETATM   18  C   UNL     1      44.695 -21.060   4.198  1.00  0.00     0.124 A 
HETATM   19  F   UNL     1      45.186 -21.327   5.417  1.00  0.00    -0.205 F 
HETATM   20  C   UNL     1      44.512 -22.110   3.303  1.00  0.00     0.043 A 
HETATM   21  C   UNL     1      43.998 -21.850   2.033  1.00  0.00     0.003 A 
HETATM   22  C   UNL     1      43.679 -20.543   1.667  1.00  0.00     0.001 A 
HETATM   23  C   UNL     1      43.870 -19.493   2.569  1.00  0.00     0.012 A 
ENDBRANCH  16  17
ENDBRANCH  13  16
ENDBRANCH   9  11
ENDBRANCH   7   9
ENDBRANCH   5   7
ENDBRANCH   2   5
BRANCH   1  24
HETATM   24  C   UNL     1      40.103 -11.348   8.062  1.00  0.00     0.150 A 
HETATM   25  N   UNL     1      41.275 -10.749   8.371  1.00  0.00    -0.165 NA
HETATM   26  N   UNL     1      41.126 -10.395   9.659  1.00  0.00    -0.240 N 
HETATM   27  C   UNL     1      39.899 -10.704  10.178  1.00  0.00     0.123 A 
HETATM   28  C   UNL     1      42.158  -9.660  10.360  1.00  0.00     0.221 C 
HETATM   29  N   UNL     1      39.555 -10.365  11.439  1.00  0.00    -0.371 N 
HETATM   30  C   UNL     1      39.215 -11.338   9.173  1.00  0.00     0.089 A 
HETATM   31  C   UNL     1      40.542  -9.854  12.382  1.00  0.00     0.081 C 
HETATM   32  H   UNL     1      38.701 -10.739  11.851  1.00  0.00     0.161 HD
HETATM   33  C   UNL     1      41.094 -10.993  13.232  1.00  0.00     0.032 C 
HETATM   34  C   UNL     1      41.604  -9.020  11.647  1.00  0.00     0.061 C 
BRANCH  28  35
HETATM   35  C   UNL     1      43.377 -10.524  10.596  1.00  0.00     0.409 C 
HETATM   36  F   UNL     1      44.277 -10.441   9.591  1.00  0.00    -0.169 F 
HETATM   37  F   UNL     1      44.025 -10.107  11.717  1.00  0.00    -0.169 F 
HETATM   38  F   UNL     1      43.090 -11.827  10.781  1.00  0.00    -0.169 F 
ENDBRANCH  28  35
ENDBRANCH   1  24
TORSDOF 8
ENDMDL
MODEL 4
REMARK VINA RESULT:      -8.7      5.743      8.931
REMARK  8 active torsions:
REMARK  status: ('A' for Active; 'I' for Inactive)
REMARK    1  A    between atoms: C_7  and  C_8 
REMARK       I    between atoms: C_8  and  N_9 
REMARK    2  A    between atoms: N_9  and  N_10 
REMARK    3  A    between atoms: N_10  and  C_11 
REMARK    4  A    between atoms: C_11  and  N_12 
REMARK    5  A    between atoms: N_12  and  C_13 
REMARK    6  A    between atoms: N_15  and  C_16 
REMARK    7  A    between atoms: C_16  and  C_17 
REMARK    8  A    between atoms: C_29  and  C_30 
ROOT
HETATM    1  C   UNL     1      41.431 -15.690   2.462  1.00  0.00     0.290 C 
HETATM    2  N   UNL     1      40.293 -15.561   3.233  1.00  0.00    -0.262 N 
HETATM    3  O   UNL     1      42.536 -16.009   2.891  1.00  0.00    -0.264 OA
HETATM    4  H   UNL     1      39.404 -15.404   2.757  1.00  0.00     0.190 HD
ENDROOT
BRANCH   2   5
HETATM    5  N   UNL     1      40.270 -15.961   4.567  1.00  0.00    -0.273 N 
HETATM    6  H   UNL     1      40.175 -16.963   4.768  1.00  0.00     0.189 HD
BRANCH   5   7
HETATM    7  C   UNL     1      40.677 -15.126   5.573  1.00  0.00     0.192 C 
HETATM    8  S   UNL     1      40.358 -13.480   5.633  1.00  0.00    -0.039 SA
BRANCH   7   9
HETATM    9  N   UNL     1      41.404 -15.671   6.593  1.00  0.00    -0.315 N 
HETATM   10  H   UNL     1      41.079 -15.448   7.523  1.00  0.00     0.170 HD
BRANCH   9  11
HETATM   11  C   UNL     1      42.563 -16.412   6.504  1.00  0.00     0.151 A 
HETATM   12  N   UNL     1      42.605 -17.741   6.377  1.00  0.00    -0.154 NA
HETATM   13  N   UNL     1      43.923 -18.028   6.303  1.00  0.00    -0.275 N 
HETATM   14  C   UNL     1      44.717 -16.920   6.391  1.00  0.00     0.116 A 
HETATM   15  C   UNL     1      43.861 -15.854   6.527  1.00  0.00     0.071 A 
BRANCH  13  16
HETATM   16  C   UNL     1      44.369 -19.412   6.228  1.00  0.00     0.192 C 
BRANCH  16  17
HETATM   17  C   UNL     1      44.313 -19.940   4.824  1.00  0.00     0.000 A 
HETATM   18  C   UNL     1      44.666 -21.264   4.552  1.00  0.00     0.124 A 
HETATM   19  F   UNL     1      45.048 -22.069   5.555  1.00  0.00    -0.205 F 
HETATM   20  C   UNL     1      44.625 -21.775   3.258  1.00  0.00     0.043 A 
HETATM   21  C   UNL     1      44.225 -20.952   2.206  1.00  0.00     0.003 A 
HETATM   22  C   UNL     1      43.878 -19.624   2.455  1.00  0.00     0.001 A 
HETATM   23  C   UNL     1      43.926 -19.117   3.756  1.00  0.00     0.012 A 
ENDBRANCH  16  17
ENDBRANCH  13  16
ENDBRANCH   9  11
ENDBRANCH   7   9
ENDBRANCH   5   7
ENDBRANCH   2   5
BRANCH   1  24
HETATM   24  C   UNL     1      41.169 -15.397   1.043  1.00  0.00     0.150 A 
HETATM   25  N   UNL     1      40.531 -14.268   0.661  1.00  0.00    -0.165 NA
HETATM   26  N   UNL     1      40.469 -14.369  -0.677  1.00  0.00    -0.240 N 
HETATM   27  C   UNL     1      41.072 -15.491  -1.175  1.00  0.00     0.123 A 
HETATM   28  C   UNL     1      39.899 -13.310  -1.485  1.00  0.00     0.221 C 
HETATM   29  N   UNL     1      41.158 -15.722  -2.503  1.00  0.00    -0.371 N 
HETATM   30  C   UNL     1      41.524 -16.189  -0.084  1.00  0.00     0.089 A 
HETATM   31  C   UNL     1      40.423 -14.908  -3.463  1.00  0.00     0.081 C 
HETATM   32  H   UNL     1      41.473 -16.631  -2.841  1.00  0.00     0.161 HD
HETATM   33  C   UNL     1      39.096 -15.574  -3.806  1.00  0.00     0.032 C 
HETATM   34  C   UNL     1      40.312 -13.459  -2.962  1.00  0.00     0.061 C 
BRANCH  28  35
HETATM   35  C   UNL     1      38.402 -13.219  -1.286  1.00  0.00     0.409 C 
HETATM   36  F   UNL     1      38.059 -12.354  -0.305  1.00  0.00    -0.169 F 
HETATM   37  F   UNL     1      37.816 -12.752  -2.421  1.00  0.00    -0.169 F 
HETATM   38  F   UNL     1      37.819 -14.401  -1.011  1.00  0.00    -0.169 F 
ENDBRANCH  28  35
ENDBRANCH   1  24
TORSDOF 8
ENDMDL
MODEL 5
REMARK VINA RESULT:      -8.5      1.764      2.502
REMARK  8 active torsions:
REMARK  status: ('A' for Active; 'I' for Inactive)
REMARK    1  A    between atoms: C_7  and  C_8 
REMARK       I    between atoms: C_8  and  N_9 
REMARK    2  A    between atoms: N_9  and  N_10 
REMARK    3  A    between atoms: N_10  and  C_11 
REMARK    4  A    between atoms: C_11  and  N_12 
REMARK    5  A    between atoms: N_12  and  C_13 
REMARK    6  A    between atoms: N_15  and  C_16 
REMARK    7  A    between atoms: C_16  and  C_17 
REMARK    8  A    between atoms: C_29  and  C_30 
ROOT
HETATM    1  C   UNL     1      39.338 -10.759   8.471  1.00  0.00     0.290 C 
HETATM    2  N   UNL     1      39.693 -12.082   8.307  1.00  0.00    -0.262 N 
HETATM    3  O   UNL     1      38.676 -10.106   7.669  1.00  0.00    -0.264 OA
HETATM    4  H   UNL     1      40.146 -12.560   9.088  1.00  0.00     0.190 HD
ENDROOT
BRANCH   2   5
HETATM    5  N   UNL     1      39.168 -12.853   7.272  1.00  0.00    -0.273 N 
HETATM    6  H   UNL     1      38.153 -13.005   7.253  1.00  0.00     0.189 HD
BRANCH   5   7
HETATM    7  C   UNL     1      39.896 -13.133   6.147  1.00  0.00     0.192 C 
HETATM    8  S   UNL     1      40.830 -12.016   5.313  1.00  0.00    -0.039 SA
BRANCH   7   9
HETATM    9  N   UNL     1      39.847 -14.410   5.663  1.00  0.00    -0.315 N 
HETATM   10  H   UNL     1      39.006 -14.650   5.158  1.00  0.00     0.170 HD
BRANCH   9  11
HETATM   11  C   UNL     1      40.765 -15.421   5.854  1.00  0.00     0.151 A 
HETATM   12  N   UNL     1      42.043 -15.368   5.467  1.00  0.00    -0.154 NA
HETATM   13  N   UNL     1      42.563 -16.547   5.873  1.00  0.00    -0.275 N 
HETATM   14  C   UNL     1      41.649 -17.349   6.495  1.00  0.00     0.116 A 
HETATM   15  C   UNL     1      40.469 -16.646   6.492  1.00  0.00     0.071 A 
BRANCH  13  16
HETATM   16  C   UNL     1      43.944 -16.884   5.560  1.00  0.00     0.192 C 
BRANCH  16  17
HETATM   17  C   UNL     1      44.033 -17.946   4.502  1.00  0.00     0.000 A 
HETATM   18  C   UNL     1      43.797 -17.629   3.162  1.00  0.00     0.124 A 
HETATM   19  F   UNL     1      43.499 -16.367   2.820  1.00  0.00    -0.205 F 
HETATM   20  C   UNL     1      43.871 -18.597   2.164  1.00  0.00     0.043 A 
HETATM   21  C   UNL     1      44.185 -19.912   2.503  1.00  0.00     0.003 A 
HETATM   22  C   UNL     1      44.415 -20.251   3.837  1.00  0.00     0.001 A 
HETATM   23  C   UNL     1      44.335 -19.275   4.834  1.00  0.00     0.012 A 
ENDBRANCH  16  17
ENDBRANCH  13  16
ENDBRANCH   9  11
ENDBRANCH   7   9
ENDBRANCH   5   7
ENDBRANCH   2   5
BRANCH   1  24
HETATM   24  C   UNL     1      39.851 -10.205   9.736  1.00  0.00     0.150 A 
HETATM   25  N   UNL     1      41.152  -9.866   9.882  1.00  0.00    -0.165 NA
HETATM   26  N   UNL     1      41.230  -9.426  11.149  1.00  0.00    -0.240 N 
HETATM   27  C   UNL     1      40.033  -9.430  11.810  1.00  0.00     0.123 A 
HETATM   28  C   UNL     1      42.469  -8.905  11.689  1.00  0.00     0.221 C 
HETATM   29  N   UNL     1      39.915  -8.962  13.072  1.00  0.00    -0.371 N 
HETATM   30  C   UNL     1      39.118  -9.945  10.927  1.00  0.00     0.089 A 
HETATM   31  C   UNL     1      41.090  -8.637  13.872  1.00  0.00     0.081 C 
HETATM   32  H   UNL     1      39.052  -9.117  13.593  1.00  0.00     0.161 HD
HETATM   33  C   UNL     1      41.476  -9.827  14.741  1.00  0.00     0.032 C 
HETATM   34  C   UNL     1      42.215  -8.096  12.975  1.00  0.00     0.061 C 
BRANCH  28  35
HETATM   35  C   UNL     1      43.492 -10.006  11.863  1.00  0.00     0.409 C 
HETATM   36  F   UNL     1      44.365 -10.073  10.834  1.00  0.00    -0.169 F 
HETATM   37  F   UNL     1      44.239  -9.765  12.975  1.00  0.00    -0.169 F 
HETATM   38  F   UNL     1      42.950 -11.229  12.022  1.00  0.00    -0.169 F 
ENDBRANCH  28  35
ENDBRANCH   1  24
TORSDOF 8
ENDMDL
MODEL 6
REMARK VINA RESULT:      -8.5      4.898      8.630
REMARK  8 active torsions:
REMARK  status: ('A' for Active; 'I' for Inactive)
REMARK    1  A    between atoms: C_7  and  C_8 
REMARK       I    between atoms: C_8  and  N_9 
REMARK    2  A    between atoms: N_9  and  N_10 
REMARK    3  A    between atoms: N_10  and  C_11 
REMARK    4  A    between atoms: C_11  and  N_12 
REMARK    5  A    between atoms: N_12  and  C_13 
REMARK    6  A    between atoms: N_15  and  C_16 
REMARK    7  A    between atoms: C_16  and  C_17 
REMARK    8  A    between atoms: C_29  and  C_30 
ROOT
HETATM    1  C   UNL     1      41.963 -13.432   2.339  1.00  0.00     0.290 C 
HETATM    2  N   UNL     1      41.075 -13.154   3.358  1.00  0.00    -0.262 N 
HETATM    3  O   UNL     1      43.185 -13.462   2.463  1.00  0.00    -0.264 OA
HETATM    4  H   UNL     1      40.078 -13.269   3.172  1.00  0.00     0.190 HD
ENDROOT
BRANCH   2   5
HETATM    5  N   UNL     1      41.496 -13.053   4.682  1.00  0.00    -0.273 N 
HETATM    6  H   UNL     1      42.223 -12.365   4.906  1.00  0.00     0.189 HD
BRANCH   5   7
HETATM    7  C   UNL     1      40.770 -13.598   5.708  1.00  0.00     0.192 C 
HETATM    8  S   UNL     1      39.444 -12.867   6.431  1.00  0.00    -0.039 SA
BRANCH   7   9
HETATM    9  N   UNL     1      41.162 -14.818   6.183  1.00  0.00    -0.315 N 
HETATM   10  H   UNL     1      41.171 -14.908   7.189  1.00  0.00     0.170 HD
BRANCH   9  11
HETATM   11  C   UNL     1      41.620 -15.898   5.460  1.00  0.00     0.151 A 
HETATM   12  N   UNL     1      42.681 -15.872   4.647  1.00  0.00    -0.154 NA
HETATM   13  N   UNL     1      42.773 -17.136   4.179  1.00  0.00    -0.275 N 
HETATM   14  C   UNL     1      41.797 -17.958   4.663  1.00  0.00     0.116 A 
HETATM   15  C   UNL     1      41.028 -17.180   5.495  1.00  0.00     0.071 A 
BRANCH  13  16
HETATM   16  C   UNL     1      43.788 -17.479   3.193  1.00  0.00     0.192 C 
BRANCH  16  17
HETATM   17  C   UNL     1      43.969 -18.965   3.073  1.00  0.00     0.000 A 
HETATM   18  C   UNL     1      44.648 -19.676   4.064  1.00  0.00     0.124 A 
HETATM   19  F   UNL     1      45.134 -19.028   5.133  1.00  0.00    -0.205 F 
HETATM   20  C   UNL     1      44.830 -21.053   3.974  1.00  0.00     0.043 A 
HETATM   21  C   UNL     1      44.327 -21.743   2.872  1.00  0.00     0.003 A 
HETATM   22  C   UNL     1      43.653 -21.049   1.867  1.00  0.00     0.001 A 
HETATM   23  C   UNL     1      43.478 -19.666   1.962  1.00  0.00     0.012 A 
ENDBRANCH  16  17
ENDBRANCH  13  16
ENDBRANCH   9  11
ENDBRANCH   7   9
ENDBRANCH   5   7
ENDBRANCH   2   5
BRANCH   1  24
HETATM   24  C   UNL     1      41.274 -13.692   1.064  1.00  0.00     0.150 A 
HETATM   25  N   UNL     1      41.954 -13.798  -0.099  1.00  0.00    -0.165 NA
HETATM   26  N   UNL     1      40.996 -14.014  -1.015  1.00  0.00    -0.240 N 
HETATM   27  C   UNL     1      39.736 -14.090  -0.489  1.00  0.00     0.123 A 
HETATM   28  C   UNL     1      41.326 -14.244  -2.407  1.00  0.00     0.221 C 
HETATM   29  N   UNL     1      38.660 -14.365  -1.258  1.00  0.00    -0.371 N 
HETATM   30  C   UNL     1      39.878 -13.870   0.857  1.00  0.00     0.089 A 
HETATM   31  C   UNL     1      38.751 -14.372  -2.713  1.00  0.00     0.081 C 
HETATM   32  H   UNL     1      37.721 -14.265  -0.873  1.00  0.00     0.161 HD
HETATM   33  C   UNL     1      38.343 -13.014  -3.271  1.00  0.00     0.032 C 
HETATM   34  C   UNL     1      40.136 -14.867  -3.161  1.00  0.00     0.061 C 
BRANCH  28  35
HETATM   35  C   UNL     1      41.855 -12.984  -3.056  1.00  0.00     0.409 C 
HETATM   36  F   UNL     1      41.503 -12.881  -4.357  1.00  0.00    -0.169 F 
HETATM   37  F   UNL     1      41.329 -11.893  -2.437  1.00  0.00    -0.169 F 
HETATM   38  F   UNL     1      43.194 -12.858  -2.983  1.00  0.00    -0.169 F 
ENDBRANCH  28  35
ENDBRANCH   1  24
TORSDOF 8
ENDMDL
MODEL 7
REMARK VINA RESULT:      -8.5      2.260      2.609
REMARK  8 active torsions:
REMARK  status: ('A' for Active; 'I' for Inactive)
REMARK    1  A    between atoms: C_7  and  C_8 
REMARK       I    between atoms: C_8  and  N_9 
REMARK    2  A    between atoms: N_9  and  N_10 
REMARK    3  A    between atoms: N_10  and  C_11 
REMARK    4  A    between atoms: C_11  and  N_12 
REMARK    5  A    between atoms: N_12  and  C_13 
REMARK    6  A    between atoms: N_15  and  C_16 
REMARK    7  A    between atoms: C_16  and  C_17 
REMARK    8  A    between atoms: C_29  and  C_30 
ROOT
HETATM    1  C   UNL     1      41.784 -10.730   7.309  1.00  0.00     0.290 C 
HETATM    2  N   UNL     1      42.295 -12.011   7.342  1.00  0.00    -0.262 N 
HETATM    3  O   UNL     1      41.357 -10.171   6.303  1.00  0.00    -0.264 OA
HETATM    4  H   UNL     1      42.516 -12.418   8.252  1.00  0.00     0.190 HD
ENDROOT
BRANCH   2   5
HETATM    5  N   UNL     1      42.205 -12.859   6.240  1.00  0.00    -0.273 N 
HETATM    6  H   UNL     1      41.591 -12.580   5.467  1.00  0.00     0.189 HD
BRANCH   5   7
HETATM    7  C   UNL     1      43.121 -13.853   6.024  1.00  0.00     0.192 C 
HETATM    8  S   UNL     1      44.594 -13.982   6.819  1.00  0.00    -0.039 SA
BRANCH   7   9
HETATM    9  N   UNL     1      42.819 -14.800   5.087  1.00  0.00    -0.315 N 
HETATM   10  H   UNL     1      42.407 -14.449   4.234  1.00  0.00     0.170 HD
BRANCH   9  11
HETATM   11  C   UNL     1      42.932 -16.169   5.202  1.00  0.00     0.151 A 
HETATM   12  N   UNL     1      44.085 -16.842   5.139  1.00  0.00    -0.154 NA
HETATM   13  N   UNL     1      43.728 -18.132   5.322  1.00  0.00    -0.275 N 
HETATM   14  C   UNL     1      42.382 -18.296   5.488  1.00  0.00     0.116 A 
HETATM   15  C   UNL     1      41.837 -17.037   5.409  1.00  0.00     0.071 A 
BRANCH  13  16
HETATM   16  C   UNL     1      44.729 -19.187   5.248  1.00  0.00     0.192 C 
BRANCH  16  17
HETATM   17  C   UNL     1      44.476 -20.115   4.095  1.00  0.00     0.000 A 
HETATM   18  C   UNL     1      44.732 -21.482   4.219  1.00  0.00     0.124 A 
HETATM   19  F   UNL     1      45.197 -21.969   5.379  1.00  0.00    -0.205 F 
HETATM   20  C   UNL     1      44.507 -22.361   3.163  1.00  0.00     0.043 A 
HETATM   21  C   UNL     1      44.019 -21.872   1.953  1.00  0.00     0.003 A 
HETATM   22  C   UNL     1      43.766 -20.508   1.805  1.00  0.00     0.001 A 
HETATM   23  C   UNL     1      43.997 -19.631   2.868  1.00  0.00     0.012 A 
ENDBRANCH  16  17
ENDBRANCH  13  16
ENDBRANCH   9  11
ENDBRANCH   7   9
ENDBRANCH   5   7
ENDBRANCH   2   5
BRANCH   1  24
HETATM   24  C   UNL     1      41.809 -10.094   8.638  1.00  0.00     0.150 A 
HETATM   25  N   UNL     1      42.628 -10.538   9.618  1.00  0.00    -0.165 NA
HETATM   26  N   UNL     1      42.354  -9.732  10.657  1.00  0.00    -0.240 N 
HETATM   27  C   UNL     1      41.425  -8.767  10.378  1.00  0.00     0.123 A 
HETATM   28  C   UNL     1      43.077  -9.845  11.907  1.00  0.00     0.221 C 
HETATM   29  N   UNL     1      41.076  -7.832  11.287  1.00  0.00    -0.371 N 
HETATM   30  C   UNL     1      41.039  -8.983   9.079  1.00  0.00     0.089 A 
HETATM   31  C   UNL     1      41.498  -7.934  12.679  1.00  0.00     0.081 C 
HETATM   32  H   UNL     1      40.277  -7.224  11.110  1.00  0.00     0.161 HD
HETATM   33  C   UNL     1      40.415  -8.615  13.507  1.00  0.00     0.032 C 
HETATM   34  C   UNL     1      42.889  -8.583  12.770  1.00  0.00     0.061 C 
BRANCH  28  35
HETATM   35  C   UNL     1      42.719 -11.125  12.629  1.00  0.00     0.409 C 
HETATM   36  F   UNL     1      42.699 -10.978  13.972  1.00  0.00    -0.169 F 
HETATM   37  F   UNL     1      41.465 -11.516  12.274  1.00  0.00    -0.169 F 
HETATM   38  F   UNL     1      43.538 -12.156  12.342  1.00  0.00    -0.169 F 
ENDBRANCH  28  35
ENDBRANCH   1  24
TORSDOF 8
ENDMDL
MODEL 8
REMARK VINA RESULT:      -8.4      2.128      2.937
REMARK  8 active torsions:
REMARK  status: ('A' for Active; 'I' for Inactive)
REMARK    1  A    between atoms: C_7  and  C_8 
REMARK       I    between atoms: C_8  and  N_9 
REMARK    2  A    between atoms: N_9  and  N_10 
REMARK    3  A    between atoms: N_10  and  C_11 
REMARK    4  A    between atoms: C_11  and  N_12 
REMARK    5  A    between atoms: N_12  and  C_13 
REMARK    6  A    between atoms: N_15  and  C_16 
REMARK    7  A    between atoms: C_16  and  C_17 
REMARK    8  A    between atoms: C_29  and  C_30 
ROOT
HETATM    1  C   UNL     1      39.859 -11.145   8.690  1.00  0.00     0.290 C 
HETATM    2  N   UNL     1      40.926 -11.448   7.869  1.00  0.00    -0.262 N 
HETATM    3  O   UNL     1      38.711 -11.549   8.526  1.00  0.00    -0.264 OA
HETATM    4  H   UNL     1      41.858 -11.154   8.161  1.00  0.00     0.190 HD
ENDROOT
BRANCH   2   5
HETATM    5  N   UNL     1      40.818 -12.403   6.859  1.00  0.00    -0.273 N 
HETATM    6  H   UNL     1      39.939 -12.926   6.784  1.00  0.00     0.189 HD
BRANCH   5   7
HETATM    7  C   UNL     1      41.695 -12.437   5.808  1.00  0.00     0.192 C 
HETATM    8  S   UNL     1      41.375 -11.821   4.280  1.00  0.00    -0.039 SA
BRANCH   7   9
HETATM    9  N   UNL     1      42.910 -13.025   6.016  1.00  0.00    -0.315 N 
HETATM   10  H   UNL     1      43.705 -12.403   5.969  1.00  0.00     0.170 HD
BRANCH   9  11
HETATM   11  C   UNL     1      43.182 -14.364   6.197  1.00  0.00     0.151 A 
HETATM   12  N   UNL     1      42.387 -15.360   5.795  1.00  0.00    -0.154 NA
HETATM   13  N   UNL     1      43.051 -16.481   6.152  1.00  0.00    -0.275 N 
HETATM   14  C   UNL     1      44.236 -16.224   6.779  1.00  0.00     0.116 A 
HETATM   15  C   UNL     1      44.347 -14.855   6.828  1.00  0.00     0.071 A 
BRANCH  13  16
HETATM   16  C   UNL     1      42.449 -17.789   5.934  1.00  0.00     0.192 C 
BRANCH  16  17
HETATM   17  C   UNL     1      43.093 -18.514   4.788  1.00  0.00     0.000 A 
HETATM   18  C   UNL     1      44.082 -19.472   5.024  1.00  0.00     0.124 A 
HETATM   19  F   UNL     1      44.451 -19.750   6.283  1.00  0.00    -0.205 F 
HETATM   20  C   UNL     1      44.695 -20.155   3.978  1.00  0.00     0.043 A 
HETATM   21  C   UNL     1      44.319 -19.881   2.664  1.00  0.00     0.003 A 
HETATM   22  C   UNL     1      43.340 -18.921   2.406  1.00  0.00     0.001 A 
HETATM   23  C   UNL     1      42.732 -18.236   3.461  1.00  0.00     0.012 A 
ENDBRANCH  16  17
ENDBRANCH  13  16
ENDBRANCH   9  11
ENDBRANCH   7   9
ENDBRANCH   5   7
ENDBRANCH   2   5
BRANCH   1  24
HETATM   24  C   UNL     1      40.256 -10.266   9.803  1.00  0.00     0.150 A 
HETATM   25  N   UNL     1      41.553 -10.102  10.146  1.00  0.00    -0.165 NA
HETATM   26  N   UNL     1      41.507  -9.260  11.191  1.00  0.00    -0.240 N 
HETATM   27  C   UNL     1      40.244  -8.845  11.511  1.00  0.00     0.123 A 
HETATM   28  C   UNL     1      42.718  -8.780  11.824  1.00  0.00     0.221 C 
HETATM   29  N   UNL     1      40.017  -7.949  12.496  1.00  0.00    -0.371 N 
HETATM   30  C   UNL     1      39.405  -9.491  10.639  1.00  0.00     0.089 A 
HETATM   31  C   UNL     1      41.077  -7.548  13.413  1.00  0.00     0.081 C 
HETATM   32  H   UNL     1      39.065  -7.775  12.815  1.00  0.00     0.161 HD
HETATM   33  C   UNL     1      41.025  -8.398  14.677  1.00  0.00     0.032 C 
HETATM   34  C   UNL     1      42.434  -7.540  12.693  1.00  0.00     0.061 C 
BRANCH  28  35
HETATM   35  C   UNL     1      43.418  -9.892  12.575  1.00  0.00     0.409 C 
HETATM   36  F   UNL     1      43.993  -9.466  13.721  1.00  0.00    -0.169 F 
HETATM   37  F   UNL     1      42.512 -10.840  12.938  1.00  0.00    -0.169 F 
HETATM   38  F   UNL     1      44.364 -10.522  11.852  1.00  0.00    -0.169 F 
ENDBRANCH  28  35
ENDBRANCH   1  24
TORSDOF 8
ENDMDL
MODEL 9
REMARK VINA RESULT:      -8.4      1.223      1.658
REMARK  8 active torsions:
REMARK  status: ('A' for Active; 'I' for Inactive)
REMARK    1  A    between atoms: C_7  and  C_8 
REMARK       I    between atoms: C_8  and  N_9 
REMARK    2  A    between atoms: N_9  and  N_10 
REMARK    3  A    between atoms: N_10  and  C_11 
REMARK    4  A    between atoms: C_11  and  N_12 
REMARK    5  A    between atoms: N_12  and  C_13 
REMARK    6  A    between atoms: N_15  and  C_16 
REMARK    7  A    between atoms: C_16  and  C_17 
REMARK    8  A    between atoms: C_29  and  C_30 
ROOT
HETATM    1  C   UNL     1      39.560 -11.962   6.770  1.00  0.00     0.290 C 
HETATM    2  N   UNL     1      39.870 -13.306   6.724  1.00  0.00    -0.262 N 
HETATM    3  O   UNL     1      39.096 -11.318   5.833  1.00  0.00    -0.264 OA
HETATM    4  H   UNL     1      40.142 -13.768   7.593  1.00  0.00     0.190 HD
ENDROOT
BRANCH   2   5
HETATM    5  N   UNL     1      39.508 -14.099   5.637  1.00  0.00    -0.273 N 
HETATM    6  H   UNL     1      38.784 -13.745   5.002  1.00  0.00     0.189 HD
BRANCH   5   7
HETATM    7  C   UNL     1      40.284 -15.150   5.226  1.00  0.00     0.192 C 
HETATM    8  S   UNL     1      41.152 -16.153   6.255  1.00  0.00    -0.039 SA
BRANCH   7   9
HETATM    9  N   UNL     1      40.366 -15.390   3.884  1.00  0.00    -0.315 N 
HETATM   10  H   UNL     1      39.538 -15.161   3.352  1.00  0.00     0.170 HD
BRANCH   9  11
HETATM   11  C   UNL     1      41.403 -15.979   3.192  1.00  0.00     0.151 A 
HETATM   12  N   UNL     1      41.441 -17.265   2.833  1.00  0.00    -0.154 NA
HETATM   13  N   UNL     1      42.609 -17.391   2.167  1.00  0.00    -0.275 N 
HETATM   14  C   UNL     1      43.317 -16.225   2.103  1.00  0.00     0.116 A 
HETATM   15  C   UNL     1      42.560 -15.290   2.767  1.00  0.00     0.071 A 
BRANCH  13  16
HETATM   16  C   UNL     1      43.035 -18.694   1.675  1.00  0.00     0.192 C 
BRANCH  16  17
HETATM   17  C   UNL     1      43.705 -19.503   2.748  1.00  0.00     0.000 A 
HETATM   18  C   UNL     1      44.066 -20.831   2.510  1.00  0.00     0.124 A 
HETATM   19  F   UNL     1      43.821 -21.382   1.313  1.00  0.00    -0.205 F 
HETATM   20  C   UNL     1      44.686 -21.601   3.490  1.00  0.00     0.043 A 
HETATM   21  C   UNL     1      44.953 -21.041   4.738  1.00  0.00     0.003 A 
HETATM   22  C   UNL     1      44.591 -19.719   4.999  1.00  0.00     0.001 A 
HETATM   23  C   UNL     1      43.966 -18.953   4.012  1.00  0.00     0.012 A 
ENDBRANCH  16  17
ENDBRANCH  13  16
ENDBRANCH   9  11
ENDBRANCH   7   9
ENDBRANCH   5   7
ENDBRANCH   2   5
BRANCH   1  24
HETATM   24  C   UNL     1      39.856 -11.375   8.088  1.00  0.00     0.150 A 
HETATM   25  N   UNL     1      41.037 -10.771   8.343  1.00  0.00    -0.165 NA
HETATM   26  N   UNL     1      40.934 -10.388   9.627  1.00  0.00    -0.240 N 
HETATM   27  C   UNL     1      39.726 -10.685  10.195  1.00  0.00     0.123 A 
HETATM   28  C   UNL     1      41.990  -9.640  10.276  1.00  0.00     0.221 C 
HETATM   29  N   UNL     1      39.426 -10.317  11.460  1.00  0.00    -0.371 N 
HETATM   30  C   UNL     1      39.007 -11.340   9.229  1.00  0.00     0.089 A 
HETATM   31  C   UNL     1      40.446  -9.787  12.357  1.00  0.00     0.081 C 
HETATM   32  H   UNL     1      38.586 -10.681  11.909  1.00  0.00     0.161 HD
HETATM   33  C   UNL     1      41.026 -10.908  13.211  1.00  0.00     0.032 C 
HETATM   34  C   UNL     1      41.481  -8.971  11.567  1.00  0.00     0.061 C 
BRANCH  28  35
HETATM   35  C   UNL     1      43.216 -10.501  10.488  1.00  0.00     0.409 C 
HETATM   36  F   UNL     1      43.964 -10.093  11.537  1.00  0.00    -0.169 F 
HETATM   37  F   UNL     1      42.837 -11.777  10.769  1.00  0.00    -0.169 F 
HETATM   38  F   UNL     1      44.023 -10.569   9.412  1.00  0.00    -0.169 F 
ENDBRANCH  28  35
ENDBRANCH   1  24
TORSDOF 8
ENDMDL
MODEL 10
REMARK VINA RESULT:      -8.4      5.087      8.864
REMARK  8 active torsions:
REMARK  status: ('A' for Active; 'I' for Inactive)
REMARK    1  A    between atoms: C_7  and  C_8 
REMARK       I    between atoms: C_8  and  N_9 
REMARK    2  A    between atoms: N_9  and  N_10 
REMARK    3  A    between atoms: N_10  and  C_11 
REMARK    4  A    between atoms: C_11  and  N_12 
REMARK    5  A    between atoms: N_12  and  C_13 
REMARK    6  A    between atoms: N_15  and  C_16 
REMARK    7  A    between atoms: C_16  and  C_17 
REMARK    8  A    between atoms: C_29  and  C_30 
ROOT
HETATM    1  C   UNL     1      42.628 -13.218   2.529  1.00  0.00     0.290 C 
HETATM    2  N   UNL     1      41.842 -12.218   3.063  1.00  0.00    -0.262 N 
HETATM    3  O   UNL     1      43.610 -13.708   3.080  1.00  0.00    -0.264 OA
HETATM    4  H   UNL     1      40.984 -11.965   2.572  1.00  0.00     0.190 HD
ENDROOT
BRANCH   2   5
HETATM    5  N   UNL     1      42.001 -11.793   4.381  1.00  0.00    -0.273 N 
HETATM    6  H   UNL     1      42.184 -10.798   4.547  1.00  0.00     0.189 HD
BRANCH   5   7
HETATM    7  C   UNL     1      41.618 -12.576   5.438  1.00  0.00     0.192 C 
HETATM    8  S   UNL     1      40.025 -12.861   5.884  1.00  0.00    -0.039 SA
BRANCH   7   9
HETATM    9  N   UNL     1      42.602 -13.155   6.187  1.00  0.00    -0.315 N 
HETATM   10  H   UNL     1      43.176 -12.514   6.717  1.00  0.00     0.170 HD
BRANCH   9  11
HETATM   11  C   UNL     1      42.952 -14.487   6.238  1.00  0.00     0.151 A 
HETATM   12  N   UNL     1      42.205 -15.486   5.759  1.00  0.00    -0.154 NA
HETATM   13  N   UNL     1      42.938 -16.595   6.000  1.00  0.00    -0.275 N 
HETATM   14  C   UNL     1      44.122 -16.329   6.626  1.00  0.00     0.116 A 
HETATM   15  C   UNL     1      44.157 -14.966   6.799  1.00  0.00     0.071 A 
BRANCH  13  16
HETATM   16  C   UNL     1      42.406 -17.910   5.672  1.00  0.00     0.192 C 
BRANCH  16  17
HETATM   17  C   UNL     1      42.835 -18.361   4.306  1.00  0.00     0.000 A 
HETATM   18  C   UNL     1      42.130 -17.951   3.172  1.00  0.00     0.124 A 
HETATM   19  F   UNL     1      41.069 -17.143   3.306  1.00  0.00    -0.205 F 
HETATM   20  C   UNL     1      42.509 -18.358   1.896  1.00  0.00     0.043 A 
HETATM   21  C   UNL     1      43.613 -19.194   1.740  1.00  0.00     0.003 A 
HETATM   22  C   UNL     1      44.326 -19.622   2.860  1.00  0.00     0.001 A 
HETATM   23  C   UNL     1      43.937 -19.213   4.139  1.00  0.00     0.012 A 
ENDBRANCH  16  17
ENDBRANCH  13  16
ENDBRANCH   9  11
ENDBRANCH   7   9
ENDBRANCH   5   7
ENDBRANCH   2   5
BRANCH   1  24
HETATM   24  C   UNL     1      42.152 -13.640   1.201  1.00  0.00     0.150 A 
HETATM   25  N   UNL     1      42.394 -12.900   0.096  1.00  0.00    -0.165 NA
HETATM   26  N   UNL     1      41.800 -13.590  -0.892  1.00  0.00    -0.240 N 
HETATM   27  C   UNL     1      41.223 -14.759  -0.479  1.00  0.00     0.123 A 
HETATM   28  C   UNL     1      41.882 -13.152  -2.270  1.00  0.00     0.221 C 
HETATM   29  N   UNL     1      40.636 -15.609  -1.349  1.00  0.00    -0.371 N 
HETATM   30  C   UNL     1      41.419 -14.816   0.878  1.00  0.00     0.089 A 
HETATM   31  C   UNL     1      40.390 -15.225  -2.734  1.00  0.00     0.081 C 
HETATM   32  H   UNL     1      40.082 -16.391  -1.001  1.00  0.00     0.161 HD
HETATM   33  C   UNL     1      38.975 -14.678  -2.882  1.00  0.00     0.032 C 
HETATM   34  C   UNL     1      41.502 -14.290  -3.236  1.00  0.00     0.061 C 
BRANCH  28  35
HETATM   35  C   UNL     1      41.081 -11.887  -2.487  1.00  0.00     0.409 C 
HETATM   36  F   UNL     1      41.824 -10.768  -2.342  1.00  0.00    -0.169 F 
HETATM   37  F   UNL     1      40.604 -11.860  -3.761  1.00  0.00    -0.169 F 
HETATM   38  F   UNL     1      40.012 -11.776  -1.674  1.00  0.00    -0.169 F 
ENDBRANCH  28  35
ENDBRANCH   1  24
TORSDOF 8
ENDMDL
