MODEL 1
REMARK VINA RESULT:      -7.7      0.000      0.000
REMARK  6 active torsions:
REMARK  status: ('A' for Active; 'I' for Inactive)
REMARK    1  A    between atoms: C_2  and  C_3 
REMARK    2  A    between atoms: C_2  and  C_9 
REMARK    3  A    between atoms: C_9  and  N_10 
REMARK       I    between atoms: N_10  and  C_11 
REMARK    4  A    between atoms: C_11  and  C_12 
REMARK    5  A    between atoms: C_13  and  O_14 
REMARK    6  A    between atoms: O_14  and  C_15 
ROOT
HETATM    1  N   UNL     1      42.088 -17.619   2.310  1.00  0.00    -0.356 N 
HETATM    2  C   UNL     1      43.416 -17.899   2.540  1.00  0.00     0.254 C 
HETATM    3  O   UNL     1      44.314 -17.490   1.810  1.00  0.00    -0.268 OA
HETATM    4  H   UNL     1      41.394 -18.021   2.930  1.00  0.00     0.162 HD
ENDROOT
BRANCH   2   5
HETATM    5  C   UNL     1      43.750 -18.760   3.722  1.00  0.00     0.067 A 
HETATM    6  C   UNL     1      44.333 -20.042   3.646  1.00  0.00     0.090 A 
HETATM    7  C   UNL     1      44.645 -20.731   4.828  1.00  0.00     0.040 A 
HETATM    8  C   UNL     1      44.333 -20.183   6.074  1.00  0.00     0.026 A 
HETATM    9  C   UNL     1      43.721 -18.936   6.146  1.00  0.00     0.035 A 
HETATM   10 CL   UNL     1      43.334 -18.265   7.682  1.00  0.00    -0.084 Cl
HETATM   11  C   UNL     1      43.434 -18.226   4.985  1.00  0.00     0.043 A 
BRANCH   6  12
HETATM   12  O   UNL     1      44.637 -20.562   2.412  1.00  0.00    -0.289 OA
BRANCH  12  13
HETATM   13  C   UNL     1      43.807 -21.640   1.995  1.00  0.00     0.505 C 
HETATM   14  F   UNL     1      42.601 -21.107   1.678  1.00  0.00    -0.184 F 
HETATM   15  F   UNL     1      44.314 -22.159   0.850  1.00  0.00    -0.184 F 
ENDBRANCH  12  13
ENDBRANCH   6  12
ENDBRANCH   2   5
BRANCH   1  16
HETATM   16  C   UNL     1      41.632 -16.783   1.212  1.00  0.00     0.136 C 
BRANCH  16  17
HETATM   17  C   UNL     1      41.088 -15.391   1.666  1.00  0.00    -0.004 C 
HETATM   18  C   UNL     1      39.552 -15.509   1.817  1.00  0.00     0.021 C 
HETATM   19  C   UNL     1      41.354 -14.382   0.524  1.00  0.00     0.021 C 
BRANCH  17  20
HETATM   20  C   UNL     1      41.784 -14.863   2.932  1.00  0.00    -0.046 A 
HETATM   21  C   UNL     1      41.197 -14.925   4.204  1.00  0.00     0.027 A 
HETATM   22  C   UNL     1      41.878 -14.409   5.300  1.00  0.00     0.116 A 
HETATM   23  N   UNL     1      43.097 -13.839   5.232  1.00  0.00    -0.273 NA
HETATM   24  C   UNL     1      43.655 -13.775   4.007  1.00  0.00     0.116 A 
HETATM   25  C   UNL     1      43.047 -14.255   2.854  1.00  0.00     0.027 A 
ENDBRANCH  17  20
ENDBRANCH  16  17
ENDBRANCH   1  16
TORSDOF 6
ENDMDL
MODEL 2
REMARK VINA RESULT:      -7.7      2.595      3.392
REMARK  6 active torsions:
REMARK  status: ('A' for Active; 'I' for Inactive)
REMARK    1  A    between atoms: C_2  and  C_3 
REMARK    2  A    between atoms: C_2  and  C_9 
REMARK    3  A    between atoms: C_9  and  N_10 
REMARK       I    between atoms: N_10  and  C_11 
REMARK    4  A    between atoms: C_11  and  C_12 
REMARK    5  A    between atoms: C_13  and  O_14 
REMARK    6  A    between atoms: O_14  and  C_15 
ROOT
HETATM    1  N   UNL     1      42.204 -17.234   4.336  1.00  0.00    -0.356 N 
HETATM    2  C   UNL     1      43.395 -17.845   4.656  1.00  0.00     0.254 C 
HETATM    3  O   UNL     1      44.191 -17.365   5.457  1.00  0.00    -0.268 OA
HETATM    4  H   UNL     1      41.611 -17.664   3.636  1.00  0.00     0.162 HD
ENDROOT
BRANCH   2   5
HETATM    5  C   UNL     1      43.721 -19.136   3.965  1.00  0.00     0.067 A 
HETATM    6  C   UNL     1      43.430 -19.424   2.615  1.00  0.00     0.090 A 
HETATM    7  C   UNL     1      43.831 -20.653   2.069  1.00  0.00     0.040 A 
HETATM    8  C   UNL     1      44.464 -21.611   2.863  1.00  0.00     0.026 A 
HETATM    9  C   UNL     1      44.714 -21.342   4.204  1.00  0.00     0.035 A 
HETATM   10 CL   UNL     1      45.491 -22.526   5.180  1.00  0.00    -0.084 Cl
HETATM   11  C   UNL     1      44.352 -20.117   4.753  1.00  0.00     0.043 A 
BRANCH   6  12
HETATM   12  O   UNL     1      42.811 -18.468   1.850  1.00  0.00    -0.289 OA
BRANCH  12  13
HETATM   13  C   UNL     1      43.665 -17.777   0.946  1.00  0.00     0.505 C 
HETATM   14  F   UNL     1      42.870 -16.998   0.172  1.00  0.00    -0.184 F 
HETATM   15  F   UNL     1      44.457 -16.936   1.656  1.00  0.00    -0.184 F 
ENDBRANCH  12  13
ENDBRANCH   6  12
ENDBRANCH   2   5
BRANCH   1  16
HETATM   16  C   UNL     1      41.762 -15.991   4.947  1.00  0.00     0.136 C 
BRANCH  16  17
HETATM   17  C   UNL     1      41.454 -14.858   3.917  1.00  0.00    -0.004 C 
HETATM   18  C   UNL     1      40.928 -15.525   2.622  1.00  0.00     0.021 C 
HETATM   19  C   UNL     1      42.790 -14.167   3.558  1.00  0.00     0.021 C 
BRANCH  17  20
HETATM   20  C   UNL     1      40.503 -13.786   4.477  1.00  0.00    -0.046 A 
HETATM   21  C   UNL     1      40.155 -13.714   5.833  1.00  0.00     0.027 A 
HETATM   22  C   UNL     1      39.273 -12.729   6.263  1.00  0.00     0.116 A 
HETATM   23  N   UNL     1      38.713 -11.811   5.452  1.00  0.00    -0.273 NA
HETATM   24  C   UNL     1      39.045 -11.888   4.149  1.00  0.00     0.116 A 
HETATM   25  C   UNL     1      39.908 -12.842   3.626  1.00  0.00     0.027 A 
ENDBRANCH  17  20
ENDBRANCH  16  17
ENDBRANCH   1  16
TORSDOF 6
ENDMDL
MODEL 3
REMARK VINA RESULT:      -7.7      2.373      3.794
REMARK  6 active torsions:
REMARK  status: ('A' for Active; 'I' for Inactive)
REMARK    1  A    between atoms: C_2  and  C_3 
REMARK    2  A    between atoms: C_2  and  C_9 
REMARK    3  A    between atoms: C_9  and  N_10 
REMARK       I    between atoms: N_10  and  C_11 
REMARK    4  A    between atoms: C_11  and  C_12 
REMARK    5  A    between atoms: C_13  and  O_14 
REMARK    6  A    between atoms: O_14  and  C_15 
ROOT
HETATM    1  N   UNL     1      43.573 -16.636   4.773  1.00  0.00    -0.356 N 
HETATM    2  C   UNL     1      43.457 -17.887   5.334  1.00  0.00     0.254 C 
HETATM    3  O   UNL     1      43.100 -18.060   6.496  1.00  0.00    -0.268 OA
HETATM    4  H   UNL     1      43.913 -16.562   3.821  1.00  0.00     0.162 HD
ENDROOT
BRANCH   2   5
HETATM    5  C   UNL     1      43.812 -19.068   4.481  1.00  0.00     0.067 A 
HETATM    6  C   UNL     1      43.622 -19.140   3.085  1.00  0.00     0.090 A 
HETATM    7  C   UNL     1      44.041 -20.285   2.388  1.00  0.00     0.040 A 
HETATM    8  C   UNL     1      44.591 -21.370   3.072  1.00  0.00     0.026 A 
HETATM    9  C   UNL     1      44.740 -21.314   4.453  1.00  0.00     0.035 A 
HETATM   10 CL   UNL     1      45.416 -22.655   5.292  1.00  0.00    -0.084 Cl
HETATM   11  C   UNL     1      44.360 -20.175   5.155  1.00  0.00     0.043 A 
BRANCH   6  12
HETATM   12  O   UNL     1      43.083 -18.061   2.431  1.00  0.00    -0.289 OA
BRANCH  12  13
HETATM   13  C   UNL     1      43.853 -17.577   1.336  1.00  0.00     0.505 C 
HETATM   14  F   UNL     1      42.987 -17.350   0.317  1.00  0.00    -0.184 F 
HETATM   15  F   UNL     1      44.376 -16.373   1.674  1.00  0.00    -0.184 F 
ENDBRANCH  12  13
ENDBRANCH   6  12
ENDBRANCH   2   5
BRANCH   1  16
HETATM   16  C   UNL     1      43.243 -15.413   5.486  1.00  0.00     0.136 C 
BRANCH  16  17
HETATM   17  C   UNL     1      41.852 -14.817   5.102  1.00  0.00    -0.004 C 
HETATM   18  C   UNL     1      41.799 -13.360   5.623  1.00  0.00     0.021 C 
HETATM   19  C   UNL     1      40.768 -15.611   5.868  1.00  0.00     0.021 C 
BRANCH  17  20
HETATM   20  C   UNL     1      41.548 -14.935   3.598  1.00  0.00    -0.046 A 
HETATM   21  C   UNL     1      42.164 -14.126   2.633  1.00  0.00     0.027 A 
HETATM   22  C   UNL     1      41.824 -14.277   1.294  1.00  0.00     0.116 A 
HETATM   23  N   UNL     1      40.921 -15.167   0.839  1.00  0.00    -0.273 NA
HETATM   24  C   UNL     1      40.327 -15.938   1.771  1.00  0.00     0.116 A 
HETATM   25  C   UNL     1      40.595 -15.854   3.130  1.00  0.00     0.027 A 
ENDBRANCH  17  20
ENDBRANCH  16  17
ENDBRANCH   1  16
TORSDOF 6
ENDMDL
MODEL 4
REMARK VINA RESULT:      -7.6      1.866      3.315
REMARK  6 active torsions:
REMARK  status: ('A' for Active; 'I' for Inactive)
REMARK    1  A    between atoms: C_2  and  C_3 
REMARK    2  A    between atoms: C_2  and  C_9 
REMARK    3  A    between atoms: C_9  and  N_10 
REMARK       I    between atoms: N_10  and  C_11 
REMARK    4  A    between atoms: C_11  and  C_12 
REMARK    5  A    between atoms: C_13  and  O_14 
REMARK    6  A    between atoms: O_14  and  C_15 
ROOT
HETATM    1  N   UNL     1      42.208 -17.686   1.870  1.00  0.00    -0.356 N 
HETATM    2  C   UNL     1      43.512 -17.874   2.268  1.00  0.00     0.254 C 
HETATM    3  O   UNL     1      44.468 -17.459   1.619  1.00  0.00    -0.268 OA
HETATM    4  H   UNL     1      41.467 -18.089   2.432  1.00  0.00     0.162 HD
ENDROOT
BRANCH   2   5
HETATM    5  C   UNL     1      43.748 -18.641   3.535  1.00  0.00     0.067 A 
HETATM    6  C   UNL     1      44.317 -19.929   3.603  1.00  0.00     0.090 A 
HETATM    7  C   UNL     1      44.533 -20.524   4.856  1.00  0.00     0.040 A 
HETATM    8  C   UNL     1      44.139 -19.876   6.028  1.00  0.00     0.026 A 
HETATM    9  C   UNL     1      43.540 -18.623   5.957  1.00  0.00     0.035 A 
HETATM   10 CL   UNL     1      43.053 -17.829   7.403  1.00  0.00    -0.084 Cl
HETATM   11  C   UNL     1      43.348 -18.005   4.726  1.00  0.00     0.043 A 
BRANCH   6  12
HETATM   12  O   UNL     1      44.702 -20.548   2.441  1.00  0.00    -0.289 OA
BRANCH  12  13
HETATM   13  C   UNL     1      43.875 -21.633   2.036  1.00  0.00     0.505 C 
HETATM   14  F   UNL     1      42.669 -21.105   1.708  1.00  0.00    -0.184 F 
HETATM   15  F   UNL     1      44.385 -22.166   0.899  1.00  0.00    -0.184 F 
ENDBRANCH  12  13
ENDBRANCH   6  12
ENDBRANCH   2   5
BRANCH   1  16
HETATM   16  C   UNL     1      41.842 -16.945   0.673  1.00  0.00     0.136 C 
BRANCH  16  17
HETATM   17  C   UNL     1      41.111 -15.597   0.967  1.00  0.00    -0.004 C 
HETATM   18  C   UNL     1      42.108 -14.666   1.699  1.00  0.00     0.021 C 
HETATM   19  C   UNL     1      39.956 -15.888   1.953  1.00  0.00     0.021 C 
BRANCH  17  20
HETATM   20  C   UNL     1      40.504 -14.962  -0.297  1.00  0.00    -0.046 A 
HETATM   21  C   UNL     1      39.434 -14.057  -0.253  1.00  0.00     0.027 A 
HETATM   22  C   UNL     1      38.925 -13.540  -1.439  1.00  0.00     0.116 A 
HETATM   23  N   UNL     1      39.395 -13.851  -2.662  1.00  0.00    -0.273 NA
HETATM   24  C   UNL     1      40.419 -14.726  -2.700  1.00  0.00     0.116 A 
HETATM   25  C   UNL     1      40.987 -15.301  -1.571  1.00  0.00     0.027 A 
ENDBRANCH  17  20
ENDBRANCH  16  17
ENDBRANCH   1  16
TORSDOF 6
ENDMDL
MODEL 5
REMARK VINA RESULT:      -7.4      2.845      3.407
REMARK  6 active torsions:
REMARK  status: ('A' for Active; 'I' for Inactive)
REMARK    1  A    between atoms: C_2  and  C_3 
REMARK    2  A    between atoms: C_2  and  C_9 
REMARK    3  A    between atoms: C_9  and  N_10 
REMARK       I    between atoms: N_10  and  C_11 
REMARK    4  A    between atoms: C_11  and  C_12 
REMARK    5  A    between atoms: C_13  and  O_14 
REMARK    6  A    between atoms: O_14  and  C_15 
ROOT
HETATM    1  N   UNL     1      40.945 -16.913   2.650  1.00  0.00    -0.356 N 
HETATM    2  C   UNL     1      41.925 -17.565   1.938  1.00  0.00     0.254 C 
HETATM    3  O   UNL     1      42.059 -17.434   0.725  1.00  0.00    -0.268 OA
HETATM    4  H   UNL     1      40.864 -17.098   3.644  1.00  0.00     0.162 HD
ENDROOT
BRANCH   2   5
HETATM    5  C   UNL     1      42.836 -18.487   2.692  1.00  0.00     0.067 A 
HETATM    6  C   UNL     1      43.269 -18.286   4.019  1.00  0.00     0.090 A 
HETATM    7  C   UNL     1      44.084 -19.249   4.635  1.00  0.00     0.040 A 
HETATM    8  C   UNL     1      44.514 -20.373   3.927  1.00  0.00     0.026 A 
HETATM    9  C   UNL     1      44.120 -20.549   2.605  1.00  0.00     0.035 A 
HETATM   10 CL   UNL     1      44.654 -21.934   1.735  1.00  0.00    -0.084 Cl
HETATM   11  C   UNL     1      43.287 -19.621   1.990  1.00  0.00     0.043 A 
BRANCH   6  12
HETATM   12  O   UNL     1      42.832 -17.177   4.699  1.00  0.00    -0.289 OA
BRANCH  12  13
HETATM   13  C   UNL     1      42.240 -17.444   5.966  1.00  0.00     0.505 C 
HETATM   14  F   UNL     1      42.851 -16.632   6.864  1.00  0.00    -0.184 F 
HETATM   15  F   UNL     1      40.939 -17.065   5.924  1.00  0.00    -0.184 F 
ENDBRANCH  12  13
ENDBRANCH   6  12
ENDBRANCH   2   5
BRANCH   1  16
HETATM   16  C   UNL     1      40.011 -15.980   2.043  1.00  0.00     0.136 C 
BRANCH  16  17
HETATM   17  C   UNL     1      40.481 -14.492   2.100  1.00  0.00    -0.004 C 
HETATM   18  C   UNL     1      39.219 -13.597   2.158  1.00  0.00     0.021 C 
HETATM   19  C   UNL     1      41.202 -14.170   0.770  1.00  0.00     0.021 C 
BRANCH  17  20
HETATM   20  C   UNL     1      41.469 -14.224   3.249  1.00  0.00    -0.046 A 
HETATM   21  C   UNL     1      41.059 -14.041   4.577  1.00  0.00     0.027 A 
HETATM   22  C   UNL     1      42.008 -13.783   5.558  1.00  0.00     0.116 A 
HETATM   23  N   UNL     1      43.332 -13.692   5.325  1.00  0.00    -0.273 NA
HETATM   24  C   UNL     1      43.721 -13.862   4.046  1.00  0.00     0.116 A 
HETATM   25  C   UNL     1      42.846 -14.114   2.998  1.00  0.00     0.027 A 
ENDBRANCH  17  20
ENDBRANCH  16  17
ENDBRANCH   1  16
TORSDOF 6
ENDMDL
MODEL 6
REMARK VINA RESULT:      -7.4      3.223      4.192
REMARK  6 active torsions:
REMARK  status: ('A' for Active; 'I' for Inactive)
REMARK    1  A    between atoms: C_2  and  C_3 
REMARK    2  A    between atoms: C_2  and  C_9 
REMARK    3  A    between atoms: C_9  and  N_10 
REMARK       I    between atoms: N_10  and  C_11 
REMARK    4  A    between atoms: C_11  and  C_12 
REMARK    5  A    between atoms: C_13  and  O_14 
REMARK    6  A    between atoms: O_14  and  C_15 
ROOT
HETATM    1  N   UNL     1      41.977 -16.756   3.610  1.00  0.00    -0.356 N 
HETATM    2  C   UNL     1      42.819 -17.330   2.686  1.00  0.00     0.254 C 
HETATM    3  O   UNL     1      43.001 -16.851   1.570  1.00  0.00    -0.268 OA
HETATM    4  H   UNL     1      41.840 -17.225   4.499  1.00  0.00     0.162 HD
ENDROOT
BRANCH   2   5
HETATM    5  C   UNL     1      43.511 -18.603   3.072  1.00  0.00     0.067 A 
HETATM    6  C   UNL     1      44.163 -18.826   4.303  1.00  0.00     0.090 A 
HETATM    7  C   UNL     1      44.732 -20.082   4.566  1.00  0.00     0.040 A 
HETATM    8  C   UNL     1      44.708 -21.090   3.601  1.00  0.00     0.026 A 
HETATM    9  C   UNL     1      44.101 -20.855   2.372  1.00  0.00     0.035 A 
HETATM   10 CL   UNL     1      44.075 -22.099   1.183  1.00  0.00    -0.084 Cl
HETATM   11  C   UNL     1      43.503 -19.627   2.106  1.00  0.00     0.043 A 
BRANCH   6  12
HETATM   12  O   UNL     1      44.172 -17.824   5.241  1.00  0.00    -0.289 OA
BRANCH  12  13
HETATM   13  C   UNL     1      44.677 -18.202   6.516  1.00  0.00     0.505 C 
HETATM   14  F   UNL     1      45.967 -17.784   6.567  1.00  0.00    -0.184 F 
HETATM   15  F   UNL     1      44.009 -17.507   7.469  1.00  0.00    -0.184 F 
ENDBRANCH  12  13
ENDBRANCH   6  12
ENDBRANCH   2   5
BRANCH   1  16
HETATM   16  C   UNL     1      41.261 -15.514   3.369  1.00  0.00     0.136 C 
BRANCH  16  17
HETATM   17  C   UNL     1      41.797 -14.307   4.203  1.00  0.00    -0.004 C 
HETATM   18  C   UNL     1      42.963 -13.664   3.413  1.00  0.00     0.021 C 
HETATM   19  C   UNL     1      42.394 -14.866   5.516  1.00  0.00     0.021 C 
BRANCH  17  20
HETATM   20  C   UNL     1      40.691 -13.305   4.577  1.00  0.00    -0.046 A 
HETATM   21  C   UNL     1      40.131 -12.411   3.653  1.00  0.00     0.027 A 
HETATM   22  C   UNL     1      39.149 -11.520   4.069  1.00  0.00     0.116 A 
HETATM   23  N   UNL     1      38.679 -11.448   5.329  1.00  0.00    -0.273 NA
HETATM   24  C   UNL     1      39.225 -12.304   6.216  1.00  0.00     0.116 A 
HETATM   25  C   UNL     1      40.216 -13.222   5.896  1.00  0.00     0.027 A 
ENDBRANCH  17  20
ENDBRANCH  16  17
ENDBRANCH   1  16
TORSDOF 6
ENDMDL
MODEL 7
REMARK VINA RESULT:      -7.3      3.911      7.127
REMARK  6 active torsions:
REMARK  status: ('A' for Active; 'I' for Inactive)
REMARK    1  A    between atoms: C_2  and  C_3 
REMARK    2  A    between atoms: C_2  and  C_9 
REMARK    3  A    between atoms: C_9  and  N_10 
REMARK       I    between atoms: N_10  and  C_11 
REMARK    4  A    between atoms: C_11  and  C_12 
REMARK    5  A    between atoms: C_13  and  O_14 
REMARK    6  A    between atoms: O_14  and  C_15 
ROOT
HETATM    1  N   UNL     1      41.387 -16.534   1.986  1.00  0.00    -0.356 N 
HETATM    2  C   UNL     1      41.110 -15.743   0.895  1.00  0.00     0.254 C 
HETATM    3  O   UNL     1      41.304 -16.116  -0.259  1.00  0.00    -0.268 OA
HETATM    4  H   UNL     1      41.241 -16.149   2.913  1.00  0.00     0.162 HD
ENDROOT
BRANCH   2   5
HETATM    5  C   UNL     1      40.573 -14.366   1.152  1.00  0.00     0.067 A 
HETATM    6  C   UNL     1      41.323 -13.293   1.676  1.00  0.00     0.090 A 
HETATM    7  C   UNL     1      40.719 -12.035   1.825  1.00  0.00     0.040 A 
HETATM    8  C   UNL     1      39.371 -11.852   1.512  1.00  0.00     0.026 A 
HETATM    9  C   UNL     1      38.621 -12.922   1.034  1.00  0.00     0.035 A 
HETATM   10 CL   UNL     1      36.959 -12.694   0.653  1.00  0.00    -0.084 Cl
HETATM   11  C   UNL     1      39.213 -14.167   0.850  1.00  0.00     0.043 A 
BRANCH   6  12
HETATM   12  O   UNL     1      42.648 -13.491   1.973  1.00  0.00    -0.289 OA
BRANCH  12  13
HETATM   13  C   UNL     1      42.971 -13.413   3.357  1.00  0.00     0.505 C 
HETATM   14  F   UNL     1      42.079 -14.197   4.013  1.00  0.00    -0.184 F 
HETATM   15  F   UNL     1      44.191 -13.972   3.549  1.00  0.00    -0.184 F 
ENDBRANCH  12  13
ENDBRANCH   6  12
ENDBRANCH   2   5
BRANCH   1  16
HETATM   16  C   UNL     1      41.893 -17.892   1.874  1.00  0.00     0.136 C 
BRANCH  16  17
HETATM   17  C   UNL     1      43.344 -18.070   2.426  1.00  0.00    -0.004 C 
HETATM   18  C   UNL     1      43.454 -17.262   3.741  1.00  0.00     0.021 C 
HETATM   19  C   UNL     1      44.319 -17.423   1.414  1.00  0.00     0.021 C 
BRANCH  17  20
HETATM   20  C   UNL     1      43.742 -19.548   2.585  1.00  0.00    -0.046 A 
HETATM   21  C   UNL     1      43.421 -20.528   1.636  1.00  0.00     0.027 A 
HETATM   22  C   UNL     1      43.797 -21.847   1.859  1.00  0.00     0.116 A 
HETATM   23  N   UNL     1      44.466 -22.269   2.949  1.00  0.00    -0.273 NA
HETATM   24  C   UNL     1      44.766 -21.325   3.863  1.00  0.00     0.116 A 
HETATM   25  C   UNL     1      44.424 -19.985   3.732  1.00  0.00     0.027 A 
ENDBRANCH  17  20
ENDBRANCH  16  17
ENDBRANCH   1  16
TORSDOF 6
ENDMDL
MODEL 8
REMARK VINA RESULT:      -7.2      3.739      7.067
REMARK  6 active torsions:
REMARK  status: ('A' for Active; 'I' for Inactive)
REMARK    1  A    between atoms: C_2  and  C_3 
REMARK    2  A    between atoms: C_2  and  C_9 
REMARK    3  A    between atoms: C_9  and  N_10 
REMARK       I    between atoms: N_10  and  C_11 
REMARK    4  A    between atoms: C_11  and  C_12 
REMARK    5  A    between atoms: C_13  and  O_14 
REMARK    6  A    between atoms: O_14  and  C_15 
ROOT
HETATM    1  N   UNL     1      42.860 -16.448   2.610  1.00  0.00    -0.356 N 
HETATM    2  C   UNL     1      42.225 -16.491   1.390  1.00  0.00     0.254 C 
HETATM    3  O   UNL     1      42.587 -17.234   0.482  1.00  0.00    -0.268 OA
HETATM    4  H   UNL     1      42.535 -15.782   3.302  1.00  0.00     0.162 HD
ENDROOT
BRANCH   2   5
HETATM    5  C   UNL     1      41.066 -15.564   1.176  1.00  0.00     0.067 A 
HETATM    6  C   UNL     1      40.163 -15.156   2.180  1.00  0.00     0.090 A 
HETATM    7  C   UNL     1      39.144 -14.244   1.865  1.00  0.00     0.040 A 
HETATM    8  C   UNL     1      38.984 -13.781   0.558  1.00  0.00     0.026 A 
HETATM    9  C   UNL     1      39.849 -14.215  -0.440  1.00  0.00     0.035 A 
HETATM   10 CL   UNL     1      39.646 -13.646  -2.050  1.00  0.00    -0.084 Cl
HETATM   11  C   UNL     1      40.884 -15.095  -0.139  1.00  0.00     0.043 A 
BRANCH   6  12
HETATM   12  O   UNL     1      40.340 -15.619   3.460  1.00  0.00    -0.289 OA
BRANCH  12  13
HETATM   13  C   UNL     1      40.520 -14.607   4.444  1.00  0.00     0.505 C 
HETATM   14  F   UNL     1      39.504 -14.740   5.334  1.00  0.00    -0.184 F 
HETATM   15  F   UNL     1      41.664 -14.862   5.124  1.00  0.00    -0.184 F 
ENDBRANCH  12  13
ENDBRANCH   6  12
ENDBRANCH   2   5
BRANCH   1  16
HETATM   16  C   UNL     1      43.983 -17.306   2.951  1.00  0.00     0.136 C 
BRANCH  16  17
HETATM   17  C   UNL     1      43.629 -18.425   3.982  1.00  0.00    -0.004 C 
HETATM   18  C   UNL     1      42.155 -18.228   4.409  1.00  0.00     0.021 C 
HETATM   19  C   UNL     1      44.499 -18.202   5.241  1.00  0.00     0.021 C 
BRANCH  17  20
HETATM   20  C   UNL     1      43.924 -19.838   3.450  1.00  0.00    -0.046 A 
HETATM   21  C   UNL     1      43.554 -20.259   2.164  1.00  0.00     0.027 A 
HETATM   22  C   UNL     1      43.836 -21.558   1.761  1.00  0.00     0.116 A 
HETATM   23  N   UNL     1      44.456 -22.472   2.532  1.00  0.00    -0.273 NA
HETATM   24  C   UNL     1      44.803 -22.066   3.770  1.00  0.00     0.116 A 
HETATM   25  C   UNL     1      44.555 -20.792   4.264  1.00  0.00     0.027 A 
ENDBRANCH  17  20
ENDBRANCH  16  17
ENDBRANCH   1  16
TORSDOF 6
ENDMDL
MODEL 9
REMARK VINA RESULT:      -7.1      3.067      4.180
REMARK  6 active torsions:
REMARK  status: ('A' for Active; 'I' for Inactive)
REMARK    1  A    between atoms: C_2  and  C_3 
REMARK    2  A    between atoms: C_2  and  C_9 
REMARK    3  A    between atoms: C_9  and  N_10 
REMARK       I    between atoms: N_10  and  C_11 
REMARK    4  A    between atoms: C_11  and  C_12 
REMARK    5  A    between atoms: C_13  and  O_14 
REMARK    6  A    between atoms: O_14  and  C_15 
ROOT
HETATM    1  N   UNL     1      42.174 -16.849   3.384  1.00  0.00    -0.356 N 
HETATM    2  C   UNL     1      43.427 -17.299   3.037  1.00  0.00     0.254 C 
HETATM    3  O   UNL     1      44.180 -16.662   2.306  1.00  0.00    -0.268 OA
HETATM    4  H   UNL     1      41.587 -17.444   3.958  1.00  0.00     0.162 HD
ENDROOT
BRANCH   2   5
HETATM    5  C   UNL     1      43.857 -18.636   3.563  1.00  0.00     0.067 A 
HETATM    6  C   UNL     1      44.029 -18.948   4.928  1.00  0.00     0.090 A 
HETATM    7  C   UNL     1      44.388 -20.254   5.298  1.00  0.00     0.040 A 
HETATM    8  C   UNL     1      44.628 -21.228   4.328  1.00  0.00     0.026 A 
HETATM    9  C   UNL     1      44.497 -20.908   2.981  1.00  0.00     0.035 A 
HETATM   10 CL   UNL     1      44.797 -22.110   1.787  1.00  0.00    -0.084 Cl
HETATM   11  C   UNL     1      44.111 -19.628   2.597  1.00  0.00     0.043 A 
BRANCH   6  12
HETATM   12  O   UNL     1      43.784 -17.979   5.867  1.00  0.00    -0.289 OA
BRANCH  12  13
HETATM   13  C   UNL     1      44.903 -17.630   6.675  1.00  0.00     0.505 C 
HETATM   14  F   UNL     1      46.011 -18.044   6.011  1.00  0.00    -0.184 F 
HETATM   15  F   UNL     1      44.979 -16.278   6.748  1.00  0.00    -0.184 F 
ENDBRANCH  12  13
ENDBRANCH   6  12
ENDBRANCH   2   5
BRANCH   1  16
HETATM   16  C   UNL     1      41.646 -15.564   2.957  1.00  0.00     0.136 C 
BRANCH  16  17
HETATM   17  C   UNL     1      40.750 -15.646   1.680  1.00  0.00    -0.004 C 
HETATM   18  C   UNL     1      39.277 -15.468   2.121  1.00  0.00     0.021 C 
HETATM   19  C   UNL     1      40.879 -17.074   1.101  1.00  0.00     0.021 C 
BRANCH  17  20
HETATM   20  C   UNL     1      41.181 -14.653   0.586  1.00  0.00    -0.046 A 
HETATM   21  C   UNL     1      41.122 -14.956  -0.781  1.00  0.00     0.027 A 
HETATM   22  C   UNL     1      41.548 -14.015  -1.711  1.00  0.00     0.116 A 
HETATM   23  N   UNL     1      42.026 -12.798  -1.389  1.00  0.00    -0.273 NA
HETATM   24  C   UNL     1      42.087 -12.513  -0.073  1.00  0.00     0.116 A 
HETATM   25  C   UNL     1      41.694 -13.392   0.927  1.00  0.00     0.027 A 
ENDBRANCH  17  20
ENDBRANCH  16  17
ENDBRANCH   1  16
TORSDOF 6
ENDMDL
MODEL 10
REMARK VINA RESULT:      -7.1      3.174      4.423
REMARK  6 active torsions:
REMARK  status: ('A' for Active; 'I' for Inactive)
REMARK    1  A    between atoms: C_2  and  C_3 
REMARK    2  A    between atoms: C_2  and  C_9 
REMARK    3  A    between atoms: C_9  and  N_10 
REMARK       I    between atoms: N_10  and  C_11 
REMARK    4  A    between atoms: C_11  and  C_12 
REMARK    5  A    between atoms: C_13  and  O_14 
REMARK    6  A    between atoms: O_14  and  C_15 
ROOT
HETATM    1  N   UNL     1      42.764 -16.115   4.861  1.00  0.00    -0.356 N 
HETATM    2  C   UNL     1      42.343 -17.275   4.252  1.00  0.00     0.254 C 
HETATM    3  O   UNL     1      41.224 -17.396   3.761  1.00  0.00    -0.268 OA
HETATM    4  H   UNL     1      43.686 -16.096   5.282  1.00  0.00     0.162 HD
ENDROOT
BRANCH   2   5
HETATM    5  C   UNL     1      43.297 -18.431   4.222  1.00  0.00     0.067 A 
HETATM    6  C   UNL     1      44.210 -18.750   5.250  1.00  0.00     0.090 A 
HETATM    7  C   UNL     1      45.020 -19.890   5.126  1.00  0.00     0.040 A 
HETATM    8  C   UNL     1      44.968 -20.677   3.974  1.00  0.00     0.026 A 
HETATM    9  C   UNL     1      44.097 -20.338   2.944  1.00  0.00     0.035 A 
HETATM   10 CL   UNL     1      44.039 -21.307   1.524  1.00  0.00    -0.084 Cl
HETATM   11  C   UNL     1      43.265 -19.230   3.064  1.00  0.00     0.043 A 
BRANCH   6  12
HETATM   12  O   UNL     1      44.242 -17.967   6.376  1.00  0.00    -0.289 OA
BRANCH  12  13
HETATM   13  C   UNL     1      43.561 -18.508   7.502  1.00  0.00     0.505 C 
HETATM   14  F   UNL     1      44.417 -18.436   8.552  1.00  0.00    -0.184 F 
HETATM   15  F   UNL     1      42.513 -17.701   7.802  1.00  0.00    -0.184 F 
ENDBRANCH  12  13
ENDBRANCH   6  12
ENDBRANCH   2   5
BRANCH   1  16
HETATM   16  C   UNL     1      41.943 -14.918   4.941  1.00  0.00     0.136 C 
BRANCH  16  17
HETATM   17  C   UNL     1      42.231 -13.882   3.809  1.00  0.00    -0.004 C 
HETATM   18  C   UNL     1      43.738 -13.963   3.462  1.00  0.00     0.021 C 
HETATM   19  C   UNL     1      41.975 -12.468   4.382  1.00  0.00     0.021 C 
BRANCH  17  20
HETATM   20  C   UNL     1      41.316 -14.067   2.586  1.00  0.00    -0.046 A 
HETATM   21  C   UNL     1      41.751 -14.666   1.395  1.00  0.00     0.027 A 
HETATM   22  C   UNL     1      40.872 -14.781   0.325  1.00  0.00     0.116 A 
HETATM   23  N   UNL     1      39.597 -14.349   0.344  1.00  0.00    -0.273 NA
HETATM   24  C   UNL     1      39.184 -13.767   1.488  1.00  0.00     0.116 A 
HETATM   25  C   UNL     1      39.992 -13.600   2.605  1.00  0.00     0.027 A 
ENDBRANCH  17  20
ENDBRANCH  16  17
ENDBRANCH   1  16
TORSDOF 6
ENDMDL
