MODEL 1
REMARK VINA RESULT:      -9.0      0.000      0.000
REMARK  4 active torsions:
REMARK  status: ('A' for Active; 'I' for Inactive)
REMARK    1  A    between atoms: S_2  and  C_3 
REMARK    2  A    between atoms: C_3  and  C_4 
REMARK       I    between atoms: C_4  and  N_5 
REMARK    3  A    between atoms: N_5  and  N_6 
REMARK       I    between atoms: N_6  and  C_7 
REMARK    4  A    between atoms: C_7  and  C_8 
ROOT
HETATM    1  C   UNL     1      43.938 -17.012   6.207  1.00  0.00     0.103 A 
HETATM    2  N   UNL     1      43.607 -16.657   4.918  1.00  0.00    -0.351 N 
HETATM    3  H   UNL     1      43.360 -15.715   4.643  1.00  0.00     0.166 HD
HETATM    4  C   UNL     1      43.694 -17.733   4.067  1.00  0.00     0.044 A 
HETATM    5  C   UNL     1      44.081 -18.833   4.830  1.00  0.00     0.004 A 
HETATM    6  C   UNL     1      44.218 -18.368   6.175  1.00  0.00     0.050 A 
HETATM    7  C   UNL     1      43.467 -17.805   2.690  1.00  0.00     0.031 A 
HETATM    8  C   UNL     1      43.648 -19.042   2.064  1.00  0.00     0.014 A 
HETATM    9  C   UNL     1      44.043 -20.180   2.781  1.00  0.00    -0.025 A 
HETATM   10  C   UNL     1      44.261 -20.090   4.178  1.00  0.00    -0.013 A 
HETATM   11  C   UNL     1      44.231 -21.417   2.144  1.00  0.00     0.012 A 
HETATM   12  C   UNL     1      44.629 -22.543   2.869  1.00  0.00     0.001 A 
HETATM   13  C   UNL     1      44.842 -22.453   4.242  1.00  0.00     0.001 A 
HETATM   14  C   UNL     1      44.660 -21.235   4.898  1.00  0.00     0.013 A 
ENDROOT
BRANCH   1  15
HETATM   15  C   UNL     1      43.971 -16.039   7.275  1.00  0.00     0.286 C 
HETATM   16  N   UNL     1      44.334 -14.762   6.901  1.00  0.00    -0.262 N 
HETATM   17  H   UNL     1      44.739 -14.548   5.994  1.00  0.00     0.190 HD
HETATM   18  O   UNL     1      43.688 -16.322   8.439  1.00  0.00    -0.264 OA
BRANCH  16  19
HETATM   19  N   UNL     1      44.420 -13.763   7.880  1.00  0.00    -0.267 N 
HETATM   20  C   UNL     1      45.540 -12.954   7.878  1.00  0.00     0.245 C 
HETATM   21  O   UNL     1      46.366 -12.976   6.965  1.00  0.00    -0.271 OA
HETATM   22  H   UNL     1      43.911 -13.928   8.750  1.00  0.00     0.190 HD
BRANCH  20  23
HETATM   23  C   UNL     1      45.620 -11.957   9.021  1.00  0.00     0.177 C 
BRANCH  23  24
HETATM   24  S   UNL     1      43.990 -11.493   9.691  1.00  0.00    -0.164 SA
HETATM   25  C   UNL     1      44.123 -12.257  11.327  1.00  0.00     0.090 C 
ENDBRANCH  23  24
ENDBRANCH  20  23
ENDBRANCH  16  19
ENDBRANCH   1  15
TORSDOF 4
ENDMDL
MODEL 2
REMARK VINA RESULT:      -8.7      5.699      7.824
REMARK  4 active torsions:
REMARK  status: ('A' for Active; 'I' for Inactive)
REMARK    1  A    between atoms: S_2  and  C_3 
REMARK    2  A    between atoms: C_3  and  C_4 
REMARK       I    between atoms: C_4  and  N_5 
REMARK    3  A    between atoms: N_5  and  N_6 
REMARK       I    between atoms: N_6  and  C_7 
REMARK    4  A    between atoms: C_7  and  C_8 
ROOT
HETATM    1  C   UNL     1      42.365 -16.431   1.318  1.00  0.00     0.103 A 
HETATM    2  N   UNL     1      42.793 -16.157   2.598  1.00  0.00    -0.351 N 
HETATM    3  H   UNL     1      42.698 -15.251   3.039  1.00  0.00     0.166 HD
HETATM    4  C   UNL     1      43.324 -17.276   3.195  1.00  0.00     0.044 A 
HETATM    5  C   UNL     1      43.254 -18.313   2.267  1.00  0.00     0.004 A 
HETATM    6  C   UNL     1      42.660 -17.764   1.089  1.00  0.00     0.050 A 
HETATM    7  C   UNL     1      43.849 -17.440   4.481  1.00  0.00     0.031 A 
HETATM    8  C   UNL     1      44.312 -18.710   4.837  1.00  0.00     0.014 A 
HETATM    9  C   UNL     1      44.259 -19.791   3.946  1.00  0.00    -0.025 A 
HETATM   10  C   UNL     1      43.731 -19.604   2.645  1.00  0.00    -0.013 A 
HETATM   11  C   UNL     1      44.717 -21.066   4.315  1.00  0.00     0.012 A 
HETATM   12  C   UNL     1      44.655 -22.136   3.419  1.00  0.00     0.001 A 
HETATM   13  C   UNL     1      44.137 -21.950   2.140  1.00  0.00     0.001 A 
HETATM   14  C   UNL     1      43.677 -20.692   1.749  1.00  0.00     0.013 A 
ENDROOT
BRANCH   1  15
HETATM   15  C   UNL     1      41.722 -15.424   0.505  1.00  0.00     0.286 C 
HETATM   16  N   UNL     1      40.864 -15.903  -0.463  1.00  0.00    -0.262 N 
HETATM   17  H   UNL     1      40.826 -16.884  -0.727  1.00  0.00     0.190 HD
HETATM   18  O   UNL     1      41.916 -14.219   0.664  1.00  0.00    -0.264 OA
BRANCH  16  19
HETATM   19  N   UNL     1      40.221 -14.997  -1.316  1.00  0.00    -0.267 N 
HETATM   20  C   UNL     1      40.594 -14.987  -2.645  1.00  0.00     0.245 C 
HETATM   21  O   UNL     1      41.338 -15.842  -3.126  1.00  0.00    -0.271 OA
HETATM   22  H   UNL     1      39.844 -14.151  -0.885  1.00  0.00     0.190 HD
BRANCH  20  23
HETATM   23  C   UNL     1      39.932 -13.917  -3.495  1.00  0.00     0.177 C 
BRANCH  23  24
HETATM   24  S   UNL     1      38.197 -13.601  -3.038  1.00  0.00    -0.164 SA
HETATM   25  C   UNL     1      37.436 -15.075  -3.763  1.00  0.00     0.090 C 
ENDBRANCH  23  24
ENDBRANCH  20  23
ENDBRANCH  16  19
ENDBRANCH   1  15
TORSDOF 4
ENDMDL
MODEL 3
REMARK VINA RESULT:      -8.5      5.545      7.587
REMARK  4 active torsions:
REMARK  status: ('A' for Active; 'I' for Inactive)
REMARK    1  A    between atoms: S_2  and  C_3 
REMARK    2  A    between atoms: C_3  and  C_4 
REMARK       I    between atoms: C_4  and  N_5 
REMARK    3  A    between atoms: N_5  and  N_6 
REMARK       I    between atoms: N_6  and  C_7 
REMARK    4  A    between atoms: C_7  and  C_8 
ROOT
HETATM    1  C   UNL     1      42.353 -16.410   1.280  1.00  0.00     0.103 A 
HETATM    2  N   UNL     1      42.774 -16.129   2.560  1.00  0.00    -0.351 N 
HETATM    3  H   UNL     1      42.672 -15.221   2.997  1.00  0.00     0.166 HD
HETATM    4  C   UNL     1      43.307 -17.242   3.165  1.00  0.00     0.044 A 
HETATM    5  C   UNL     1      43.246 -18.284   2.241  1.00  0.00     0.004 A 
HETATM    6  C   UNL     1      42.656 -17.743   1.057  1.00  0.00     0.050 A 
HETATM    7  C   UNL     1      43.826 -17.399   4.454  1.00  0.00     0.031 A 
HETATM    8  C   UNL     1      44.293 -18.665   4.818  1.00  0.00     0.014 A 
HETATM    9  C   UNL     1      44.250 -19.750   3.931  1.00  0.00    -0.025 A 
HETATM   10  C   UNL     1      43.728 -19.571   2.626  1.00  0.00    -0.013 A 
HETATM   11  C   UNL     1      44.712 -21.021   4.308  1.00  0.00     0.012 A 
HETATM   12  C   UNL     1      44.660 -22.096   3.417  1.00  0.00     0.001 A 
HETATM   13  C   UNL     1      44.147 -21.917   2.134  1.00  0.00     0.001 A 
HETATM   14  C   UNL     1      43.683 -20.663   1.736  1.00  0.00     0.013 A 
ENDROOT
BRANCH   1  15
HETATM   15  C   UNL     1      41.710 -15.410   0.458  1.00  0.00     0.286 C 
HETATM   16  N   UNL     1      40.864 -15.898  -0.515  1.00  0.00    -0.262 N 
HETATM   17  H   UNL     1      40.834 -16.879  -0.778  1.00  0.00     0.190 HD
HETATM   18  O   UNL     1      41.894 -14.203   0.616  1.00  0.00    -0.264 OA
BRANCH  16  19
HETATM   19  N   UNL     1      40.221 -14.998  -1.376  1.00  0.00    -0.267 N 
HETATM   20  C   UNL     1      40.608 -14.985  -2.701  1.00  0.00     0.245 C 
HETATM   21  O   UNL     1      41.365 -15.833  -3.174  1.00  0.00    -0.271 OA
HETATM   22  H   UNL     1      39.831 -14.155  -0.949  1.00  0.00     0.190 HD
BRANCH  20  23
HETATM   23  C   UNL     1      39.945 -13.921  -3.558  1.00  0.00     0.177 C 
BRANCH  23  24
HETATM   24  S   UNL     1      40.441 -12.224  -3.116  1.00  0.00    -0.164 SA
HETATM   25  C   UNL     1      42.238 -12.416  -3.206  1.00  0.00     0.090 C 
ENDBRANCH  23  24
ENDBRANCH  20  23
ENDBRANCH  16  19
ENDBRANCH   1  15
TORSDOF 4
ENDMDL
MODEL 4
REMARK VINA RESULT:      -8.1      5.193      7.082
REMARK  4 active torsions:
REMARK  status: ('A' for Active; 'I' for Inactive)
REMARK    1  A    between atoms: S_2  and  C_3 
REMARK    2  A    between atoms: C_3  and  C_4 
REMARK       I    between atoms: C_4  and  N_5 
REMARK    3  A    between atoms: N_5  and  N_6 
REMARK       I    between atoms: N_6  and  C_7 
REMARK    4  A    between atoms: C_7  and  C_8 
ROOT
HETATM    1  C   UNL     1      42.437 -16.461   1.924  1.00  0.00     0.103 A 
HETATM    2  N   UNL     1      42.930 -16.327   3.202  1.00  0.00    -0.351 N 
HETATM    3  H   UNL     1      42.875 -15.469   3.737  1.00  0.00     0.166 HD
HETATM    4  C   UNL     1      43.466 -17.509   3.656  1.00  0.00     0.044 A 
HETATM    5  C   UNL     1      43.330 -18.445   2.632  1.00  0.00     0.004 A 
HETATM    6  C   UNL     1      42.693 -17.768   1.545  1.00  0.00     0.050 A 
HETATM    7  C   UNL     1      44.047 -17.812   4.890  1.00  0.00     0.031 A 
HETATM    8  C   UNL     1      44.500 -19.120   5.093  1.00  0.00     0.014 A 
HETATM    9  C   UNL     1      44.382 -20.102   4.100  1.00  0.00    -0.025 A 
HETATM   10  C   UNL     1      43.798 -19.775   2.852  1.00  0.00    -0.013 A 
HETATM   11  C   UNL     1      44.831 -21.416   4.315  1.00  0.00     0.012 A 
HETATM   12  C   UNL     1      44.705 -22.388   3.319  1.00  0.00     0.001 A 
HETATM   13  C   UNL     1      44.131 -22.063   2.092  1.00  0.00     0.001 A 
HETATM   14  C   UNL     1      43.678 -20.764   1.855  1.00  0.00     0.013 A 
ENDROOT
BRANCH   1  15
HETATM   15  C   UNL     1      41.777 -15.366   1.249  1.00  0.00     0.286 C 
HETATM   16  N   UNL     1      40.669 -15.711   0.503  1.00  0.00    -0.262 N 
HETATM   17  H   UNL     1      40.438 -16.674   0.274  1.00  0.00     0.190 HD
HETATM   18  O   UNL     1      42.167 -14.202   1.336  1.00  0.00    -0.264 OA
BRANCH  16  19
HETATM   19  N   UNL     1      39.987 -14.715  -0.208  1.00  0.00    -0.267 N 
HETATM   20  C   UNL     1      38.773 -14.286   0.290  1.00  0.00     0.245 C 
HETATM   21  O   UNL     1      38.360 -14.623   1.399  1.00  0.00    -0.271 OA
HETATM   22  H   UNL     1      40.180 -14.654  -1.210  1.00  0.00     0.190 HD
BRANCH  20  23
HETATM   23  C   UNL     1      38.038 -13.278  -0.578  1.00  0.00     0.177 C 
BRANCH  23  24
HETATM   24  S   UNL     1      38.031 -13.716  -2.347  1.00  0.00    -0.164 SA
HETATM   25  C   UNL     1      39.143 -12.430  -2.967  1.00  0.00     0.090 C 
ENDBRANCH  23  24
ENDBRANCH  20  23
ENDBRANCH  16  19
ENDBRANCH   1  15
TORSDOF 4
ENDMDL
MODEL 5
REMARK VINA RESULT:      -8.0      2.621      2.662
REMARK  4 active torsions:
REMARK  status: ('A' for Active; 'I' for Inactive)
REMARK    1  A    between atoms: S_2  and  C_3 
REMARK    2  A    between atoms: C_3  and  C_4 
REMARK       I    between atoms: C_4  and  N_5 
REMARK    3  A    between atoms: N_5  and  N_6 
REMARK       I    between atoms: N_6  and  C_7 
REMARK    4  A    between atoms: C_7  and  C_8 
ROOT
HETATM    1  C   UNL     1      43.676 -16.508   5.429  1.00  0.00     0.103 A 
HETATM    2  N   UNL     1      43.366 -16.496   4.087  1.00  0.00    -0.351 N 
HETATM    3  H   UNL     1      43.079 -15.665   3.586  1.00  0.00     0.166 HD
HETATM    4  C   UNL     1      43.535 -17.740   3.526  1.00  0.00     0.044 A 
HETATM    5  C   UNL     1      43.956 -18.598   4.541  1.00  0.00     0.004 A 
HETATM    6  C   UNL     1      44.027 -17.812   5.733  1.00  0.00     0.050 A 
HETATM    7  C   UNL     1      43.353 -18.157   2.205  1.00  0.00     0.031 A 
HETATM    8  C   UNL     1      43.618 -19.497   1.902  1.00  0.00     0.014 A 
HETATM    9  C   UNL     1      44.049 -20.401   2.882  1.00  0.00    -0.025 A 
HETATM   10  C   UNL     1      44.220 -19.963   4.219  1.00  0.00    -0.013 A 
HETATM   11  C   UNL     1      44.322 -21.743   2.569  1.00  0.00     0.012 A 
HETATM   12  C   UNL     1      44.756 -22.634   3.554  1.00  0.00     0.001 A 
HETATM   13  C   UNL     1      44.922 -22.201   4.867  1.00  0.00     0.001 A 
HETATM   14  C   UNL     1      44.656 -20.873   5.203  1.00  0.00     0.013 A 
ENDROOT
BRANCH   1  15
HETATM   15  C   UNL     1      43.625 -15.304   6.227  1.00  0.00     0.286 C 
HETATM   16  N   UNL     1      42.625 -14.415   5.895  1.00  0.00    -0.262 N 
HETATM   17  H   UNL     1      42.084 -14.489   5.038  1.00  0.00     0.190 HD
HETATM   18  O   UNL     1      44.414 -15.085   7.147  1.00  0.00    -0.264 OA
BRANCH  16  19
HETATM   19  N   UNL     1      42.523 -13.208   6.599  1.00  0.00    -0.267 N 
HETATM   20  C   UNL     1      41.515 -12.336   6.240  1.00  0.00     0.245 C 
HETATM   21  O   UNL     1      40.623 -12.650   5.451  1.00  0.00    -0.271 OA
HETATM   22  H   UNL     1      43.382 -12.850   7.022  1.00  0.00     0.190 HD
BRANCH  20  23
HETATM   23  C   UNL     1      41.518 -11.005   6.972  1.00  0.00     0.177 C 
BRANCH  23  24
HETATM   24  S   UNL     1      39.902 -10.163   6.949  1.00  0.00    -0.164 SA
HETATM   25  C   UNL     1      39.306 -10.637   8.591  1.00  0.00     0.090 C 
ENDBRANCH  23  24
ENDBRANCH  20  23
ENDBRANCH  16  19
ENDBRANCH   1  15
TORSDOF 4
ENDMDL
MODEL 6
REMARK VINA RESULT:      -7.7      5.823      8.028
REMARK  4 active torsions:
REMARK  status: ('A' for Active; 'I' for Inactive)
REMARK    1  A    between atoms: S_2  and  C_3 
REMARK    2  A    between atoms: C_3  and  C_4 
REMARK       I    between atoms: C_4  and  N_5 
REMARK    3  A    between atoms: N_5  and  N_6 
REMARK       I    between atoms: N_6  and  C_7 
REMARK    4  A    between atoms: C_7  and  C_8 
ROOT
HETATM    1  C   UNL     1      42.073 -16.309   1.418  1.00  0.00     0.103 A 
HETATM    2  N   UNL     1      42.751 -17.393   0.908  1.00  0.00    -0.351 N 
HETATM    3  H   UNL     1      42.889 -17.552  -0.083  1.00  0.00     0.166 HD
HETATM    4  C   UNL     1      43.236 -18.195   1.913  1.00  0.00     0.044 A 
HETATM    5  C   UNL     1      42.849 -17.622   3.123  1.00  0.00     0.004 A 
HETATM    6  C   UNL     1      42.108 -16.444   2.795  1.00  0.00     0.050 A 
HETATM    7  C   UNL     1      43.988 -19.371   1.836  1.00  0.00     0.031 A 
HETATM    8  C   UNL     1      44.367 -19.982   3.035  1.00  0.00     0.014 A 
HETATM    9  C   UNL     1      44.011 -19.445   4.280  1.00  0.00    -0.025 A 
HETATM   10  C   UNL     1      43.241 -18.257   4.339  1.00  0.00    -0.013 A 
HETATM   11  C   UNL     1      44.403 -20.059   5.480  1.00  0.00     0.012 A 
HETATM   12  C   UNL     1      44.045 -19.512   6.715  1.00  0.00     0.001 A 
HETATM   13  C   UNL     1      43.288 -18.344   6.771  1.00  0.00     0.001 A 
HETATM   14  C   UNL     1      42.885 -17.716   5.592  1.00  0.00     0.013 A 
ENDROOT
BRANCH   1  15
HETATM   15  C   UNL     1      41.515 -15.292   0.555  1.00  0.00     0.286 C 
HETATM   16  N   UNL     1      40.701 -15.755  -0.456  1.00  0.00    -0.262 N 
HETATM   17  H   UNL     1      40.644 -16.737  -0.711  1.00  0.00     0.190 HD
HETATM   18  O   UNL     1      41.741 -14.092   0.712  1.00  0.00    -0.264 OA
BRANCH  16  19
HETATM   19  N   UNL     1      40.141 -14.839  -1.357  1.00  0.00    -0.267 N 
HETATM   20  C   UNL     1      40.533 -14.914  -2.679  1.00  0.00     0.245 C 
HETATM   21  O   UNL     1      41.216 -15.843  -3.112  1.00  0.00    -0.271 OA
HETATM   22  H   UNL     1      39.824 -13.949  -0.968  1.00  0.00     0.190 HD
BRANCH  20  23
HETATM   23  C   UNL     1      39.968 -13.833  -3.584  1.00  0.00     0.177 C 
BRANCH  23  24
HETATM   24  S   UNL     1      38.195 -13.512  -3.306  1.00  0.00    -0.164 SA
HETATM   25  C   UNL     1      37.532 -15.126  -3.788  1.00  0.00     0.090 C 
ENDBRANCH  23  24
ENDBRANCH  20  23
ENDBRANCH  16  19
ENDBRANCH   1  15
TORSDOF 4
ENDMDL
MODEL 7
REMARK VINA RESULT:      -7.6      4.328      5.533
REMARK  4 active torsions:
REMARK  status: ('A' for Active; 'I' for Inactive)
REMARK    1  A    between atoms: S_2  and  C_3 
REMARK    2  A    between atoms: C_3  and  C_4 
REMARK       I    between atoms: C_4  and  N_5 
REMARK    3  A    between atoms: N_5  and  N_6 
REMARK       I    between atoms: N_6  and  C_7 
REMARK    4  A    between atoms: C_7  and  C_8 
ROOT
HETATM    1  C   UNL     1      42.874 -15.946   3.639  1.00  0.00     0.103 A 
HETATM    2  N   UNL     1      43.445 -16.309   4.838  1.00  0.00    -0.351 N 
HETATM    3  H   UNL     1      43.521 -15.688   5.633  1.00  0.00     0.166 HD
HETATM    4  C   UNL     1      43.857 -17.621   4.816  1.00  0.00     0.044 A 
HETATM    5  C   UNL     1      43.557 -18.128   3.553  1.00  0.00     0.004 A 
HETATM    6  C   UNL     1      42.952 -17.060   2.820  1.00  0.00     0.050 A 
HETATM    7  C   UNL     1      44.460 -18.386   5.819  1.00  0.00     0.031 A 
HETATM    8  C   UNL     1      44.761 -19.720   5.527  1.00  0.00     0.014 A 
HETATM    9  C   UNL     1      44.476 -20.283   4.276  1.00  0.00    -0.025 A 
HETATM   10  C   UNL     1      43.872 -19.491   3.269  1.00  0.00    -0.013 A 
HETATM   11  C   UNL     1      44.774 -21.626   3.994  1.00  0.00     0.012 A 
HETATM   12  C   UNL     1      44.481 -22.178   2.744  1.00  0.00     0.001 A 
HETATM   13  C   UNL     1      43.888 -21.396   1.755  1.00  0.00     0.001 A 
HETATM   14  C   UNL     1      43.584 -20.058   2.011  1.00  0.00     0.013 A 
ENDROOT
BRANCH   1  15
HETATM   15  C   UNL     1      42.318 -14.628   3.435  1.00  0.00     0.286 C 
HETATM   16  N   UNL     1      42.848 -13.918   2.379  1.00  0.00    -0.262 N 
HETATM   17  H   UNL     1      43.696 -14.201   1.896  1.00  0.00     0.190 HD
HETATM   18  O   UNL     1      41.425 -14.167   4.147  1.00  0.00    -0.264 OA
BRANCH  16  19
HETATM   19  N   UNL     1      42.386 -12.619   2.128  1.00  0.00    -0.267 N 
HETATM   20  C   UNL     1      41.568 -12.426   1.033  1.00  0.00     0.245 C 
HETATM   21  O   UNL     1      41.108 -13.364   0.382  1.00  0.00    -0.271 OA
HETATM   22  H   UNL     1      42.966 -11.852   2.475  1.00  0.00     0.190 HD
BRANCH  20  23
HETATM   23  C   UNL     1      41.183 -10.982   0.760  1.00  0.00     0.177 C 
BRANCH  23  24
HETATM   24  S   UNL     1      42.464 -10.050  -0.142  1.00  0.00    -0.164 SA
HETATM   25  C   UNL     1      42.988 -11.334  -1.306  1.00  0.00     0.090 C 
ENDBRANCH  23  24
ENDBRANCH  20  23
ENDBRANCH  16  19
ENDBRANCH   1  15
TORSDOF 4
ENDMDL
MODEL 8
REMARK VINA RESULT:      -7.5      4.237      5.325
REMARK  4 active torsions:
REMARK  status: ('A' for Active; 'I' for Inactive)
REMARK    1  A    between atoms: S_2  and  C_3 
REMARK    2  A    between atoms: C_3  and  C_4 
REMARK       I    between atoms: C_4  and  N_5 
REMARK    3  A    between atoms: N_5  and  N_6 
REMARK       I    between atoms: N_6  and  C_7 
REMARK    4  A    between atoms: C_7  and  C_8 
ROOT
HETATM    1  C   UNL     1      42.802 -16.358   2.291  1.00  0.00     0.103 A 
HETATM    2  N   UNL     1      43.301 -16.374   3.574  1.00  0.00    -0.351 N 
HETATM    3  H   UNL     1      43.310 -15.564   4.182  1.00  0.00     0.166 HD
HETATM    4  C   UNL     1      43.746 -17.628   3.920  1.00  0.00     0.044 A 
HETATM    5  C   UNL     1      43.543 -18.457   2.819  1.00  0.00     0.004 A 
HETATM    6  C   UNL     1      42.960 -17.643   1.799  1.00  0.00     0.050 A 
HETATM    7  C   UNL     1      44.300 -18.080   5.121  1.00  0.00     0.031 A 
HETATM    8  C   UNL     1      44.653 -19.431   5.207  1.00  0.00     0.014 A 
HETATM    9  C   UNL     1      44.465 -20.311   4.132  1.00  0.00    -0.025 A 
HETATM   10  C   UNL     1      43.909 -19.833   2.920  1.00  0.00    -0.013 A 
HETATM   11  C   UNL     1      44.814 -21.668   4.229  1.00  0.00     0.012 A 
HETATM   12  C   UNL     1      44.617 -22.537   3.153  1.00  0.00     0.001 A 
HETATM   13  C   UNL     1      44.072 -22.064   1.961  1.00  0.00     0.001 A 
HETATM   14  C   UNL     1      43.718 -20.720   1.840  1.00  0.00     0.013 A 
ENDROOT
BRANCH   1  15
HETATM   15  C   UNL     1      42.227 -15.162   1.718  1.00  0.00     0.286 C 
HETATM   16  N   UNL     1      42.752 -13.973   2.179  1.00  0.00    -0.262 N 
HETATM   17  H   UNL     1      43.353 -13.917   2.996  1.00  0.00     0.190 HD
HETATM   18  O   UNL     1      41.335 -15.196   0.870  1.00  0.00    -0.264 OA
BRANCH  16  19
HETATM   19  N   UNL     1      42.232 -12.765   1.698  1.00  0.00    -0.267 N 
HETATM   20  C   UNL     1      41.458 -12.009   2.556  1.00  0.00     0.245 C 
HETATM   21  O   UNL     1      41.351 -12.276   3.753  1.00  0.00    -0.271 OA
HETATM   22  H   UNL     1      42.090 -12.697   0.688  1.00  0.00     0.190 HD
BRANCH  20  23
HETATM   23  C   UNL     1      40.844 -10.762   1.945  1.00  0.00     0.177 C 
BRANCH  23  24
HETATM   24  S   UNL     1      39.025 -10.723   2.057  1.00  0.00    -0.164 SA
HETATM   25  C   UNL     1      38.661 -12.370   1.400  1.00  0.00     0.090 C 
ENDBRANCH  23  24
ENDBRANCH  20  23
ENDBRANCH  16  19
ENDBRANCH   1  15
TORSDOF 4
ENDMDL
MODEL 9
REMARK VINA RESULT:      -7.5      5.950      7.716
REMARK  4 active torsions:
REMARK  status: ('A' for Active; 'I' for Inactive)
REMARK    1  A    between atoms: S_2  and  C_3 
REMARK    2  A    between atoms: C_3  and  C_4 
REMARK       I    between atoms: C_4  and  N_5 
REMARK    3  A    between atoms: N_5  and  N_6 
REMARK       I    between atoms: N_6  and  C_7 
REMARK    4  A    between atoms: C_7  and  C_8 
ROOT
HETATM    1  C   UNL     1      40.728 -16.353   1.958  1.00  0.00     0.103 A 
HETATM    2  N   UNL     1      41.588 -17.057   1.146  1.00  0.00    -0.351 N 
HETATM    3  H   UNL     1      41.596 -16.978   0.136  1.00  0.00     0.166 HD
HETATM    4  C   UNL     1      42.443 -17.840   1.885  1.00  0.00     0.044 A 
HETATM    5  C   UNL     1      42.119 -17.651   3.227  1.00  0.00     0.004 A 
HETATM    6  C   UNL     1      41.032 -16.724   3.257  1.00  0.00     0.050 A 
HETATM    7  C   UNL     1      43.472 -18.686   1.463  1.00  0.00     0.031 A 
HETATM    8  C   UNL     1      44.205 -19.360   2.445  1.00  0.00     0.014 A 
HETATM    9  C   UNL     1      43.927 -19.202   3.809  1.00  0.00    -0.025 A 
HETATM   10  C   UNL     1      42.875 -18.346   4.219  1.00  0.00    -0.013 A 
HETATM   11  C   UNL     1      44.674 -19.875   4.790  1.00  0.00     0.012 A 
HETATM   12  C   UNL     1      44.391 -19.706   6.148  1.00  0.00     0.001 A 
HETATM   13  C   UNL     1      43.355 -18.865   6.548  1.00  0.00     0.001 A 
HETATM   14  C   UNL     1      42.597 -18.187   5.592  1.00  0.00     0.013 A 
ENDROOT
BRANCH   1  15
HETATM   15  C   UNL     1      39.767 -15.420   1.414  1.00  0.00     0.286 C 
HETATM   16  N   UNL     1      39.894 -15.158   0.066  1.00  0.00    -0.262 N 
HETATM   17  H   UNL     1      40.709 -15.436  -0.475  1.00  0.00     0.190 HD
HETATM   18  O   UNL     1      38.889 -14.896   2.100  1.00  0.00    -0.264 OA
BRANCH  16  19
HETATM   19  N   UNL     1      39.022 -14.242  -0.537  1.00  0.00    -0.267 N 
HETATM   20  C   UNL     1      39.054 -14.132  -1.913  1.00  0.00     0.245 C 
HETATM   21  O   UNL     1      39.691 -14.912  -2.622  1.00  0.00    -0.271 OA
HETATM   22  H   UNL     1      38.728 -13.447   0.032  1.00  0.00     0.190 HD
BRANCH  20  23
HETATM   23  C   UNL     1      38.158 -13.053  -2.497  1.00  0.00     0.177 C 
BRANCH  23  24
HETATM   24  S   UNL     1      39.058 -11.839  -3.516  1.00  0.00    -0.164 SA
HETATM   25  C   UNL     1      40.376 -11.408  -2.352  1.00  0.00     0.090 C 
ENDBRANCH  23  24
ENDBRANCH  20  23
ENDBRANCH  16  19
ENDBRANCH   1  15
TORSDOF 4
ENDMDL
MODEL 10
REMARK VINA RESULT:      -7.4      5.960      7.897
REMARK  4 active torsions:
REMARK  status: ('A' for Active; 'I' for Inactive)
REMARK    1  A    between atoms: S_2  and  C_3 
REMARK    2  A    between atoms: C_3  and  C_4 
REMARK       I    between atoms: C_4  and  N_5 
REMARK    3  A    between atoms: N_5  and  N_6 
REMARK       I    between atoms: N_6  and  C_7 
REMARK    4  A    between atoms: C_7  and  C_8 
ROOT
HETATM    1  C   UNL     1      41.861 -15.933   1.231  1.00  0.00     0.103 A 
HETATM    2  N   UNL     1      42.248 -17.177   0.786  1.00  0.00    -0.351 N 
HETATM    3  H   UNL     1      42.090 -17.510  -0.157  1.00  0.00     0.166 HD
HETATM    4  C   UNL     1      42.899 -17.879   1.774  1.00  0.00     0.044 A 
HETATM    5  C   UNL     1      42.925 -17.069   2.908  1.00  0.00     0.004 A 
HETATM    6  C   UNL     1      42.258 -15.854   2.555  1.00  0.00     0.050 A 
HETATM    7  C   UNL     1      43.465 -19.156   1.739  1.00  0.00     0.031 A 
HETATM    8  C   UNL     1      44.089 -19.624   2.900  1.00  0.00     0.014 A 
HETATM    9  C   UNL     1      44.151 -18.849   4.066  1.00  0.00    -0.025 A 
HETATM   10  C   UNL     1      43.564 -17.559   4.086  1.00  0.00    -0.013 A 
HETATM   11  C   UNL     1      44.788 -19.321   5.225  1.00  0.00     0.012 A 
HETATM   12  C   UNL     1      44.847 -18.538   6.380  1.00  0.00     0.001 A 
HETATM   13  C   UNL     1      44.268 -17.271   6.398  1.00  0.00     0.001 A 
HETATM   14  C   UNL     1      43.628 -16.780   5.259  1.00  0.00     0.013 A 
ENDROOT
BRANCH   1  15
HETATM   15  C   UNL     1      41.204 -14.989   0.356  1.00  0.00     0.286 C 
HETATM   16  N   UNL     1      41.946 -14.569  -0.728  1.00  0.00    -0.262 N 
HETATM   17  H   UNL     1      42.943 -14.745  -0.813  1.00  0.00     0.190 HD
HETATM   18  O   UNL     1      40.057 -14.587   0.556  1.00  0.00    -0.264 OA
BRANCH  16  19
HETATM   19  N   UNL     1      41.395 -13.630  -1.610  1.00  0.00    -0.267 N 
HETATM   20  C   UNL     1      41.295 -13.980  -2.942  1.00  0.00     0.245 C 
HETATM   21  O   UNL     1      41.515 -15.124  -3.341  1.00  0.00    -0.271 OA
HETATM   22  H   UNL     1      41.480 -12.647  -1.345  1.00  0.00     0.190 HD
BRANCH  20  23
HETATM   23  C   UNL     1      40.783 -12.885  -3.862  1.00  0.00     0.177 C 
BRANCH  23  24
HETATM   24  S   UNL     1      41.945 -11.494  -4.048  1.00  0.00    -0.164 SA
HETATM   25  C   UNL     1      41.016 -10.221  -3.157  1.00  0.00     0.090 C 
ENDBRANCH  23  24
ENDBRANCH  20  23
ENDBRANCH  16  19
ENDBRANCH   1  15
TORSDOF 4
ENDMDL
