MODEL 1
REMARK VINA RESULT:      -8.8      0.000      0.000
REMARK  7 active torsions:
REMARK  status: ('A' for Active; 'I' for Inactive)
REMARK    1  A    between atoms: C_8  and  C_9 
REMARK    2  A    between atoms: C_9  and  C_10 
REMARK       I    between atoms: C_10  and  N_11 
REMARK    3  A    between atoms: N_11  and  C_27 
REMARK    4  A    between atoms: N_11  and  C_12 
REMARK    5  A    between atoms: C_12  and  C_13 
REMARK    6  A    between atoms: C_12  and  C_22 
REMARK       I    between atoms: C_13  and  N_14 
REMARK    7  A    between atoms: N_14  and  C_15 
ROOT
HETATM    1  C   UNL     1      41.591 -16.356   2.849  1.00  0.00     0.229 C 
HETATM    2  N   UNL     1      41.096 -15.124   2.417  1.00  0.00    -0.299 N 
HETATM    3  O   UNL     1      41.000 -17.008   3.718  1.00  0.00    -0.273 OA
ENDROOT
BRANCH   2   4
HETATM    4  C   UNL     1      41.485 -14.477   1.209  1.00  0.00     0.041 A 
HETATM    5  C   UNL     1      42.067 -13.200   1.260  1.00  0.00     0.069 A 
HETATM    6  C   UNL     1      42.345 -12.563   0.069  1.00  0.00     0.107 A 
HETATM    7  C   UNL     1      42.070 -13.144  -1.146  1.00  0.00     0.105 A 
HETATM    8  O   UNL     1      42.891 -11.324  -0.061  1.00  0.00    -0.323 OA
HETATM    9  O   UNL     1      42.409 -12.343  -2.192  1.00  0.00    -0.323 OA
HETATM   10  C   UNL     1      41.503 -14.394  -1.238  1.00  0.00     0.042 A 
HETATM   11  C   UNL     1      42.899 -11.178  -1.495  1.00  0.00     0.352 A 
HETATM   12  C   UNL     1      41.199 -15.062  -0.045  1.00  0.00     0.032 A 
ENDBRANCH   2   4
BRANCH   2  13
HETATM   13  C   UNL     1      39.907 -14.552   3.101  1.00  0.00     0.225 C 
BRANCH  13  14
HETATM   14  C   UNL     1      38.735 -14.329   2.116  1.00  0.00     0.246 C 
HETATM   15  N   UNL     1      38.481 -13.037   1.709  1.00  0.00    -0.354 N 
HETATM   16  H   UNL     1      39.330 -12.470   1.745  1.00  0.00     0.162 HD
HETATM   17  O   UNL     1      38.159 -15.303   1.623  1.00  0.00    -0.271 OA
BRANCH  15  18
HETATM   18  C   UNL     1      37.614 -12.692   0.579  1.00  0.00     0.084 C 
HETATM   19  C   UNL     1      36.576 -11.590   0.854  1.00  0.00     0.025 C 
HETATM   20  C   UNL     1      37.216 -10.223   1.080  1.00  0.00     0.002 C 
HETATM   21  C   UNL     1      38.101  -9.827  -0.097  1.00  0.00     0.000 C 
HETATM   22  C   UNL     1      39.138 -10.902  -0.409  1.00  0.00     0.002 C 
HETATM   23  C   UNL     1      38.492 -12.275  -0.615  1.00  0.00     0.025 C 
ENDBRANCH  15  18
ENDBRANCH  13  14
BRANCH  13  24
HETATM   24  C   UNL     1      40.280 -13.408   4.039  1.00  0.00     0.015 A 
HETATM   25  S   UNL     1      41.379 -13.758   5.335  1.00  0.00    -0.104 SA
HETATM   26  C   UNL     1      41.413 -12.136   5.858  1.00  0.00     0.050 A 
HETATM   27  C   UNL     1      40.609 -11.331   5.089  1.00  0.00     0.008 A 
HETATM   28  C   UNL     1      39.953 -12.062   4.053  1.00  0.00     0.017 A 
ENDBRANCH  13  24
ENDBRANCH   2  13
BRANCH   1  29
HETATM   29  C   UNL     1      42.930 -16.865   2.314  1.00  0.00     0.144 C 
BRANCH  29  30
HETATM   30  C   UNL     1      43.543 -17.929   3.184  1.00  0.00    -0.021 A 
HETATM   31  C   UNL     1      43.754 -19.317   2.879  1.00  0.00    -0.001 A 
HETATM   32  C   UNL     1      43.470 -20.143   1.771  1.00  0.00     0.014 A 
HETATM   33  C   UNL     1      44.393 -19.895   3.977  1.00  0.00     0.042 A 
HETATM   34  C   UNL     1      43.807 -21.501   1.807  1.00  0.00     0.001 A 
HETATM   35  C   UNL     1      44.440 -22.044   2.920  1.00  0.00     0.002 A 
HETATM   36  C   UNL     1      44.751 -21.249   4.026  1.00  0.00     0.030 A 
HETATM   37  N   UNL     1      44.573 -18.904   4.911  1.00  0.00    -0.365 N 
HETATM   38  H   UNL     1      45.022 -19.035   5.806  1.00  0.00     0.165 HD
HETATM   39  C   UNL     1      44.068 -17.720   4.447  1.00  0.00     0.097 A 
ENDBRANCH  29  30
ENDBRANCH   1  29
TORSDOF 7
ENDMDL
MODEL 2
REMARK VINA RESULT:      -8.6      1.288      2.058
REMARK  7 active torsions:
REMARK  status: ('A' for Active; 'I' for Inactive)
REMARK    1  A    between atoms: C_8  and  C_9 
REMARK    2  A    between atoms: C_9  and  C_10 
REMARK       I    between atoms: C_10  and  N_11 
REMARK    3  A    between atoms: N_11  and  C_27 
REMARK    4  A    between atoms: N_11  and  C_12 
REMARK    5  A    between atoms: C_12  and  C_13 
REMARK    6  A    between atoms: C_12  and  C_22 
REMARK       I    between atoms: C_13  and  N_14 
REMARK    7  A    between atoms: N_14  and  C_15 
ROOT
HETATM    1  C   UNL     1      42.023 -15.331   3.211  1.00  0.00     0.229 C 
HETATM    2  N   UNL     1      41.203 -14.439   2.518  1.00  0.00    -0.299 N 
HETATM    3  O   UNL     1      41.661 -15.818   4.290  1.00  0.00    -0.273 OA
ENDROOT
BRANCH   2   4
HETATM    4  C   UNL     1      41.356 -14.105   1.141  1.00  0.00     0.041 A 
HETATM    5  C   UNL     1      41.033 -15.051   0.156  1.00  0.00     0.069 A 
HETATM    6  C   UNL     1      41.281 -14.729  -1.162  1.00  0.00     0.107 A 
HETATM    7  C   UNL     1      41.829 -13.522  -1.524  1.00  0.00     0.105 A 
HETATM    8  O   UNL     1      41.043 -15.532  -2.234  1.00  0.00    -0.323 OA
HETATM    9  O   UNL     1      42.004 -13.413  -2.868  1.00  0.00    -0.323 OA
HETATM   10  C   UNL     1      42.157 -12.568  -0.588  1.00  0.00     0.042 A 
HETATM   11  C   UNL     1      41.532 -14.704  -3.309  1.00  0.00     0.352 A 
HETATM   12  C   UNL     1      41.926 -12.869   0.760  1.00  0.00     0.032 A 
ENDBRANCH   2   4
BRANCH   2  13
HETATM   13  C   UNL     1      39.935 -13.993   3.151  1.00  0.00     0.225 C 
BRANCH  13  14
HETATM   14  C   UNL     1      38.742 -14.092   2.172  1.00  0.00     0.246 C 
HETATM   15  N   UNL     1      38.248 -12.916   1.648  1.00  0.00    -0.354 N 
HETATM   16  H   UNL     1      38.975 -12.199   1.613  1.00  0.00     0.162 HD
HETATM   17  O   UNL     1      38.360 -15.200   1.786  1.00  0.00    -0.271 OA
BRANCH  15  18
HETATM   18  C   UNL     1      37.332 -12.852   0.506  1.00  0.00     0.084 C 
HETATM   19  C   UNL     1      36.300 -11.711   0.549  1.00  0.00     0.025 C 
HETATM   20  C   UNL     1      36.940 -10.334   0.408  1.00  0.00     0.002 C 
HETATM   21  C   UNL     1      37.771 -10.240  -0.867  1.00  0.00     0.000 C 
HETATM   22  C   UNL     1      38.801 -11.363  -0.952  1.00  0.00     0.002 C 
HETATM   23  C   UNL     1      38.155 -12.742  -0.790  1.00  0.00     0.025 C 
ENDBRANCH  15  18
ENDBRANCH  13  14
BRANCH  13  24
HETATM   24  C   UNL     1      40.111 -12.696   3.935  1.00  0.00     0.015 A 
HETATM   25  S   UNL     1      39.354 -12.589   5.492  1.00  0.00    -0.104 SA
HETATM   26  C   UNL     1      40.004 -11.043   5.797  1.00  0.00     0.050 A 
HETATM   27  C   UNL     1      40.773 -10.594   4.752  1.00  0.00     0.008 A 
HETATM   28  C   UNL     1      40.826 -11.536   3.682  1.00  0.00     0.017 A 
ENDBRANCH  13  24
ENDBRANCH   2  13
BRANCH   1  29
HETATM   29  C   UNL     1      43.425 -15.639   2.685  1.00  0.00     0.144 C 
BRANCH  29  30
HETATM   30  C   UNL     1      43.652 -17.106   2.442  1.00  0.00    -0.021 A 
HETATM   31  C   UNL     1      44.008 -18.122   3.393  1.00  0.00    -0.001 A 
HETATM   32  C   UNL     1      44.287 -18.131   4.777  1.00  0.00     0.014 A 
HETATM   33  C   UNL     1      44.063 -19.337   2.708  1.00  0.00     0.042 A 
HETATM   34  C   UNL     1      44.627 -19.331   5.413  1.00  0.00     0.001 A 
HETATM   35  C   UNL     1      44.674 -20.523   4.698  1.00  0.00     0.002 A 
HETATM   36  C   UNL     1      44.387 -20.551   3.330  1.00  0.00     0.030 A 
HETATM   37  N   UNL     1      43.745 -19.079   1.397  1.00  0.00    -0.365 N 
HETATM   38  H   UNL     1      43.696 -19.780   0.671  1.00  0.00     0.165 HD
HETATM   39  C   UNL     1      43.496 -17.745   1.225  1.00  0.00     0.097 A 
ENDBRANCH  29  30
ENDBRANCH   1  29
TORSDOF 7
ENDMDL
MODEL 3
REMARK VINA RESULT:      -8.3      3.049      5.398
REMARK  7 active torsions:
REMARK  status: ('A' for Active; 'I' for Inactive)
REMARK    1  A    between atoms: C_8  and  C_9 
REMARK    2  A    between atoms: C_9  and  C_10 
REMARK       I    between atoms: C_10  and  N_11 
REMARK    3  A    between atoms: N_11  and  C_27 
REMARK    4  A    between atoms: N_11  and  C_12 
REMARK    5  A    between atoms: C_12  and  C_13 
REMARK    6  A    between atoms: C_12  and  C_22 
REMARK       I    between atoms: C_13  and  N_14 
REMARK    7  A    between atoms: N_14  and  C_15 
ROOT
HETATM    1  C   UNL     1      43.712 -14.107   6.287  1.00  0.00     0.229 C 
HETATM    2  N   UNL     1      42.966 -14.163   5.108  1.00  0.00    -0.299 N 
HETATM    3  O   UNL     1      43.573 -13.169   7.082  1.00  0.00    -0.273 OA
ENDROOT
BRANCH   2   4
HETATM    4  C   UNL     1      42.788 -15.337   4.320  1.00  0.00     0.041 A 
HETATM    5  C   UNL     1      43.664 -15.597   3.254  1.00  0.00     0.069 A 
HETATM    6  C   UNL     1      43.409 -16.691   2.454  1.00  0.00     0.107 A 
HETATM    7  C   UNL     1      42.334 -17.518   2.677  1.00  0.00     0.105 A 
HETATM    8  O   UNL     1      44.144 -17.076   1.376  1.00  0.00    -0.323 OA
HETATM    9  O   UNL     1      42.257 -18.526   1.767  1.00  0.00    -0.323 OA
HETATM   10  C   UNL     1      41.454 -17.297   3.712  1.00  0.00     0.042 A 
HETATM   11  C   UNL     1      43.390 -18.221   0.927  1.00  0.00     0.352 A 
HETATM   12  C   UNL     1      41.681 -16.188   4.536  1.00  0.00     0.032 A 
ENDBRANCH   2   4
BRANCH   2  13
HETATM   13  C   UNL     1      42.082 -13.018   4.766  1.00  0.00     0.225 C 
BRANCH  13  14
HETATM   14  C   UNL     1      41.018 -12.772   5.861  1.00  0.00     0.246 C 
HETATM   15  N   UNL     1      40.948 -11.509   6.410  1.00  0.00    -0.354 N 
HETATM   16  H   UNL     1      41.278 -10.806   5.748  1.00  0.00     0.162 HD
HETATM   17  O   UNL     1      40.188 -13.649   6.113  1.00  0.00    -0.271 OA
BRANCH  15  18
HETATM   18  C   UNL     1      39.830 -11.036   7.231  1.00  0.00     0.084 C 
HETATM   19  C   UNL     1      40.103 -10.967   8.744  1.00  0.00     0.025 C 
HETATM   20  C   UNL     1      41.127  -9.896   9.109  1.00  0.00     0.002 C 
HETATM   21  C   UNL     1      40.700  -8.527   8.591  1.00  0.00     0.000 C 
HETATM   22  C   UNL     1      40.409  -8.556   7.094  1.00  0.00     0.002 C 
HETATM   23  C   UNL     1      39.396  -9.647   6.731  1.00  0.00     0.025 C 
ENDBRANCH  15  18
ENDBRANCH  13  14
BRANCH  13  24
HETATM   24  C   UNL     1      41.617 -13.067   3.314  1.00  0.00     0.015 A 
HETATM   25  S   UNL     1      39.939 -13.397   3.019  1.00  0.00    -0.104 SA
HETATM   26  C   UNL     1      40.112 -13.212   1.333  1.00  0.00     0.050 A 
HETATM   27  C   UNL     1      41.404 -12.916   0.979  1.00  0.00     0.008 A 
HETATM   28  C   UNL     1      42.268 -12.842   2.112  1.00  0.00     0.017 A 
ENDBRANCH  13  24
ENDBRANCH   2  13
BRANCH   1  29
HETATM   29  C   UNL     1      44.784 -15.163   6.557  1.00  0.00     0.144 C 
BRANCH  29  30
HETATM   30  C   UNL     1      44.217 -16.455   7.078  1.00  0.00    -0.021 A 
HETATM   31  C   UNL     1      44.332 -17.771   6.513  1.00  0.00    -0.001 A 
HETATM   32  C   UNL     1      44.933 -18.302   5.351  1.00  0.00     0.014 A 
HETATM   33  C   UNL     1      43.680 -18.656   7.373  1.00  0.00     0.042 A 
HETATM   34  C   UNL     1      44.843 -19.673   5.083  1.00  0.00     0.001 A 
HETATM   35  C   UNL     1      44.182 -20.525   5.963  1.00  0.00     0.002 A 
HETATM   36  C   UNL     1      43.592 -20.033   7.130  1.00  0.00     0.030 A 
HETATM   37  N   UNL     1      43.195 -17.916   8.425  1.00  0.00    -0.365 N 
HETATM   38  H   UNL     1      42.686 -18.301   9.208  1.00  0.00     0.165 HD
HETATM   39  C   UNL     1      43.511 -16.596   8.260  1.00  0.00     0.097 A 
ENDBRANCH  29  30
ENDBRANCH   1  29
TORSDOF 7
ENDMDL
MODEL 4
REMARK VINA RESULT:      -8.3      2.498      4.659
REMARK  7 active torsions:
REMARK  status: ('A' for Active; 'I' for Inactive)
REMARK    1  A    between atoms: C_8  and  C_9 
REMARK    2  A    between atoms: C_9  and  C_10 
REMARK       I    between atoms: C_10  and  N_11 
REMARK    3  A    between atoms: N_11  and  C_27 
REMARK    4  A    between atoms: N_11  and  C_12 
REMARK    5  A    between atoms: C_12  and  C_13 
REMARK    6  A    between atoms: C_12  and  C_22 
REMARK       I    between atoms: C_13  and  N_14 
REMARK    7  A    between atoms: N_14  and  C_15 
ROOT
HETATM    1  C   UNL     1      40.404 -14.964   0.836  1.00  0.00     0.229 C 
HETATM    2  N   UNL     1      40.621 -13.820   1.606  1.00  0.00    -0.299 N 
HETATM    3  O   UNL     1      40.213 -14.881  -0.383  1.00  0.00    -0.273 OA
ENDROOT
BRANCH   2   4
HETATM    4  C   UNL     1      41.188 -13.822   2.914  1.00  0.00     0.041 A 
HETATM    5  C   UNL     1      42.580 -13.719   3.068  1.00  0.00     0.069 A 
HETATM    6  C   UNL     1      43.103 -13.819   4.340  1.00  0.00     0.107 A 
HETATM    7  C   UNL     1      42.303 -14.013   5.440  1.00  0.00     0.105 A 
HETATM    8  O   UNL     1      44.423 -13.757   4.663  1.00  0.00    -0.323 OA
HETATM    9  O   UNL     1      43.018 -14.097   6.594  1.00  0.00    -0.323 OA
HETATM   10  C   UNL     1      40.935 -14.116   5.330  1.00  0.00     0.042 A 
HETATM   11  C   UNL     1      44.364 -13.965   6.089  1.00  0.00     0.352 A 
HETATM   12  C   UNL     1      40.374 -14.029   4.050  1.00  0.00     0.032 A 
ENDBRANCH   2   4
BRANCH   2  13
HETATM   13  C   UNL     1      40.505 -12.488   0.957  1.00  0.00     0.225 C 
BRANCH  13  14
HETATM   14  C   UNL     1      41.750 -12.162   0.098  1.00  0.00     0.246 C 
HETATM   15  N   UNL     1      41.606 -12.198  -1.272  1.00  0.00    -0.354 N 
HETATM   16  H   UNL     1      40.641 -12.000  -1.543  1.00  0.00     0.162 HD
HETATM   17  O   UNL     1      42.778 -11.754   0.645  1.00  0.00    -0.271 OA
BRANCH  15  18
HETATM   18  C   UNL     1      42.585 -11.644  -2.211  1.00  0.00     0.084 C 
HETATM   19  C   UNL     1      42.366 -12.011  -3.689  1.00  0.00     0.025 C 
HETATM   20  C   UNL     1      41.105 -11.380  -4.272  1.00  0.00     0.002 C 
HETATM   21  C   UNL     1      41.120  -9.865  -4.107  1.00  0.00     0.000 C 
HETATM   22  C   UNL     1      41.346  -9.459  -2.653  1.00  0.00     0.002 C 
HETATM   23  C   UNL     1      42.602 -10.111  -2.068  1.00  0.00     0.025 C 
ENDBRANCH  15  18
ENDBRANCH  13  14
BRANCH  13  24
HETATM   24  C   UNL     1      40.004 -11.420   1.924  1.00  0.00     0.015 A 
HETATM   25  S   UNL     1      38.311 -11.408   2.301  1.00  0.00    -0.104 SA
HETATM   26  C   UNL     1      38.481 -10.130   3.416  1.00  0.00     0.050 A 
HETATM   27  C   UNL     1      39.781  -9.698   3.508  1.00  0.00     0.008 A 
HETATM   28  C   UNL     1      40.651 -10.431   2.648  1.00  0.00     0.017 A 
ENDBRANCH  13  24
ENDBRANCH   2  13
BRANCH   1  29
HETATM   29  C   UNL     1      40.303 -16.329   1.517  1.00  0.00     0.144 C 
BRANCH  29  30
HETATM   30  C   UNL     1      41.646 -16.951   1.785  1.00  0.00    -0.021 A 
HETATM   31  C   UNL     1      42.148 -17.493   3.018  1.00  0.00    -0.001 A 
HETATM   32  C   UNL     1      41.638 -17.611   4.329  1.00  0.00     0.014 A 
HETATM   33  C   UNL     1      43.425 -17.996   2.767  1.00  0.00     0.042 A 
HETATM   34  C   UNL     1      42.418 -18.198   5.332  1.00  0.00     0.001 A 
HETATM   35  C   UNL     1      43.689 -18.687   5.045  1.00  0.00     0.002 A 
HETATM   36  C   UNL     1      44.215 -18.601   3.753  1.00  0.00     0.030 A 
HETATM   37  N   UNL     1      43.692 -17.781   1.436  1.00  0.00    -0.365 N 
HETATM   38  H   UNL     1      44.546 -18.055   0.972  1.00  0.00     0.165 HD
HETATM   39  C   UNL     1      42.633 -17.156   0.837  1.00  0.00     0.097 A 
ENDBRANCH  29  30
ENDBRANCH   1  29
TORSDOF 7
ENDMDL
MODEL 5
REMARK VINA RESULT:      -8.2      3.906      7.862
REMARK  7 active torsions:
REMARK  status: ('A' for Active; 'I' for Inactive)
REMARK    1  A    between atoms: C_8  and  C_9 
REMARK    2  A    between atoms: C_9  and  C_10 
REMARK       I    between atoms: C_10  and  N_11 
REMARK    3  A    between atoms: N_11  and  C_27 
REMARK    4  A    between atoms: N_11  and  C_12 
REMARK    5  A    between atoms: C_12  and  C_13 
REMARK    6  A    between atoms: C_12  and  C_22 
REMARK       I    between atoms: C_13  and  N_14 
REMARK    7  A    between atoms: N_14  and  C_15 
ROOT
HETATM    1  C   UNL     1      43.979 -14.174   6.042  1.00  0.00     0.229 C 
HETATM    2  N   UNL     1      43.318 -15.239   5.428  1.00  0.00    -0.299 N 
HETATM    3  O   UNL     1      43.575 -13.012   5.903  1.00  0.00    -0.273 OA
ENDROOT
BRANCH   2   4
HETATM    4  C   UNL     1      43.475 -16.607   5.796  1.00  0.00     0.041 A 
HETATM    5  C   UNL     1      44.228 -17.465   4.979  1.00  0.00     0.069 A 
HETATM    6  C   UNL     1      44.282 -18.801   5.315  1.00  0.00     0.107 A 
HETATM    7  C   UNL     1      43.627 -19.301   6.414  1.00  0.00     0.105 A 
HETATM    8  O   UNL     1      44.950 -19.766   4.627  1.00  0.00    -0.323 OA
HETATM    9  O   UNL     1      43.799 -20.642   6.556  1.00  0.00    -0.323 OA
HETATM   10  C   UNL     1      42.881 -18.491   7.241  1.00  0.00     0.042 A 
HETATM   11  C   UNL     1      44.613 -20.936   5.401  1.00  0.00     0.352 A 
HETATM   12  C   UNL     1      42.798 -17.131   6.921  1.00  0.00     0.032 A 
ENDBRANCH   2   4
BRANCH   2  13
HETATM   13  C   UNL     1      42.187 -14.945   4.509  1.00  0.00     0.225 C 
BRANCH  13  14
HETATM   14  C   UNL     1      40.901 -14.578   5.287  1.00  0.00     0.246 C 
HETATM   15  N   UNL     1      40.583 -13.242   5.398  1.00  0.00    -0.354 N 
HETATM   16  H   UNL     1      40.962 -12.711   4.613  1.00  0.00     0.162 HD
HETATM   17  O   UNL     1      40.138 -15.473   5.661  1.00  0.00    -0.271 OA
BRANCH  15  18
HETATM   18  C   UNL     1      39.276 -12.748   5.840  1.00  0.00     0.084 C 
HETATM   19  C   UNL     1      39.204 -12.289   7.307  1.00  0.00     0.025 C 
HETATM   20  C   UNL     1      40.028 -11.033   7.573  1.00  0.00     0.002 C 
HETATM   21  C   UNL     1      39.610  -9.895   6.648  1.00  0.00     0.000 C 
HETATM   22  C   UNL     1      39.658 -10.314   5.182  1.00  0.00     0.002 C 
HETATM   23  C   UNL     1      38.845 -11.586   4.926  1.00  0.00     0.025 C 
ENDBRANCH  15  18
ENDBRANCH  13  14
BRANCH  13  24
HETATM   24  C   UNL     1      42.076 -15.975   3.389  1.00  0.00     0.015 A 
HETATM   25  S   UNL     1      43.156 -15.815   2.041  1.00  0.00    -0.104 SA
HETATM   26  C   UNL     1      42.580 -17.238   1.301  1.00  0.00     0.050 A 
HETATM   27  C   UNL     1      41.584 -17.832   2.036  1.00  0.00     0.008 A 
HETATM   28  C   UNL     1      41.289 -17.104   3.227  1.00  0.00     0.017 A 
ENDBRANCH  13  24
ENDBRANCH   2  13
BRANCH   1  29
HETATM   29  C   UNL     1      45.272 -14.428   6.816  1.00  0.00     0.144 C 
BRANCH  29  30
HETATM   30  C   UNL     1      45.787 -13.201   7.518  1.00  0.00    -0.021 A 
HETATM   31  C   UNL     1      45.250 -12.547   8.679  1.00  0.00    -0.001 A 
HETATM   32  C   UNL     1      44.128 -12.763   9.508  1.00  0.00     0.014 A 
HETATM   33  C   UNL     1      46.092 -11.478   8.986  1.00  0.00     0.042 A 
HETATM   34  C   UNL     1      43.878 -11.902  10.583  1.00  0.00     0.001 A 
HETATM   35  C   UNL     1      44.739 -10.843  10.858  1.00  0.00     0.002 A 
HETATM   36  C   UNL     1      45.868 -10.614  10.067  1.00  0.00     0.030 A 
HETATM   37  N   UNL     1      47.106 -11.481   8.059  1.00  0.00    -0.365 N 
HETATM   38  H   UNL     1      47.870 -10.820   8.045  1.00  0.00     0.165 HD
HETATM   39  C   UNL     1      46.935 -12.509   7.174  1.00  0.00     0.097 A 
ENDBRANCH  29  30
ENDBRANCH   1  29
TORSDOF 7
ENDMDL
MODEL 6
REMARK VINA RESULT:      -8.2      2.956      7.980
REMARK  7 active torsions:
REMARK  status: ('A' for Active; 'I' for Inactive)
REMARK    1  A    between atoms: C_8  and  C_9 
REMARK    2  A    between atoms: C_9  and  C_10 
REMARK       I    between atoms: C_10  and  N_11 
REMARK    3  A    between atoms: N_11  and  C_27 
REMARK    4  A    between atoms: N_11  and  C_12 
REMARK    5  A    between atoms: C_12  and  C_13 
REMARK    6  A    between atoms: C_12  and  C_22 
REMARK       I    between atoms: C_13  and  N_14 
REMARK    7  A    between atoms: N_14  and  C_15 
ROOT
HETATM    1  C   UNL     1      42.094 -12.581  -0.306  1.00  0.00     0.229 C 
HETATM    2  N   UNL     1      40.805 -13.117  -0.332  1.00  0.00    -0.299 N 
HETATM    3  O   UNL     1      42.642 -12.299   0.766  1.00  0.00    -0.273 OA
ENDROOT
BRANCH   2   4
HETATM    4  C   UNL     1      40.233 -13.791  -1.450  1.00  0.00     0.041 A 
HETATM    5  C   UNL     1      39.023 -13.331  -1.994  1.00  0.00     0.069 A 
HETATM    6  C   UNL     1      38.450 -14.061  -3.014  1.00  0.00     0.107 A 
HETATM    7  C   UNL     1      39.030 -15.208  -3.501  1.00  0.00     0.105 A 
HETATM    8  O   UNL     1      37.279 -13.766  -3.640  1.00  0.00    -0.323 OA
HETATM    9  O   UNL     1      38.297 -15.779  -4.494  1.00  0.00    -0.323 OA
HETATM   10  C   UNL     1      40.216 -15.689  -2.996  1.00  0.00     0.042 A 
HETATM   11  C   UNL     1      37.172 -14.877  -4.555  1.00  0.00     0.352 A 
HETATM   12  C   UNL     1      40.818 -14.975  -1.951  1.00  0.00     0.032 A 
ENDBRANCH   2   4
BRANCH   2  13
HETATM   13  C   UNL     1      40.055 -13.237   0.945  1.00  0.00     0.225 C 
BRANCH  13  14
HETATM   14  C   UNL     1      39.874 -14.716   1.364  1.00  0.00     0.246 C 
HETATM   15  N   UNL     1      41.014 -15.468   1.554  1.00  0.00    -0.354 N 
HETATM   16  H   UNL     1      41.800 -14.876   1.825  1.00  0.00     0.162 HD
HETATM   17  O   UNL     1      38.749 -15.137   1.644  1.00  0.00    -0.271 OA
BRANCH  15  18
HETATM   18  C   UNL     1      41.028 -16.774   2.219  1.00  0.00     0.084 C 
HETATM   19  C   UNL     1      41.695 -17.912   1.427  1.00  0.00     0.025 C 
HETATM   20  C   UNL     1      43.200 -17.717   1.269  1.00  0.00     0.002 C 
HETATM   21  C   UNL     1      43.880 -17.554   2.623  1.00  0.00     0.000 C 
HETATM   22  C   UNL     1      43.239 -16.440   3.445  1.00  0.00     0.002 C 
HETATM   23  C   UNL     1      41.726 -16.631   3.584  1.00  0.00     0.025 C 
ENDBRANCH  15  18
ENDBRANCH  13  14
BRANCH  13  24
HETATM   24  C   UNL     1      38.829 -12.330   0.978  1.00  0.00     0.015 A 
HETATM   25  S   UNL     1      39.096 -10.616   0.939  1.00  0.00    -0.104 SA
HETATM   26  C   UNL     1      37.427 -10.271   0.904  1.00  0.00     0.050 A 
HETATM   27  C   UNL     1      36.665 -11.413   0.930  1.00  0.00     0.008 A 
HETATM   28  C   UNL     1      37.468 -12.591   0.982  1.00  0.00     0.017 A 
ENDBRANCH  13  24
ENDBRANCH   2  13
BRANCH   1  29
HETATM   29  C   UNL     1      42.803 -12.246  -1.619  1.00  0.00     0.144 C 
BRANCH  29  30
HETATM   30  C   UNL     1      42.687 -10.795  -1.994  1.00  0.00    -0.021 A 
HETATM   31  C   UNL     1      42.497 -10.224  -3.299  1.00  0.00    -0.001 A 
HETATM   32  C   UNL     1      42.387 -10.749  -4.605  1.00  0.00     0.014 A 
HETATM   33  C   UNL     1      42.406  -8.840  -3.143  1.00  0.00     0.042 A 
HETATM   34  C   UNL     1      42.216  -9.885  -5.693  1.00  0.00     0.001 A 
HETATM   35  C   UNL     1      42.132  -8.510  -5.499  1.00  0.00     0.002 A 
HETATM   36  C   UNL     1      42.220  -7.960  -4.218  1.00  0.00     0.030 A 
HETATM   37  N   UNL     1      42.526  -8.574  -1.800  1.00  0.00    -0.365 N 
HETATM   38  H   UNL     1      42.486  -7.650  -1.394  1.00  0.00     0.165 HD
HETATM   39  C   UNL     1      42.695  -9.738  -1.101  1.00  0.00     0.097 A 
ENDBRANCH  29  30
ENDBRANCH   1  29
TORSDOF 7
ENDMDL
MODEL 7
REMARK VINA RESULT:      -8.1      2.679      4.907
REMARK  7 active torsions:
REMARK  status: ('A' for Active; 'I' for Inactive)
REMARK    1  A    between atoms: C_8  and  C_9 
REMARK    2  A    between atoms: C_9  and  C_10 
REMARK       I    between atoms: C_10  and  N_11 
REMARK    3  A    between atoms: N_11  and  C_27 
REMARK    4  A    between atoms: N_11  and  C_12 
REMARK    5  A    between atoms: C_12  and  C_13 
REMARK    6  A    between atoms: C_12  and  C_22 
REMARK       I    between atoms: C_13  and  N_14 
REMARK    7  A    between atoms: N_14  and  C_15 
ROOT
HETATM    1  C   UNL     1      41.155 -15.975   0.879  1.00  0.00     0.229 C 
HETATM    2  N   UNL     1      40.762 -14.687   0.513  1.00  0.00    -0.299 N 
HETATM    3  O   UNL     1      41.926 -16.629   0.166  1.00  0.00    -0.273 OA
ENDROOT
BRANCH   2   4
HETATM    4  C   UNL     1      40.182 -13.736   1.403  1.00  0.00     0.041 A 
HETATM    5  C   UNL     1      40.857 -13.387   2.583  1.00  0.00     0.069 A 
HETATM    6  C   UNL     1      40.226 -12.537   3.466  1.00  0.00     0.107 A 
HETATM    7  C   UNL     1      38.972 -12.033   3.218  1.00  0.00     0.105 A 
HETATM    8  O   UNL     1      40.729 -12.112   4.657  1.00  0.00    -0.323 OA
HETATM    9  O   UNL     1      38.529 -11.227   4.221  1.00  0.00    -0.323 OA
HETATM   10  C   UNL     1      38.279 -12.349   2.072  1.00  0.00     0.042 A 
HETATM   11  C   UNL     1      39.636 -11.308   5.144  1.00  0.00     0.352 A 
HETATM   12  C   UNL     1      38.890 -13.219   1.160  1.00  0.00     0.032 A 
ENDBRANCH   2   4
BRANCH   2  13
HETATM   13  C   UNL     1      41.192 -14.155  -0.806  1.00  0.00     0.225 C 
BRANCH  13  14
HETATM   14  C   UNL     1      41.714 -12.703  -0.692  1.00  0.00     0.246 C 
HETATM   15  N   UNL     1      41.006 -11.718  -1.346  1.00  0.00    -0.354 N 
HETATM   16  H   UNL     1      40.024 -11.979  -1.444  1.00  0.00     0.162 HD
HETATM   17  O   UNL     1      42.648 -12.449   0.074  1.00  0.00    -0.271 OA
BRANCH  15  18
HETATM   18  C   UNL     1      41.192 -10.284  -1.108  1.00  0.00     0.084 C 
HETATM   19  C   UNL     1      42.507  -9.689  -1.641  1.00  0.00     0.025 C 
HETATM   20  C   UNL     1      42.574  -9.680  -3.166  1.00  0.00     0.002 C 
HETATM   21  C   UNL     1      41.384  -8.940  -3.765  1.00  0.00     0.000 C 
HETATM   22  C   UNL     1      40.059  -9.493  -3.252  1.00  0.00     0.002 C 
HETATM   23  C   UNL     1      40.005  -9.518  -1.721  1.00  0.00     0.025 C 
ENDBRANCH  15  18
ENDBRANCH  13  14
BRANCH  13  24
HETATM   24  C   UNL     1      40.185 -14.468  -1.908  1.00  0.00     0.015 A 
HETATM   25  S   UNL     1      40.670 -15.582  -3.147  1.00  0.00    -0.104 SA
HETATM   26  C   UNL     1      39.145 -15.532  -3.907  1.00  0.00     0.050 A 
HETATM   27  C   UNL     1      38.276 -14.689  -3.260  1.00  0.00     0.008 A 
HETATM   28  C   UNL     1      38.874 -14.073  -2.121  1.00  0.00     0.017 A 
ENDBRANCH  13  24
ENDBRANCH   2  13
BRANCH   1  29
HETATM   29  C   UNL     1      40.554 -16.628   2.124  1.00  0.00     0.144 C 
BRANCH  29  30
HETATM   30  C   UNL     1      41.594 -17.059   3.121  1.00  0.00    -0.021 A 
HETATM   31  C   UNL     1      42.517 -18.156   3.028  1.00  0.00    -0.001 A 
HETATM   32  C   UNL     1      42.758 -19.171   2.077  1.00  0.00     0.014 A 
HETATM   33  C   UNL     1      43.314 -18.132   4.174  1.00  0.00     0.042 A 
HETATM   34  C   UNL     1      43.756 -20.124   2.311  1.00  0.00     0.001 A 
HETATM   35  C   UNL     1      44.531 -20.070   3.466  1.00  0.00     0.002 A 
HETATM   36  C   UNL     1      44.328 -19.068   4.418  1.00  0.00     0.030 A 
HETATM   37  N   UNL     1      42.905 -17.061   4.931  1.00  0.00    -0.365 N 
HETATM   38  H   UNL     1      43.316 -16.795   5.814  1.00  0.00     0.165 HD
HETATM   39  C   UNL     1      41.875 -16.409   4.310  1.00  0.00     0.097 A 
ENDBRANCH  29  30
ENDBRANCH   1  29
TORSDOF 7
ENDMDL
MODEL 8
REMARK VINA RESULT:      -8.1      2.518      7.093
REMARK  7 active torsions:
REMARK  status: ('A' for Active; 'I' for Inactive)
REMARK    1  A    between atoms: C_8  and  C_9 
REMARK    2  A    between atoms: C_9  and  C_10 
REMARK       I    between atoms: C_10  and  N_11 
REMARK    3  A    between atoms: N_11  and  C_27 
REMARK    4  A    between atoms: N_11  and  C_12 
REMARK    5  A    between atoms: C_12  and  C_13 
REMARK    6  A    between atoms: C_12  and  C_22 
REMARK       I    between atoms: C_13  and  N_14 
REMARK    7  A    between atoms: N_14  and  C_15 
ROOT
HETATM    1  C   UNL     1      41.306 -12.963  -0.171  1.00  0.00     0.229 C 
HETATM    2  N   UNL     1      40.860 -13.683   0.939  1.00  0.00    -0.299 N 
HETATM    3  O   UNL     1      41.182 -11.733  -0.221  1.00  0.00    -0.273 OA
ENDROOT
BRANCH   2   4
HETATM    4  C   UNL     1      41.261 -15.014   1.252  1.00  0.00     0.041 A 
HETATM    5  C   UNL     1      42.601 -15.280   1.574  1.00  0.00     0.069 A 
HETATM    6  C   UNL     1      42.973 -16.591   1.780  1.00  0.00     0.107 A 
HETATM    7  C   UNL     1      42.075 -17.626   1.678  1.00  0.00     0.105 A 
HETATM    8  O   UNL     1      44.228 -17.023   2.083  1.00  0.00    -0.323 OA
HETATM    9  O   UNL     1      42.649 -18.837   1.904  1.00  0.00    -0.323 OA
HETATM   10  C   UNL     1      40.752 -17.406   1.366  1.00  0.00     0.042 A 
HETATM   11  C   UNL     1      44.022 -18.449   2.129  1.00  0.00     0.352 A 
HETATM   12  C   UNL     1      40.345 -16.085   1.141  1.00  0.00     0.032 A 
ENDBRANCH   2   4
BRANCH   2  13
HETATM   13  C   UNL     1      40.128 -12.962   2.012  1.00  0.00     0.225 C 
BRANCH  13  14
HETATM   14  C   UNL     1      40.254 -13.685   3.374  1.00  0.00     0.246 C 
HETATM   15  N   UNL     1      41.353 -13.391   4.152  1.00  0.00    -0.354 N 
HETATM   16  H   UNL     1      41.697 -12.450   3.957  1.00  0.00     0.162 HD
HETATM   17  O   UNL     1      39.323 -14.385   3.781  1.00  0.00    -0.271 OA
BRANCH  15  18
HETATM   18  C   UNL     1      41.475 -13.760   5.565  1.00  0.00     0.084 C 
HETATM   19  C   UNL     1      41.212 -15.241   5.889  1.00  0.00     0.025 C 
HETATM   20  C   UNL     1      42.281 -16.167   5.316  1.00  0.00     0.002 C 
HETATM   21  C   UNL     1      43.671 -15.766   5.795  1.00  0.00     0.000 C 
HETATM   22  C   UNL     1      43.967 -14.298   5.503  1.00  0.00     0.002 C 
HETATM   23  C   UNL     1      42.880 -13.375   6.063  1.00  0.00     0.025 C 
ENDBRANCH  15  18
ENDBRANCH  13  14
BRANCH  13  24
HETATM   24  C   UNL     1      38.739 -12.521   1.563  1.00  0.00     0.015 A 
HETATM   25  S   UNL     1      38.202 -10.942   2.043  1.00  0.00    -0.104 SA
HETATM   26  C   UNL     1      36.741 -11.082   1.176  1.00  0.00     0.050 A 
HETATM   27  C   UNL     1      36.636 -12.293   0.538  1.00  0.00     0.008 A 
HETATM   28  C   UNL     1      37.775 -13.120   0.767  1.00  0.00     0.017 A 
ENDBRANCH  13  24
ENDBRANCH   2  13
BRANCH   1  29
HETATM   29  C   UNL     1      41.867 -13.707  -1.383  1.00  0.00     0.144 C 
BRANCH  29  30
HETATM   30  C   UNL     1      40.817 -14.475  -2.137  1.00  0.00    -0.021 A 
HETATM   31  C   UNL     1      39.562 -14.000  -2.651  1.00  0.00    -0.001 A 
HETATM   32  C   UNL     1      38.883 -12.763  -2.622  1.00  0.00     0.014 A 
HETATM   33  C   UNL     1      38.950 -15.064  -3.315  1.00  0.00     0.042 A 
HETATM   34  C   UNL     1      37.627 -12.640  -3.228  1.00  0.00     0.001 A 
HETATM   35  C   UNL     1      37.046 -13.724  -3.879  1.00  0.00     0.002 A 
HETATM   36  C   UNL     1      37.700 -14.957  -3.940  1.00  0.00     0.030 A 
HETATM   37  N   UNL     1      39.796 -16.143  -3.220  1.00  0.00    -0.365 N 
HETATM   38  H   UNL     1      39.613 -17.051  -3.622  1.00  0.00     0.165 HD
HETATM   39  C   UNL     1      40.919 -15.802  -2.518  1.00  0.00     0.097 A 
ENDBRANCH  29  30
ENDBRANCH   1  29
TORSDOF 7
ENDMDL
MODEL 9
REMARK VINA RESULT:      -8.1      2.362      6.899
REMARK  7 active torsions:
REMARK  status: ('A' for Active; 'I' for Inactive)
REMARK    1  A    between atoms: C_8  and  C_9 
REMARK    2  A    between atoms: C_9  and  C_10 
REMARK       I    between atoms: C_10  and  N_11 
REMARK    3  A    between atoms: N_11  and  C_27 
REMARK    4  A    between atoms: N_11  and  C_12 
REMARK    5  A    between atoms: C_12  and  C_13 
REMARK    6  A    between atoms: C_12  and  C_22 
REMARK       I    between atoms: C_13  and  N_14 
REMARK    7  A    between atoms: N_14  and  C_15 
ROOT
HETATM    1  C   UNL     1      41.667 -12.753   1.012  1.00  0.00     0.229 C 
HETATM    2  N   UNL     1      41.307 -13.637   2.030  1.00  0.00    -0.299 N 
HETATM    3  O   UNL     1      41.760 -11.539   1.230  1.00  0.00    -0.273 OA
ENDROOT
BRANCH   2   4
HETATM    4  C   UNL     1      41.510 -15.047   1.984  1.00  0.00     0.041 A 
HETATM    5  C   UNL     1      42.807 -15.568   2.120  1.00  0.00     0.069 A 
HETATM    6  C   UNL     1      42.981 -16.928   1.977  1.00  0.00     0.107 A 
HETATM    7  C   UNL     1      41.928 -17.770   1.710  1.00  0.00     0.105 A 
HETATM    8  O   UNL     1      44.166 -17.591   2.062  1.00  0.00    -0.323 OA
HETATM    9  O   UNL     1      42.318 -19.068   1.594  1.00  0.00    -0.323 OA
HETATM   10  C   UNL     1      40.642 -17.299   1.573  1.00  0.00     0.042 A 
HETATM   11  C   UNL     1      43.743 -18.942   1.787  1.00  0.00     0.352 A 
HETATM   12  C   UNL     1      40.435 -15.920   1.702  1.00  0.00     0.032 A 
ENDBRANCH   2   4
BRANCH   2  13
HETATM   13  C   UNL     1      40.924 -13.085   3.356  1.00  0.00     0.225 C 
BRANCH  13  14
HETATM   14  C   UNL     1      40.768 -14.201   4.415  1.00  0.00     0.246 C 
HETATM   15  N   UNL     1      41.912 -14.653   5.037  1.00  0.00    -0.354 N 
HETATM   16  H   UNL     1      42.629 -13.926   5.056  1.00  0.00     0.162 HD
HETATM   17  O   UNL     1      39.640 -14.553   4.768  1.00  0.00    -0.271 OA
BRANCH  15  18
HETATM   18  C   UNL     1      41.911 -15.482   6.246  1.00  0.00     0.084 C 
HETATM   19  C   UNL     1      40.973 -16.701   6.212  1.00  0.00     0.025 C 
HETATM   20  C   UNL     1      41.420 -17.760   5.208  1.00  0.00     0.002 C 
HETATM   21  C   UNL     1      42.851 -18.208   5.480  1.00  0.00     0.000 C 
HETATM   22  C   UNL     1      43.812 -17.024   5.533  1.00  0.00     0.002 C 
HETATM   23  C   UNL     1      43.348 -15.957   6.528  1.00  0.00     0.025 C 
ENDBRANCH  15  18
ENDBRANCH  13  14
BRANCH  13  24
HETATM   24  C   UNL     1      39.815 -12.044   3.245  1.00  0.00     0.015 A 
HETATM   25  S   UNL     1      40.029 -10.547   4.095  1.00  0.00    -0.104 SA
HETATM   26  C   UNL     1      38.577  -9.894   3.486  1.00  0.00     0.050 A 
HETATM   27  C   UNL     1      37.923 -10.777   2.662  1.00  0.00     0.008 A 
HETATM   28  C   UNL     1      38.627 -12.011   2.532  1.00  0.00     0.017 A 
ENDBRANCH  13  24
ENDBRANCH   2  13
BRANCH   1  29
HETATM   29  C   UNL     1      41.855 -13.273  -0.414  1.00  0.00     0.144 C 
BRANCH  29  30
HETATM   30  C   UNL     1      40.565 -13.354  -1.183  1.00  0.00    -0.021 A 
HETATM   31  C   UNL     1      40.134 -14.378  -2.094  1.00  0.00    -0.001 A 
HETATM   32  C   UNL     1      40.708 -15.567  -2.593  1.00  0.00     0.014 A 
HETATM   33  C   UNL     1      38.850 -14.042  -2.527  1.00  0.00     0.042 A 
HETATM   34  C   UNL     1      40.001 -16.353  -3.510  1.00  0.00     0.001 A 
HETATM   35  C   UNL     1      38.723 -15.986  -3.921  1.00  0.00     0.002 A 
HETATM   36  C   UNL     1      38.120 -14.824  -3.432  1.00  0.00     0.030 A 
HETATM   37  N   UNL     1      38.506 -12.868  -1.901  1.00  0.00    -0.365 N 
HETATM   38  H   UNL     1      37.621 -12.395  -2.020  1.00  0.00     0.165 HD
HETATM   39  C   UNL     1      39.525 -12.446  -1.093  1.00  0.00     0.097 A 
ENDBRANCH  29  30
ENDBRANCH   1  29
TORSDOF 7
ENDMDL
MODEL 10
REMARK VINA RESULT:      -8.0      2.810      5.088
REMARK  7 active torsions:
REMARK  status: ('A' for Active; 'I' for Inactive)
REMARK    1  A    between atoms: C_8  and  C_9 
REMARK    2  A    between atoms: C_9  and  C_10 
REMARK       I    between atoms: C_10  and  N_11 
REMARK    3  A    between atoms: N_11  and  C_27 
REMARK    4  A    between atoms: N_11  and  C_12 
REMARK    5  A    between atoms: C_12  and  C_13 
REMARK    6  A    between atoms: C_12  and  C_22 
REMARK       I    between atoms: C_13  and  N_14 
REMARK    7  A    between atoms: N_14  and  C_15 
ROOT
HETATM    1  C   UNL     1      42.181 -13.048   2.650  1.00  0.00     0.229 C 
HETATM    2  N   UNL     1      40.965 -12.553   3.125  1.00  0.00    -0.299 N 
HETATM    3  O   UNL     1      42.408 -13.114   1.435  1.00  0.00    -0.273 OA
ENDROOT
BRANCH   2   4
HETATM    4  C   UNL     1      40.741 -12.111   4.461  1.00  0.00     0.041 A 
HETATM    5  C   UNL     1      41.448 -11.003   4.955  1.00  0.00     0.069 A 
HETATM    6  C   UNL     1      41.277 -10.660   6.279  1.00  0.00     0.107 A 
HETATM    7  C   UNL     1      40.442 -11.367   7.110  1.00  0.00     0.105 A 
HETATM    8  O   UNL     1      41.894  -9.630   6.919  1.00  0.00    -0.323 OA
HETATM    9  O   UNL     1      40.428 -10.872   8.377  1.00  0.00    -0.323 OA
HETATM   10  C   UNL     1      39.730 -12.457   6.663  1.00  0.00     0.042 A 
HETATM   11  C   UNL     1      41.376  -9.789   8.256  1.00  0.00     0.352 A 
HETATM   12  C   UNL     1      39.891 -12.837   5.325  1.00  0.00     0.032 A 
ENDBRANCH   2   4
BRANCH   2  13
HETATM   13  C   UNL     1      39.900 -12.213   2.146  1.00  0.00     0.225 C 
BRANCH  13  14
HETATM   14  C   UNL     1      39.613 -13.390   1.184  1.00  0.00     0.246 C 
HETATM   15  N   UNL     1      39.851 -13.188  -0.158  1.00  0.00    -0.354 N 
HETATM   16  H   UNL     1      40.576 -12.483  -0.298  1.00  0.00     0.162 HD
HETATM   17  O   UNL     1      39.317 -14.496   1.645  1.00  0.00    -0.271 OA
BRANCH  15  18
HETATM   18  C   UNL     1      39.908 -14.267  -1.149  1.00  0.00     0.084 C 
HETATM   19  C   UNL     1      39.112 -14.021  -2.442  1.00  0.00     0.025 C 
HETATM   20  C   UNL     1      39.700 -12.897  -3.291  1.00  0.00     0.002 C 
HETATM   21  C   UNL     1      41.164 -13.164  -3.621  1.00  0.00     0.000 C 
HETATM   22  C   UNL     1      41.987 -13.425  -2.362  1.00  0.00     0.002 C 
HETATM   23  C   UNL     1      41.381 -14.540  -1.505  1.00  0.00     0.025 C 
ENDBRANCH  15  18
ENDBRANCH  13  14
BRANCH  13  24
HETATM   24  C   UNL     1      40.097 -10.827   1.542  1.00  0.00     0.015 A 
HETATM   25  S   UNL     1      38.678  -9.886   1.209  1.00  0.00    -0.104 SA
HETATM   26  C   UNL     1      39.588  -8.541   0.690  1.00  0.00     0.050 A 
HETATM   27  C   UNL     1      40.938  -8.780   0.749  1.00  0.00     0.008 A 
HETATM   28  C   UNL     1      41.230 -10.092   1.228  1.00  0.00     0.017 A 
ENDBRANCH  13  24
ENDBRANCH   2  13
BRANCH   1  29
HETATM   29  C   UNL     1      43.210 -13.606   3.633  1.00  0.00     0.144 C 
BRANCH  29  30
HETATM   30  C   UNL     1      42.984 -15.056   3.959  1.00  0.00    -0.021 A 
HETATM   31  C   UNL     1      43.265 -16.207   3.146  1.00  0.00    -0.001 A 
HETATM   32  C   UNL     1      43.781 -16.401   1.846  1.00  0.00     0.014 A 
HETATM   33  C   UNL     1      42.928 -17.339   3.889  1.00  0.00     0.042 A 
HETATM   34  C   UNL     1      43.917 -17.696   1.334  1.00  0.00     0.001 A 
HETATM   35  C   UNL     1      43.568 -18.802   2.103  1.00  0.00     0.002 A 
HETATM   36  C   UNL     1      43.071 -18.645   3.400  1.00  0.00     0.030 A 
HETATM   37  N   UNL     1      42.468 -16.903   5.108  1.00  0.00    -0.365 N 
HETATM   38  H   UNL     1      42.162 -17.510   5.855  1.00  0.00     0.165 HD
HETATM   39  C   UNL     1      42.498 -15.536   5.163  1.00  0.00     0.097 A 
ENDBRANCH  29  30
ENDBRANCH   1  29
TORSDOF 7
ENDMDL
