MODEL 1
REMARK VINA RESULT:      -9.5      0.000      0.000
REMARK  6 active torsions:
REMARK  status: ('A' for Active; 'I' for Inactive)
REMARK    1  A    between atoms: C_4  and  C_5 
REMARK    2  A    between atoms: C_5  and  O_6 
REMARK    3  A    between atoms: O_6  and  C_7 
REMARK    4  A    between atoms: C_10  and  C_11 
REMARK    5  A    between atoms: C_17  and  C_18 
REMARK    6  A    between atoms: C_27  and  N_28 
ROOT
HETATM    1  C   UNL     1      41.025 -14.521   5.699  1.00  0.00     0.072 A 
HETATM    2  N   UNL     1      40.071 -14.050   6.576  1.00  0.00    -0.274 N 
HETATM    3  H   UNL     1      39.811 -14.444   7.475  1.00  0.00     0.189 HD
HETATM    4  N   UNL     1      39.435 -12.939   6.154  1.00  0.00    -0.148 NA
HETATM    5  C   UNL     1      40.015 -12.706   4.984  1.00  0.00     0.199 A 
HETATM    6  C   UNL     1      40.993 -13.639   4.632  1.00  0.00     0.040 A 
HETATM    7  C   UNL     1      41.712 -13.530   3.334  1.00  0.00     0.106 A 
HETATM    8  C   UNL     1      41.256 -12.300   2.558  1.00  0.00     0.081 A 
HETATM    9  C   UNL     1      41.938 -12.031   1.334  1.00  0.00     0.100 C 
HETATM   10  N   UNL     1      42.498 -11.823   0.339  1.00  0.00    -0.191 NA
HETATM   11  C   UNL     1      40.290 -11.458   3.009  1.00  0.00     0.140 A 
HETATM   12  O   UNL     1      39.631 -11.660   4.230  1.00  0.00    -0.277 OA
ENDROOT
BRANCH   7  13
HETATM   13  C   UNL     1      41.462 -14.835   2.590  1.00  0.00    -0.041 A 
HETATM   14  C   UNL     1      40.176 -15.349   2.371  1.00  0.00     0.027 A 
HETATM   15  C   UNL     1      40.041 -16.544   1.680  1.00  0.00     0.116 A 
HETATM   16  N   UNL     1      41.079 -17.249   1.184  1.00  0.00    -0.273 NA
HETATM   17  C   UNL     1      42.309 -16.737   1.390  1.00  0.00     0.116 A 
HETATM   18  C   UNL     1      42.549 -15.553   2.070  1.00  0.00     0.027 A 
ENDBRANCH   7  13
BRANCH  11  19
HETATM   19  N   UNL     1      39.849 -10.330   2.350  1.00  0.00    -0.282 NA
HETATM   20  H   UNL     1      39.090 -10.470   1.688  1.00  0.00     0.126 HD
HETATM   21  H   UNL     1      39.688  -9.554   2.989  1.00  0.00     0.126 HD
ENDBRANCH  11  19
BRANCH   1  22
HETATM   22  C   UNL     1      41.791 -15.737   5.922  1.00  0.00    -0.007 A 
HETATM   23  C   UNL     1      41.250 -16.983   5.585  1.00  0.00     0.016 A 
HETATM   24  C   UNL     1      42.022 -18.140   5.701  1.00  0.00     0.037 A 
HETATM   25  C   UNL     1      43.342 -18.056   6.135  1.00  0.00     0.069 A 
HETATM   26  C   UNL     1      43.873 -16.830   6.532  1.00  0.00     0.037 A 
HETATM   27  C   UNL     1      43.099 -15.671   6.419  1.00  0.00     0.016 A 
BRANCH  25  28
HETATM   28  O   UNL     1      44.045 -19.227   6.167  1.00  0.00    -0.347 OA
BRANCH  28  29
HETATM   29  C   UNL     1      45.099 -19.286   5.198  1.00  0.00     0.214 C 
BRANCH  29  30
HETATM   30  C   UNL     1      44.668 -20.151   4.036  1.00  0.00    -0.034 A 
HETATM   31  C   UNL     1      44.862 -21.540   4.078  1.00  0.00     0.009 A 
HETATM   32  C   UNL     1      44.453 -22.347   3.015  1.00  0.00     0.001 A 
HETATM   33  C   UNL     1      43.840 -21.776   1.901  1.00  0.00     0.000 A 
HETATM   34  C   UNL     1      43.634 -20.400   1.850  1.00  0.00     0.001 A 
HETATM   35  C   UNL     1      44.041 -19.591   2.914  1.00  0.00     0.009 A 
ENDBRANCH  29  30
ENDBRANCH  28  29
ENDBRANCH  25  28
ENDBRANCH   1  22
TORSDOF 6
ENDMDL
MODEL 2
REMARK VINA RESULT:      -8.7      1.715      4.174
REMARK  6 active torsions:
REMARK  status: ('A' for Active; 'I' for Inactive)
REMARK    1  A    between atoms: C_4  and  C_5 
REMARK    2  A    between atoms: C_5  and  O_6 
REMARK    3  A    between atoms: O_6  and  C_7 
REMARK    4  A    between atoms: C_10  and  C_11 
REMARK    5  A    between atoms: C_17  and  C_18 
REMARK    6  A    between atoms: C_27  and  N_28 
ROOT
HETATM    1  C   UNL     1      41.582 -13.826   1.784  1.00  0.00     0.072 A 
HETATM    2  N   UNL     1      41.891 -12.930   0.783  1.00  0.00    -0.274 N 
HETATM    3  H   UNL     1      42.282 -13.135  -0.131  1.00  0.00     0.189 HD
HETATM    4  N   UNL     1      41.631 -11.644   1.095  1.00  0.00    -0.148 NA
HETATM    5  C   UNL     1      41.137 -11.744   2.322  1.00  0.00     0.199 A 
HETATM    6  C   UNL     1      41.085 -13.048   2.817  1.00  0.00     0.040 A 
HETATM    7  C   UNL     1      40.584 -13.320   4.191  1.00  0.00     0.106 A 
HETATM    8  C   UNL     1      40.138 -12.032   4.874  1.00  0.00     0.081 A 
HETATM    9  C   UNL     1      39.549 -12.168   6.166  1.00  0.00     0.100 C 
HETATM   10  N   UNL     1      39.075 -12.290   7.217  1.00  0.00    -0.191 NA
HETATM   11  C   UNL     1      40.235 -10.811   4.285  1.00  0.00     0.140 A 
HETATM   12  O   UNL     1      40.762 -10.642   2.996  1.00  0.00    -0.277 OA
ENDROOT
BRANCH   7  13
HETATM   13  C   UNL     1      41.710 -14.030   4.930  1.00  0.00    -0.041 A 
HETATM   14  C   UNL     1      42.963 -13.441   5.151  1.00  0.00     0.027 A 
HETATM   15  C   UNL     1      43.930 -14.160   5.838  1.00  0.00     0.116 A 
HETATM   16  N   UNL     1      43.739 -15.403   6.326  1.00  0.00    -0.273 NA
HETATM   17  C   UNL     1      42.526 -15.954   6.117  1.00  0.00     0.116 A 
HETATM   18  C   UNL     1      41.496 -15.318   5.442  1.00  0.00     0.027 A 
ENDBRANCH   7  13
BRANCH  11  19
HETATM   19  N   UNL     1      39.839  -9.621   4.855  1.00  0.00    -0.282 NA
HETATM   20  H   UNL     1      39.514  -9.675   5.817  1.00  0.00     0.126 HD
HETATM   21  H   UNL     1      40.519  -8.879   4.702  1.00  0.00     0.126 HD
ENDBRANCH  11  19
BRANCH   1  22
HETATM   22  C   UNL     1      41.834 -15.255   1.688  1.00  0.00    -0.007 A 
HETATM   23  C   UNL     1      43.095 -15.772   2.011  1.00  0.00     0.016 A 
HETATM   24  C   UNL     1      43.309 -17.151   2.021  1.00  0.00     0.037 A 
HETATM   25  C   UNL     1      42.262 -18.020   1.726  1.00  0.00     0.069 A 
HETATM   26  C   UNL     1      41.019 -17.517   1.343  1.00  0.00     0.037 A 
HETATM   27  C   UNL     1      40.806 -16.136   1.331  1.00  0.00     0.016 A 
BRANCH  25  28
HETATM   28  O   UNL     1      42.539 -19.355   1.812  1.00  0.00    -0.347 OA
BRANCH  28  29
HETATM   29  C   UNL     1      43.942 -19.649   1.782  1.00  0.00     0.214 C 
BRANCH  29  30
HETATM   30  C   UNL     1      44.285 -20.587   2.916  1.00  0.00    -0.034 A 
HETATM   31  C   UNL     1      44.491 -20.087   4.210  1.00  0.00     0.009 A 
HETATM   32  C   UNL     1      44.794 -20.949   5.265  1.00  0.00     0.001 A 
HETATM   33  C   UNL     1      44.889 -22.321   5.039  1.00  0.00     0.000 A 
HETATM   34  C   UNL     1      44.679 -22.832   3.761  1.00  0.00     0.001 A 
HETATM   35  C   UNL     1      44.374 -21.970   2.704  1.00  0.00     0.009 A 
ENDBRANCH  29  30
ENDBRANCH  28  29
ENDBRANCH  25  28
ENDBRANCH   1  22
TORSDOF 6
ENDMDL
MODEL 3
REMARK VINA RESULT:      -8.3      3.019      5.028
REMARK  6 active torsions:
REMARK  status: ('A' for Active; 'I' for Inactive)
REMARK    1  A    between atoms: C_4  and  C_5 
REMARK    2  A    between atoms: C_5  and  O_6 
REMARK    3  A    between atoms: O_6  and  C_7 
REMARK    4  A    between atoms: C_10  and  C_11 
REMARK    5  A    between atoms: C_17  and  C_18 
REMARK    6  A    between atoms: C_27  and  N_28 
ROOT
HETATM    1  C   UNL     1      41.090 -15.152  -0.780  1.00  0.00     0.072 A 
HETATM    2  N   UNL     1      41.720 -15.132  -2.006  1.00  0.00    -0.274 N 
HETATM    3  H   UNL     1      42.529 -15.673  -2.294  1.00  0.00     0.189 HD
HETATM    4  N   UNL     1      41.168 -14.282  -2.896  1.00  0.00    -0.148 NA
HETATM    5  C   UNL     1      40.160 -13.764  -2.206  1.00  0.00     0.199 A 
HETATM    6  C   UNL     1      40.054 -14.241  -0.898  1.00  0.00     0.040 A 
HETATM    7  C   UNL     1      38.992 -13.732   0.011  1.00  0.00     0.106 A 
HETATM    8  C   UNL     1      38.099 -12.723  -0.702  1.00  0.00     0.081 A 
HETATM    9  C   UNL     1      36.983 -12.229   0.035  1.00  0.00     0.100 C 
HETATM   10  N   UNL     1      36.079 -11.831   0.645  1.00  0.00    -0.191 NA
HETATM   11  C   UNL     1      38.302 -12.338  -1.990  1.00  0.00     0.140 A 
HETATM   12  O   UNL     1      39.358 -12.839  -2.763  1.00  0.00    -0.277 OA
ENDROOT
BRANCH   7  13
HETATM   13  C   UNL     1      39.703 -13.150   1.225  1.00  0.00    -0.041 A 
HETATM   14  C   UNL     1      39.539 -13.664   2.519  1.00  0.00     0.027 A 
HETATM   15  C   UNL     1      40.229 -13.073   3.567  1.00  0.00     0.116 A 
HETATM   16  N   UNL     1      41.070 -12.029   3.421  1.00  0.00    -0.273 NA
HETATM   17  C   UNL     1      41.229 -11.552   2.170  1.00  0.00     0.116 A 
HETATM   18  C   UNL     1      40.583 -12.071   1.059  1.00  0.00     0.027 A 
ENDBRANCH   7  13
BRANCH  11  19
HETATM   19  N   UNL     1      37.520 -11.438  -2.681  1.00  0.00    -0.282 NA
HETATM   20  H   UNL     1      37.899 -11.105  -3.564  1.00  0.00     0.126 HD
HETATM   21  H   UNL     1      36.552 -11.747  -2.750  1.00  0.00     0.126 HD
ENDBRANCH  11  19
BRANCH   1  22
HETATM   22  C   UNL     1      41.550 -15.950   0.345  1.00  0.00    -0.007 A 
HETATM   23  C   UNL     1      42.514 -15.440   1.224  1.00  0.00     0.016 A 
HETATM   24  C   UNL     1      42.880 -16.160   2.362  1.00  0.00     0.037 A 
HETATM   25  C   UNL     1      42.272 -17.381   2.639  1.00  0.00     0.069 A 
HETATM   26  C   UNL     1      41.356 -17.928   1.742  1.00  0.00     0.037 A 
HETATM   27  C   UNL     1      40.992 -17.209   0.600  1.00  0.00     0.016 A 
BRANCH  25  28
HETATM   28  O   UNL     1      42.645 -17.995   3.801  1.00  0.00    -0.347 OA
BRANCH  28  29
HETATM   29  C   UNL     1      44.045 -18.297   3.861  1.00  0.00     0.214 C 
BRANCH  29  30
HETATM   30  C   UNL     1      44.245 -19.790   3.736  1.00  0.00    -0.034 A 
HETATM   31  C   UNL     1      44.066 -20.427   2.499  1.00  0.00     0.009 A 
HETATM   32  C   UNL     1      44.264 -21.802   2.373  1.00  0.00     0.001 A 
HETATM   33  C   UNL     1      44.649 -22.556   3.480  1.00  0.00     0.000 A 
HETATM   34  C   UNL     1      44.839 -21.935   4.712  1.00  0.00     0.001 A 
HETATM   35  C   UNL     1      44.644 -20.558   4.840  1.00  0.00     0.009 A 
ENDBRANCH  29  30
ENDBRANCH  28  29
ENDBRANCH  25  28
ENDBRANCH   1  22
TORSDOF 6
ENDMDL
MODEL 4
REMARK VINA RESULT:      -8.1      2.088      3.050
REMARK  6 active torsions:
REMARK  status: ('A' for Active; 'I' for Inactive)
REMARK    1  A    between atoms: C_4  and  C_5 
REMARK    2  A    between atoms: C_5  and  O_6 
REMARK    3  A    between atoms: O_6  and  C_7 
REMARK    4  A    between atoms: C_10  and  C_11 
REMARK    5  A    between atoms: C_17  and  C_18 
REMARK    6  A    between atoms: C_27  and  N_28 
ROOT
HETATM    1  C   UNL     1      40.109 -13.919   4.557  1.00  0.00     0.072 A 
HETATM    2  N   UNL     1      39.514 -14.001   5.798  1.00  0.00    -0.274 N 
HETATM    3  H   UNL     1      39.455 -14.813   6.403  1.00  0.00     0.189 HD
HETATM    4  N   UNL     1      38.957 -12.846   6.218  1.00  0.00    -0.148 NA
HETATM    5  C   UNL     1      39.220 -12.021   5.213  1.00  0.00     0.199 A 
HETATM    6  C   UNL     1      39.915 -12.609   4.154  1.00  0.00     0.040 A 
HETATM    7  C   UNL     1      40.258 -11.819   2.941  1.00  0.00     0.106 A 
HETATM    8  C   UNL     1      39.792 -10.374   3.080  1.00  0.00     0.081 A 
HETATM    9  C   UNL     1      40.143  -9.488   2.019  1.00  0.00     0.100 C 
HETATM   10  N   UNL     1      40.432  -8.776   1.149  1.00  0.00    -0.191 NA
HETATM   11  C   UNL     1      39.123  -9.915   4.170  1.00  0.00     0.140 A 
HETATM   12  O   UNL     1      38.803 -10.744   5.255  1.00  0.00    -0.277 OA
ENDROOT
BRANCH   7  13
HETATM   13  C   UNL     1      39.623 -12.542   1.760  1.00  0.00    -0.041 A 
HETATM   14  C   UNL     1      40.377 -13.091   0.714  1.00  0.00     0.027 A 
HETATM   15  C   UNL     1      39.717 -13.737  -0.321  1.00  0.00     0.116 A 
HETATM   16  N   UNL     1      38.377 -13.885  -0.383  1.00  0.00    -0.273 NA
HETATM   17  C   UNL     1      37.665 -13.362   0.636  1.00  0.00     0.116 A 
HETATM   18  C   UNL     1      38.231 -12.698   1.713  1.00  0.00     0.027 A 
ENDBRANCH   7  13
BRANCH  11  19
HETATM   19  N   UNL     1      38.689  -8.619   4.347  1.00  0.00    -0.282 NA
HETATM   20  H   UNL     1      38.977  -7.952   3.635  1.00  0.00     0.126 HD
HETATM   21  H   UNL     1      37.694  -8.575   4.560  1.00  0.00     0.126 HD
ENDBRANCH  11  19
BRANCH   1  22
HETATM   22  C   UNL     1      40.719 -15.055   3.883  1.00  0.00    -0.007 A 
HETATM   23  C   UNL     1      39.961 -15.850   3.015  1.00  0.00     0.016 A 
HETATM   24  C   UNL     1      40.569 -16.875   2.288  1.00  0.00     0.037 A 
HETATM   25  C   UNL     1      41.938 -17.098   2.410  1.00  0.00     0.069 A 
HETATM   26  C   UNL     1      42.692 -16.355   3.317  1.00  0.00     0.037 A 
HETATM   27  C   UNL     1      42.083 -15.330   4.047  1.00  0.00     0.016 A 
BRANCH  25  28
HETATM   28  O   UNL     1      42.464 -18.084   1.624  1.00  0.00    -0.347 OA
BRANCH  28  29
HETATM   29  C   UNL     1      43.871 -18.279   1.819  1.00  0.00     0.214 C 
BRANCH  29  30
HETATM   30  C   UNL     1      44.109 -19.620   2.473  1.00  0.00    -0.034 A 
HETATM   31  C   UNL     1      43.906 -20.805   1.750  1.00  0.00     0.009 A 
HETATM   32  C   UNL     1      44.138 -22.047   2.343  1.00  0.00     0.001 A 
HETATM   33  C   UNL     1      44.582 -22.119   3.662  1.00  0.00     0.000 A 
HETATM   34  C   UNL     1      44.796 -20.949   4.388  1.00  0.00     0.001 A 
HETATM   35  C   UNL     1      44.566 -19.705   3.795  1.00  0.00     0.009 A 
ENDBRANCH  29  30
ENDBRANCH  28  29
ENDBRANCH  25  28
ENDBRANCH   1  22
TORSDOF 6
ENDMDL
MODEL 5
REMARK VINA RESULT:      -7.8      3.230      7.081
REMARK  6 active torsions:
REMARK  status: ('A' for Active; 'I' for Inactive)
REMARK    1  A    between atoms: C_4  and  C_5 
REMARK    2  A    between atoms: C_5  and  O_6 
REMARK    3  A    between atoms: O_6  and  C_7 
REMARK    4  A    between atoms: C_10  and  C_11 
REMARK    5  A    between atoms: C_17  and  C_18 
REMARK    6  A    between atoms: C_27  and  N_28 
ROOT
HETATM    1  C   UNL     1      41.225 -16.341   3.638  1.00  0.00     0.072 A 
HETATM    2  N   UNL     1      40.654 -17.583   3.816  1.00  0.00    -0.274 N 
HETATM    3  H   UNL     1      40.042 -18.079   3.176  1.00  0.00     0.189 HD
HETATM    4  N   UNL     1      40.972 -18.172   4.987  1.00  0.00    -0.148 NA
HETATM    5  C   UNL     1      41.769 -17.274   5.550  1.00  0.00     0.199 A 
HETATM    6  C   UNL     1      41.964 -16.120   4.789  1.00  0.00     0.040 A 
HETATM    7  C   UNL     1      42.809 -15.008   5.299  1.00  0.00     0.106 A 
HETATM    8  C   UNL     1      43.401 -15.352   6.661  1.00  0.00     0.081 A 
HETATM    9  C   UNL     1      44.308 -14.403   7.218  1.00  0.00     0.100 C 
HETATM   10  N   UNL     1      45.042 -13.622   7.664  1.00  0.00    -0.191 NA
HETATM   11  C   UNL     1      43.139 -16.519   7.307  1.00  0.00     0.140 A 
HETATM   12  O   UNL     1      42.293 -17.499   6.768  1.00  0.00    -0.277 OA
ENDROOT
BRANCH   7  13
HETATM   13  C   UNL     1      41.923 -13.769   5.328  1.00  0.00    -0.041 A 
HETATM   14  C   UNL     1      40.742 -13.699   6.079  1.00  0.00     0.027 A 
HETATM   15  C   UNL     1      39.997 -12.529   6.050  1.00  0.00     0.116 A 
HETATM   16  N   UNL     1      40.346 -11.433   5.346  1.00  0.00    -0.273 NA
HETATM   17  C   UNL     1      41.490 -11.509   4.637  1.00  0.00     0.116 A 
HETATM   18  C   UNL     1      42.302 -12.632   4.600  1.00  0.00     0.027 A 
ENDBRANCH   7  13
BRANCH  11  19
HETATM   19  N   UNL     1      43.656 -16.880   8.532  1.00  0.00    -0.282 NA
HETATM   20  H   UNL     1      44.268 -16.200   8.976  1.00  0.00     0.126 HD
HETATM   21  H   UNL     1      42.939 -17.244   9.157  1.00  0.00     0.126 HD
ENDBRANCH  11  19
BRANCH   1  22
HETATM   22  C   UNL     1      40.974 -15.501   2.477  1.00  0.00    -0.007 A 
HETATM   23  C   UNL     1      39.664 -15.142   2.137  1.00  0.00     0.016 A 
HETATM   24  C   UNL     1      39.428 -14.253   1.087  1.00  0.00     0.037 A 
HETATM   25  C   UNL     1      40.498 -13.703   0.386  1.00  0.00     0.069 A 
HETATM   26  C   UNL     1      41.803 -14.099   0.675  1.00  0.00     0.037 A 
HETATM   27  C   UNL     1      42.039 -14.993   1.724  1.00  0.00     0.016 A 
BRANCH  25  28
HETATM   28  O   UNL     1      40.184 -12.800  -0.589  1.00  0.00    -0.347 OA
BRANCH  28  29
HETATM   29  C   UNL     1      40.831 -13.063  -1.840  1.00  0.00     0.214 C 
BRANCH  29  30
HETATM   30  C   UNL     1      40.044 -14.101  -2.607  1.00  0.00    -0.034 A 
HETATM   31  C   UNL     1      40.614 -15.349  -2.897  1.00  0.00     0.009 A 
HETATM   32  C   UNL     1      39.888 -16.317  -3.592  1.00  0.00     0.001 A 
HETATM   33  C   UNL     1      38.583 -16.051  -4.001  1.00  0.00     0.000 A 
HETATM   34  C   UNL     1      38.002 -14.819  -3.711  1.00  0.00     0.001 A 
HETATM   35  C   UNL     1      38.726 -13.849  -3.014  1.00  0.00     0.009 A 
ENDBRANCH  29  30
ENDBRANCH  28  29
ENDBRANCH  25  28
ENDBRANCH   1  22
TORSDOF 6
ENDMDL
MODEL 6
REMARK VINA RESULT:      -7.8      3.154      7.510
REMARK  6 active torsions:
REMARK  status: ('A' for Active; 'I' for Inactive)
REMARK    1  A    between atoms: C_4  and  C_5 
REMARK    2  A    between atoms: C_5  and  O_6 
REMARK    3  A    between atoms: O_6  and  C_7 
REMARK    4  A    between atoms: C_10  and  C_11 
REMARK    5  A    between atoms: C_17  and  C_18 
REMARK    6  A    between atoms: C_27  and  N_28 
ROOT
HETATM    1  C   UNL     1      41.264 -16.453   3.624  1.00  0.00     0.072 A 
HETATM    2  N   UNL     1      40.648 -17.654   3.907  1.00  0.00    -0.274 N 
HETATM    3  H   UNL     1      40.026 -18.185   3.307  1.00  0.00     0.189 HD
HETATM    4  N   UNL     1      40.932 -18.144   5.131  1.00  0.00    -0.148 NA
HETATM    5  C   UNL     1      41.754 -17.225   5.621  1.00  0.00     0.199 A 
HETATM    6  C   UNL     1      41.998 -16.154   4.760  1.00  0.00     0.040 A 
HETATM    7  C   UNL     1      42.876 -15.028   5.178  1.00  0.00     0.106 A 
HETATM    8  C   UNL     1      43.442 -15.267   6.574  1.00  0.00     0.081 A 
HETATM    9  C   UNL     1      44.375 -14.301   7.055  1.00  0.00     0.100 C 
HETATM   10  N   UNL     1      45.131 -13.509   7.438  1.00  0.00    -0.191 NA
HETATM   11  C   UNL     1      43.131 -16.359   7.320  1.00  0.00     0.140 A 
HETATM   12  O   UNL     1      42.257 -17.355   6.862  1.00  0.00    -0.277 OA
ENDROOT
BRANCH   7  13
HETATM   13  C   UNL     1      42.035 -13.763   5.081  1.00  0.00    -0.041 A 
HETATM   14  C   UNL     1      42.338 -12.718   4.197  1.00  0.00     0.027 A 
HETATM   15  C   UNL     1      41.514 -11.602   4.172  1.00  0.00     0.116 A 
HETATM   16  N   UNL     1      40.417 -11.459   4.943  1.00  0.00    -0.273 NA
HETATM   17  C   UNL     1      40.129 -12.477   5.779  1.00  0.00     0.116 A 
HETATM   18  C   UNL     1      40.890 -13.631   5.880  1.00  0.00     0.027 A 
ENDBRANCH   7  13
BRANCH  11  19
HETATM   19  N   UNL     1      43.622 -16.624   8.581  1.00  0.00    -0.282 NA
HETATM   20  H   UNL     1      43.312 -15.998   9.320  1.00  0.00     0.126 HD
HETATM   21  H   UNL     1      43.535 -17.609   8.825  1.00  0.00     0.126 HD
ENDBRANCH  11  19
BRANCH   1  22
HETATM   22  C   UNL     1      41.056 -15.716   2.388  1.00  0.00    -0.007 A 
HETATM   23  C   UNL     1      41.995 -15.796   1.352  1.00  0.00     0.016 A 
HETATM   24  C   UNL     1      41.746 -15.174   0.128  1.00  0.00     0.037 A 
HETATM   25  C   UNL     1      40.552 -14.488  -0.076  1.00  0.00     0.069 A 
HETATM   26  C   UNL     1      39.636 -14.350   0.967  1.00  0.00     0.037 A 
HETATM   27  C   UNL     1      39.887 -14.969   2.195  1.00  0.00     0.016 A 
BRANCH  25  28
HETATM   28  O   UNL     1      40.362 -13.956  -1.319  1.00  0.00    -0.347 OA
BRANCH  28  29
HETATM   29  C   UNL     1      41.524 -14.030  -2.155  1.00  0.00     0.214 C 
BRANCH  29  30
HETATM   30  C   UNL     1      42.004 -12.634  -2.477  1.00  0.00    -0.034 A 
HETATM   31  C   UNL     1      41.826 -12.105  -3.764  1.00  0.00     0.009 A 
HETATM   32  C   UNL     1      42.255 -10.811  -4.065  1.00  0.00     0.001 A 
HETATM   33  C   UNL     1      42.860 -10.030  -3.082  1.00  0.00     0.000 A 
HETATM   34  C   UNL     1      43.035 -10.540  -1.798  1.00  0.00     0.001 A 
HETATM   35  C   UNL     1      42.605 -11.834  -1.495  1.00  0.00     0.009 A 
ENDBRANCH  29  30
ENDBRANCH  28  29
ENDBRANCH  25  28
ENDBRANCH   1  22
TORSDOF 6
ENDMDL
MODEL 7
REMARK VINA RESULT:      -7.7      2.199      3.164
REMARK  6 active torsions:
REMARK  status: ('A' for Active; 'I' for Inactive)
REMARK    1  A    between atoms: C_4  and  C_5 
REMARK    2  A    between atoms: C_5  and  O_6 
REMARK    3  A    between atoms: O_6  and  C_7 
REMARK    4  A    between atoms: C_10  and  C_11 
REMARK    5  A    between atoms: C_17  and  C_18 
REMARK    6  A    between atoms: C_27  and  N_28 
ROOT
HETATM    1  C   UNL     1      40.623 -13.304   3.154  1.00  0.00     0.072 A 
HETATM    2  N   UNL     1      39.848 -12.886   4.216  1.00  0.00    -0.274 N 
HETATM    3  H   UNL     1      39.485 -13.452   4.976  1.00  0.00     0.189 HD
HETATM    4  N   UNL     1      39.564 -11.567   4.204  1.00  0.00    -0.148 NA
HETATM    5  C   UNL     1      40.186 -11.152   3.109  1.00  0.00     0.199 A 
HETATM    6  C   UNL     1      40.849 -12.160   2.406  1.00  0.00     0.040 A 
HETATM    7  C   UNL     1      41.567 -11.856   1.140  1.00  0.00     0.106 A 
HETATM    8  C   UNL     1      41.490 -10.370   0.811  1.00  0.00     0.081 A 
HETATM    9  C   UNL     1      42.220  -9.933  -0.334  1.00  0.00     0.100 C 
HETATM   10  N   UNL     1      42.815  -9.589  -1.268  1.00  0.00    -0.191 NA
HETATM   11  C   UNL     1      40.812  -9.478   1.580  1.00  0.00     0.140 A 
HETATM   12  O   UNL     1      40.124  -9.860   2.740  1.00  0.00    -0.277 OA
ENDROOT
BRANCH   7  13
HETATM   13  C   UNL     1      40.947 -12.741   0.067  1.00  0.00    -0.041 A 
HETATM   14  C   UNL     1      39.604 -12.634  -0.320  1.00  0.00     0.027 A 
HETATM   15  C   UNL     1      39.122 -13.479  -1.310  1.00  0.00     0.116 A 
HETATM   16  N   UNL     1      39.875 -14.401  -1.944  1.00  0.00    -0.273 NA
HETATM   17  C   UNL     1      41.169 -14.484  -1.572  1.00  0.00     0.116 A 
HETATM   18  C   UNL     1      41.743 -13.688  -0.593  1.00  0.00     0.027 A 
ENDBRANCH   7  13
BRANCH  11  19
HETATM   19  N   UNL     1      40.720  -8.125   1.331  1.00  0.00    -0.282 NA
HETATM   20  H   UNL     1      39.830  -7.801   0.959  1.00  0.00     0.126 HD
HETATM   21  H   UNL     1      41.055  -7.569   2.115  1.00  0.00     0.126 HD
ENDBRANCH  11  19
BRANCH   1  22
HETATM   22  C   UNL     1      41.000 -14.691   2.934  1.00  0.00    -0.007 A 
HETATM   23  C   UNL     1      40.132 -15.560   2.262  1.00  0.00     0.016 A 
HETATM   24  C   UNL     1      40.534 -16.861   1.957  1.00  0.00     0.037 A 
HETATM   25  C   UNL     1      41.812 -17.294   2.304  1.00  0.00     0.069 A 
HETATM   26  C   UNL     1      42.663 -16.460   3.026  1.00  0.00     0.037 A 
HETATM   27  C   UNL     1      42.259 -15.158   3.335  1.00  0.00     0.016 A 
BRANCH  25  28
HETATM   28  O   UNL     1      42.147 -18.562   1.921  1.00  0.00    -0.347 OA
BRANCH  28  29
HETATM   29  C   UNL     1      43.558 -18.753   1.755  1.00  0.00     0.214 C 
BRANCH  29  30
HETATM   30  C   UNL     1      44.009 -19.931   2.586  1.00  0.00    -0.034 A 
HETATM   31  C   UNL     1      44.414 -19.745   3.916  1.00  0.00     0.009 A 
HETATM   32  C   UNL     1      44.818 -20.831   4.694  1.00  0.00     0.001 A 
HETATM   33  C   UNL     1      44.817 -22.116   4.154  1.00  0.00     0.000 A 
HETATM   34  C   UNL     1      44.410 -22.315   2.837  1.00  0.00     0.001 A 
HETATM   35  C   UNL     1      44.003 -21.230   2.057  1.00  0.00     0.009 A 
ENDBRANCH  29  30
ENDBRANCH  28  29
ENDBRANCH  25  28
ENDBRANCH   1  22
TORSDOF 6
ENDMDL
MODEL 8
REMARK VINA RESULT:      -7.6      1.624      2.500
REMARK  6 active torsions:
REMARK  status: ('A' for Active; 'I' for Inactive)
REMARK    1  A    between atoms: C_4  and  C_5 
REMARK    2  A    between atoms: C_5  and  O_6 
REMARK    3  A    between atoms: O_6  and  C_7 
REMARK    4  A    between atoms: C_10  and  C_11 
REMARK    5  A    between atoms: C_17  and  C_18 
REMARK    6  A    between atoms: C_27  and  N_28 
ROOT
HETATM    1  C   UNL     1      40.489 -12.903   5.886  1.00  0.00     0.072 A 
HETATM    2  N   UNL     1      39.735 -12.486   6.963  1.00  0.00    -0.274 N 
HETATM    3  H   UNL     1      39.580 -12.979   7.836  1.00  0.00     0.189 HD
HETATM    4  N   UNL     1      39.154 -11.280   6.795  1.00  0.00    -0.148 NA
HETATM    5  C   UNL     1      39.565 -10.934   5.582  1.00  0.00     0.199 A 
HETATM    6  C   UNL     1      40.378 -11.881   4.958  1.00  0.00     0.040 A 
HETATM    7  C   UNL     1      40.894 -11.650   3.582  1.00  0.00     0.106 A 
HETATM    8  C   UNL     1      40.446 -10.292   3.052  1.00  0.00     0.081 A 
HETATM    9  C   UNL     1      40.953  -9.910   1.774  1.00  0.00     0.100 C 
HETATM   10  N   UNL     1      41.368  -9.610   0.733  1.00  0.00    -0.191 NA
HETATM   11  C   UNL     1      39.651  -9.448   3.760  1.00  0.00     0.140 A 
HETATM   12  O   UNL     1      39.174  -9.767   5.040  1.00  0.00    -0.277 OA
ENDROOT
BRANCH   7  13
HETATM   13  C   UNL     1      40.403 -12.815   2.734  1.00  0.00    -0.041 A 
HETATM   14  C   UNL     1      39.053 -12.993   2.398  1.00  0.00     0.027 A 
HETATM   15  C   UNL     1      38.694 -14.082   1.617  1.00  0.00     0.116 A 
HETATM   16  N   UNL     1      39.572 -14.988   1.141  1.00  0.00    -0.273 NA
HETATM   17  C   UNL     1      40.869 -14.799   1.460  1.00  0.00     0.116 A 
HETATM   18  C   UNL     1      41.327 -13.745   2.235  1.00  0.00     0.027 A 
ENDBRANCH   7  13
BRANCH  11  19
HETATM   19  N   UNL     1      39.227  -8.209   3.330  1.00  0.00    -0.282 NA
HETATM   20  H   UNL     1      39.121  -8.100   2.325  1.00  0.00     0.126 HD
HETATM   21  H   UNL     1      38.423  -7.877   3.858  1.00  0.00     0.126 HD
ENDBRANCH  11  19
BRANCH   1  22
HETATM   22  C   UNL     1      41.156 -14.194   5.825  1.00  0.00    -0.007 A 
HETATM   23  C   UNL     1      42.541 -14.282   6.012  1.00  0.00     0.016 A 
HETATM   24  C   UNL     1      43.167 -15.529   6.058  1.00  0.00     0.037 A 
HETATM   25  C   UNL     1      42.411 -16.692   5.938  1.00  0.00     0.069 A 
HETATM   26  C   UNL     1      41.042 -16.617   5.691  1.00  0.00     0.037 A 
HETATM   27  C   UNL     1      40.415 -15.368   5.641  1.00  0.00     0.016 A 
BRANCH  25  28
HETATM   28  O   UNL     1      43.092 -17.871   6.050  1.00  0.00    -0.347 OA
BRANCH  28  29
HETATM   29  C   UNL     1      44.300 -17.907   5.279  1.00  0.00     0.214 C 
BRANCH  29  30
HETATM   30  C   UNL     1      43.968 -18.190   3.832  1.00  0.00    -0.034 A 
HETATM   31  C   UNL     1      43.889 -17.139   2.906  1.00  0.00     0.009 A 
HETATM   32  C   UNL     1      43.597 -17.394   1.566  1.00  0.00     0.001 A 
HETATM   33  C   UNL     1      43.386 -18.702   1.133  1.00  0.00     0.000 A 
HETATM   34  C   UNL     1      43.470 -19.755   2.041  1.00  0.00     0.001 A 
HETATM   35  C   UNL     1      43.764 -19.502   3.382  1.00  0.00     0.009 A 
ENDBRANCH  29  30
ENDBRANCH  28  29
ENDBRANCH  25  28
ENDBRANCH   1  22
TORSDOF 6
ENDMDL
MODEL 9
REMARK VINA RESULT:      -7.5      2.473      3.651
REMARK  6 active torsions:
REMARK  status: ('A' for Active; 'I' for Inactive)
REMARK    1  A    between atoms: C_4  and  C_5 
REMARK    2  A    between atoms: C_5  and  O_6 
REMARK    3  A    between atoms: O_6  and  C_7 
REMARK    4  A    between atoms: C_10  and  C_11 
REMARK    5  A    between atoms: C_17  and  C_18 
REMARK    6  A    between atoms: C_27  and  N_28 
ROOT
HETATM    1  C   UNL     1      39.840 -12.671   2.456  1.00  0.00     0.072 A 
HETATM    2  N   UNL     1      38.849 -12.108   3.232  1.00  0.00    -0.274 N 
HETATM    3  H   UNL     1      38.376 -12.524   4.027  1.00  0.00     0.189 HD
HETATM    4  N   UNL     1      38.498 -10.860   2.858  1.00  0.00    -0.148 NA
HETATM    5  C   UNL     1      39.299 -10.638   1.824  1.00  0.00     0.199 A 
HETATM    6  C   UNL     1      40.143 -11.705   1.511  1.00  0.00     0.040 A 
HETATM    7  C   UNL     1      41.079 -11.619   0.357  1.00  0.00     0.106 A 
HETATM    8  C   UNL     1      40.983 -10.259  -0.323  1.00  0.00     0.081 A 
HETATM    9  C   UNL     1      41.899 -10.016  -1.390  1.00  0.00     0.100 C 
HETATM   10  N   UNL     1      42.646  -9.829  -2.258  1.00  0.00    -0.191 NA
HETATM   11  C   UNL     1      40.118  -9.291   0.078  1.00  0.00     0.140 A 
HETATM   12  O   UNL     1      39.238  -9.474   1.154  1.00  0.00    -0.277 OA
ENDROOT
BRANCH   7  13
HETATM   13  C   UNL     1      40.734 -12.778  -0.568  1.00  0.00    -0.041 A 
HETATM   14  C   UNL     1      41.618 -13.836  -0.821  1.00  0.00     0.027 A 
HETATM   15  C   UNL     1      41.219 -14.853  -1.676  1.00  0.00     0.116 A 
HETATM   16  N   UNL     1      40.014 -14.900  -2.279  1.00  0.00    -0.273 NA
HETATM   17  C   UNL     1      39.168 -13.883  -2.018  1.00  0.00     0.116 A 
HETATM   18  C   UNL     1      39.473 -12.821  -1.181  1.00  0.00     0.027 A 
ENDBRANCH   7  13
BRANCH  11  19
HETATM   19  N   UNL     1      40.000  -8.044  -0.498  1.00  0.00    -0.282 NA
HETATM   20  H   UNL     1      40.596  -7.317  -0.111  1.00  0.00     0.126 HD
HETATM   21  H   UNL     1      40.028  -8.089  -1.514  1.00  0.00     0.126 HD
ENDBRANCH  11  19
BRANCH   1  22
HETATM   22  C   UNL     1      40.332 -14.027   2.642  1.00  0.00    -0.007 A 
HETATM   23  C   UNL     1      39.655 -15.108   2.064  1.00  0.00     0.016 A 
HETATM   24  C   UNL     1      40.182 -16.397   2.153  1.00  0.00     0.037 A 
HETATM   25  C   UNL     1      41.396 -16.610   2.802  1.00  0.00     0.069 A 
HETATM   26  C   UNL     1      42.048 -15.553   3.434  1.00  0.00     0.037 A 
HETATM   27  C   UNL     1      41.518 -14.262   3.347  1.00  0.00     0.016 A 
BRANCH  25  28
HETATM   28  O   UNL     1      41.869 -17.892   2.797  1.00  0.00    -0.347 OA
BRANCH  28  29
HETATM   29  C   UNL     1      43.300 -17.971   2.824  1.00  0.00     0.214 C 
BRANCH  29  30
HETATM   30  C   UNL     1      43.725 -19.420   2.853  1.00  0.00    -0.034 A 
HETATM   31  C   UNL     1      44.438 -19.927   3.950  1.00  0.00     0.009 A 
HETATM   32  C   UNL     1      44.822 -21.268   3.990  1.00  0.00     0.001 A 
HETATM   33  C   UNL     1      44.492 -22.120   2.937  1.00  0.00     0.000 A 
HETATM   34  C   UNL     1      43.777 -21.632   1.846  1.00  0.00     0.001 A 
HETATM   35  C   UNL     1      43.390 -20.290   1.805  1.00  0.00     0.009 A 
ENDBRANCH  29  30
ENDBRANCH  28  29
ENDBRANCH  25  28
ENDBRANCH   1  22
TORSDOF 6
ENDMDL
MODEL 10
REMARK VINA RESULT:      -7.4      4.122      5.357
REMARK  6 active torsions:
REMARK  status: ('A' for Active; 'I' for Inactive)
REMARK    1  A    between atoms: C_4  and  C_5 
REMARK    2  A    between atoms: C_5  and  O_6 
REMARK    3  A    between atoms: O_6  and  C_7 
REMARK    4  A    between atoms: C_10  and  C_11 
REMARK    5  A    between atoms: C_17  and  C_18 
REMARK    6  A    between atoms: C_27  and  N_28 
ROOT
HETATM    1  C   UNL     1      38.454 -12.992   0.443  1.00  0.00     0.072 A 
HETATM    2  N   UNL     1      37.257 -12.803   1.100  1.00  0.00    -0.274 N 
HETATM    3  H   UNL     1      36.986 -13.167   2.007  1.00  0.00     0.189 HD
HETATM    4  N   UNL     1      36.372 -12.041   0.423  1.00  0.00    -0.148 NA
HETATM    5  C   UNL     1      37.041 -11.742  -0.682  1.00  0.00     0.199 A 
HETATM    6  C   UNL     1      38.321 -12.296  -0.747  1.00  0.00     0.040 A 
HETATM    7  C   UNL     1      39.184 -12.074  -1.939  1.00  0.00     0.106 A 
HETATM    8  C   UNL     1      38.490 -11.176  -2.956  1.00  0.00     0.081 A 
HETATM    9  C   UNL     1      39.252 -10.811  -4.106  1.00  0.00     0.100 C 
HETATM   10  N   UNL     1      39.879 -10.523  -5.038  1.00  0.00    -0.191 NA
HETATM   11  C   UNL     1      37.233 -10.691  -2.778  1.00  0.00     0.140 A 
HETATM   12  O   UNL     1      36.472 -10.986  -1.638  1.00  0.00    -0.277 OA
ENDROOT
BRANCH   7  13
HETATM   13  C   UNL     1      39.523 -13.452  -2.489  1.00  0.00    -0.041 A 
HETATM   14  C   UNL     1      38.559 -14.306  -3.045  1.00  0.00     0.027 A 
HETATM   15  C   UNL     1      38.958 -15.544  -3.527  1.00  0.00     0.116 A 
HETATM   16  N   UNL     1      40.233 -15.984  -3.509  1.00  0.00    -0.273 NA
HETATM   17  C   UNL     1      41.152 -15.149  -2.984  1.00  0.00     0.116 A 
HETATM   18  C   UNL     1      40.854 -13.894  -2.475  1.00  0.00     0.027 A 
ENDBRANCH   7  13
BRANCH  11  19
HETATM   19  N   UNL     1      36.567  -9.870  -3.662  1.00  0.00    -0.282 NA
HETATM   20  H   UNL     1      36.120 -10.333  -4.449  1.00  0.00     0.126 HD
HETATM   21  H   UNL     1      35.956  -9.210  -3.184  1.00  0.00     0.126 HD
ENDBRANCH  11  19
BRANCH   1  22
HETATM   22  C   UNL     1      39.529 -13.824   0.958  1.00  0.00    -0.007 A 
HETATM   23  C   UNL     1      39.268 -15.135   1.375  1.00  0.00     0.016 A 
HETATM   24  C   UNL     1      40.314 -15.970   1.771  1.00  0.00     0.037 A 
HETATM   25  C   UNL     1      41.627 -15.506   1.734  1.00  0.00     0.069 A 
HETATM   26  C   UNL     1      41.894 -14.185   1.381  1.00  0.00     0.037 A 
HETATM   27  C   UNL     1      40.846 -13.348   0.987  1.00  0.00     0.016 A 
BRANCH  25  28
HETATM   28  O   UNL     1      42.597 -16.403   2.084  1.00  0.00    -0.347 OA
BRANCH  28  29
HETATM   29  C   UNL     1      42.216 -17.260   3.168  1.00  0.00     0.214 C 
BRANCH  29  30
HETATM   30  C   UNL     1      43.016 -18.540   3.105  1.00  0.00    -0.034 A 
HETATM   31  C   UNL     1      42.909 -19.387   1.991  1.00  0.00     0.009 A 
HETATM   32  C   UNL     1      43.656 -20.563   1.920  1.00  0.00     0.001 A 
HETATM   33  C   UNL     1      44.523 -20.904   2.956  1.00  0.00     0.000 A 
HETATM   34  C   UNL     1      44.646 -20.068   4.063  1.00  0.00     0.001 A 
HETATM   35  C   UNL     1      43.900 -18.889   4.136  1.00  0.00     0.009 A 
ENDBRANCH  29  30
ENDBRANCH  28  29
ENDBRANCH  25  28
ENDBRANCH   1  22
TORSDOF 6
ENDMDL
