MODEL 1
REMARK VINA RESULT:      -9.1      0.000      0.000
REMARK  6 active torsions:
REMARK  status: ('A' for Active; 'I' for Inactive)
REMARK    1  A    between atoms: C_4  and  C_5 
REMARK    2  A    between atoms: C_14  and  C_15 
REMARK       I    between atoms: C_15  and  N_16 
REMARK    3  A    between atoms: N_16  and  C_17 
REMARK    4  A    between atoms: C_17  and  C_18 
REMARK    5  A    between atoms: C_18  and  N_19 
REMARK       I    between atoms: N_19  and  C_20 
REMARK    6  A    between atoms: C_20  and  C_21 
ROOT
HETATM    1  C   UNL     1      43.604 -18.219   4.001  1.00  0.00     0.069 A 
HETATM    2  N   UNL     1      44.207 -17.887   5.172  1.00  0.00    -0.230 NA
HETATM    3  C   UNL     1      43.931 -16.644   5.602  1.00  0.00     0.139 A 
HETATM    4  C   UNL     1      43.126 -15.690   4.996  1.00  0.00     0.027 A 
HETATM    5  C   UNL     1      42.524 -16.057   3.782  1.00  0.00     0.018 A 
HETATM    6  C   UNL     1      42.778 -17.341   3.290  1.00  0.00     0.033 A 
HETATM    7  N   UNL     1      44.424 -16.106   6.755  1.00  0.00    -0.349 N 
HETATM    8  H   UNL     1      45.036 -16.606   7.382  1.00  0.00     0.167 HD
HETATM    9  C   UNL     1      43.962 -14.822   6.907  1.00  0.00     0.108 A 
HETATM   10  C   UNL     1      43.145 -14.516   5.824  1.00  0.00     0.061 A 
ENDROOT
BRANCH  10  11
HETATM   11  C   UNL     1      42.436 -13.264   5.560  1.00  0.00     0.254 C 
HETATM   12  N   UNL     1      41.734 -12.739   6.622  1.00  0.00    -0.355 N 
HETATM   13  H   UNL     1      41.722 -13.219   7.509  1.00  0.00     0.162 HD
HETATM   14  O   UNL     1      42.462 -12.714   4.463  1.00  0.00    -0.268 OA
BRANCH  12  15
HETATM   15  C   UNL     1      41.000 -11.491   6.503  1.00  0.00     0.142 C 
BRANCH  15  16
HETATM   16  C   UNL     1      41.723 -10.316   7.172  1.00  0.00     0.142 C 
BRANCH  16  17
HETATM   17  N   UNL     1      41.647 -10.369   8.622  1.00  0.00    -0.355 N 
HETATM   18  C   UNL     1      42.749 -10.648   9.404  1.00  0.00     0.258 C 
HETATM   19  O   UNL     1      43.849 -10.861   8.898  1.00  0.00    -0.267 OA
HETATM   20  H   UNL     1      40.751 -10.244   9.072  1.00  0.00     0.162 HD
BRANCH  18  21
HETATM   21  C   UNL     1      42.523 -10.681  10.842  1.00  0.00     0.072 A 
HETATM   22  S   UNL     1      40.984 -10.998  11.529  1.00  0.00    -0.097 SA
HETATM   23  C   UNL     1      41.587 -10.856  13.123  1.00  0.00     0.050 A 
HETATM   24  C   UNL     1      42.934 -10.574  13.142  1.00  0.00     0.009 A 
HETATM   25  C   UNL     1      43.473 -10.476  11.828  1.00  0.00     0.025 A 
ENDBRANCH  18  21
ENDBRANCH  16  17
ENDBRANCH  15  16
ENDBRANCH  12  15
ENDBRANCH  10  11
BRANCH   1  26
HETATM   26  C   UNL     1      43.898 -19.586   3.509  1.00  0.00    -0.007 A 
HETATM   27  C   UNL     1      44.567 -20.537   4.300  1.00  0.00     0.014 A 
HETATM   28  C   UNL     1      44.828 -21.827   3.824  1.00  0.00     0.001 A 
HETATM   29  C   UNL     1      44.428 -22.193   2.542  1.00  0.00     0.000 A 
HETATM   30  C   UNL     1      43.774 -21.269   1.734  1.00  0.00     0.001 A 
HETATM   31  C   UNL     1      43.514 -19.980   2.213  1.00  0.00     0.014 A 
ENDBRANCH   1  26
TORSDOF 6
ENDMDL
MODEL 2
REMARK VINA RESULT:      -8.9      3.927      4.794
REMARK  6 active torsions:
REMARK  status: ('A' for Active; 'I' for Inactive)
REMARK    1  A    between atoms: C_4  and  C_5 
REMARK    2  A    between atoms: C_14  and  C_15 
REMARK       I    between atoms: C_15  and  N_16 
REMARK    3  A    between atoms: N_16  and  C_17 
REMARK    4  A    between atoms: C_17  and  C_18 
REMARK    5  A    between atoms: C_18  and  N_19 
REMARK       I    between atoms: N_19  and  C_20 
REMARK    6  A    between atoms: C_20  and  C_21 
ROOT
HETATM    1  C   UNL     1      43.301 -18.209   2.375  1.00  0.00     0.069 A 
HETATM    2  N   UNL     1      42.389 -18.120   1.372  1.00  0.00    -0.230 NA
HETATM    3  C   UNL     1      41.985 -16.868   1.103  1.00  0.00     0.139 A 
HETATM    4  C   UNL     1      42.381 -15.691   1.723  1.00  0.00     0.027 A 
HETATM    5  C   UNL     1      43.317 -15.814   2.762  1.00  0.00     0.018 A 
HETATM    6  C   UNL     1      43.772 -17.097   3.082  1.00  0.00     0.033 A 
HETATM    7  N   UNL     1      41.080 -16.546   0.134  1.00  0.00    -0.349 N 
HETATM    8  H   UNL     1      40.643 -17.232  -0.465  1.00  0.00     0.167 HD
HETATM    9  C   UNL     1      40.876 -15.189   0.115  1.00  0.00     0.108 A 
HETATM   10  C   UNL     1      41.671 -14.610   1.098  1.00  0.00     0.061 A 
ENDROOT
BRANCH  10  11
HETATM   11  C   UNL     1      41.780 -13.193   1.445  1.00  0.00     0.254 C 
HETATM   12  N   UNL     1      40.904 -12.743   2.408  1.00  0.00    -0.355 N 
HETATM   13  H   UNL     1      40.235 -13.375   2.819  1.00  0.00     0.162 HD
HETATM   14  O   UNL     1      42.599 -12.449   0.913  1.00  0.00    -0.268 OA
BRANCH  12  15
HETATM   15  C   UNL     1      40.917 -11.362   2.859  1.00  0.00     0.142 C 
BRANCH  15  16
HETATM   16  C   UNL     1      41.149 -11.238   4.370  1.00  0.00     0.142 C 
BRANCH  16  17
HETATM   17  N   UNL     1      41.933 -12.338   4.904  1.00  0.00    -0.355 N 
HETATM   18  C   UNL     1      41.346 -13.486   5.395  1.00  0.00     0.258 C 
HETATM   19  O   UNL     1      40.124 -13.624   5.395  1.00  0.00    -0.267 OA
HETATM   20  H   UNL     1      42.937 -12.243   4.962  1.00  0.00     0.162 HD
BRANCH  18  21
HETATM   21  C   UNL     1      42.254 -14.501   5.911  1.00  0.00     0.072 A 
HETATM   22  S   UNL     1      43.914 -14.191   6.209  1.00  0.00    -0.097 SA
HETATM   23  C   UNL     1      44.189 -15.789   6.751  1.00  0.00     0.050 A 
HETATM   24  C   UNL     1      43.044 -16.552   6.710  1.00  0.00     0.009 A 
HETATM   25  C   UNL     1      41.930 -15.809   6.228  1.00  0.00     0.025 A 
ENDBRANCH  18  21
ENDBRANCH  16  17
ENDBRANCH  15  16
ENDBRANCH  12  15
ENDBRANCH  10  11
BRANCH   1  26
HETATM   26  C   UNL     1      43.758 -19.584   2.687  1.00  0.00    -0.007 A 
HETATM   27  C   UNL     1      44.407 -19.900   3.895  1.00  0.00     0.014 A 
HETATM   28  C   UNL     1      44.823 -21.206   4.178  1.00  0.00     0.001 A 
HETATM   29  C   UNL     1      44.603 -22.225   3.256  1.00  0.00     0.000 A 
HETATM   30  C   UNL     1      43.972 -21.939   2.050  1.00  0.00     0.001 A 
HETATM   31  C   UNL     1      43.557 -20.633   1.770  1.00  0.00     0.014 A 
ENDBRANCH   1  26
TORSDOF 6
ENDMDL
MODEL 3
REMARK VINA RESULT:      -8.9      5.857      8.436
REMARK  6 active torsions:
REMARK  status: ('A' for Active; 'I' for Inactive)
REMARK    1  A    between atoms: C_4  and  C_5 
REMARK    2  A    between atoms: C_14  and  C_15 
REMARK       I    between atoms: C_15  and  N_16 
REMARK    3  A    between atoms: N_16  and  C_17 
REMARK    4  A    between atoms: C_17  and  C_18 
REMARK    5  A    between atoms: C_18  and  N_19 
REMARK       I    between atoms: N_19  and  C_20 
REMARK    6  A    between atoms: C_20  and  C_21 
ROOT
HETATM    1  C   UNL     1      43.293 -18.412   2.754  1.00  0.00     0.069 A 
HETATM    2  N   UNL     1      42.205 -18.107   3.509  1.00  0.00    -0.230 NA
HETATM    3  C   UNL     1      41.768 -16.846   3.361  1.00  0.00     0.139 A 
HETATM    4  C   UNL     1      42.292 -15.850   2.549  1.00  0.00     0.027 A 
HETATM    5  C   UNL     1      43.420 -16.191   1.787  1.00  0.00     0.018 A 
HETATM    6  C   UNL     1      43.918 -17.493   1.904  1.00  0.00     0.033 A 
HETATM    7  N   UNL     1      40.689 -16.327   4.017  1.00  0.00    -0.349 N 
HETATM    8  H   UNL     1      40.130 -16.858   4.668  1.00  0.00     0.167 HD
HETATM    9  C   UNL     1      40.506 -15.016   3.654  1.00  0.00     0.108 A 
HETATM   10  C   UNL     1      41.491 -14.672   2.735  1.00  0.00     0.061 A 
ENDROOT
BRANCH  10  11
HETATM   11  C   UNL     1      41.692 -13.381   2.076  1.00  0.00     0.254 C 
HETATM   12  N   UNL     1      40.587 -12.853   1.445  1.00  0.00    -0.355 N 
HETATM   13  H   UNL     1      39.714 -13.357   1.447  1.00  0.00     0.162 HD
HETATM   14  O   UNL     1      42.775 -12.802   2.083  1.00  0.00    -0.268 OA
BRANCH  12  15
HETATM   15  C   UNL     1      40.643 -11.570   0.767  1.00  0.00     0.142 C 
BRANCH  15  16
HETATM   16  C   UNL     1      41.184 -11.683  -0.664  1.00  0.00     0.142 C 
BRANCH  16  17
HETATM   17  N   UNL     1      40.358 -12.532  -1.505  1.00  0.00    -0.355 N 
HETATM   18  C   UNL     1      40.670 -13.855  -1.743  1.00  0.00     0.258 C 
HETATM   19  O   UNL     1      41.668 -14.371  -1.244  1.00  0.00    -0.267 OA
HETATM   20  H   UNL     1      39.555 -12.131  -1.969  1.00  0.00     0.162 HD
BRANCH  18  21
HETATM   21  C   UNL     1      39.759 -14.582  -2.616  1.00  0.00     0.072 A 
HETATM   22  S   UNL     1      38.131 -14.103  -2.858  1.00  0.00    -0.097 SA
HETATM   23  C   UNL     1      37.833 -15.401  -3.931  1.00  0.00     0.050 A 
HETATM   24  C   UNL     1      38.947 -16.189  -4.109  1.00  0.00     0.009 A 
HETATM   25  C   UNL     1      40.057 -15.715  -3.354  1.00  0.00     0.025 A 
ENDBRANCH  18  21
ENDBRANCH  16  17
ENDBRANCH  15  16
ENDBRANCH  12  15
ENDBRANCH  10  11
BRANCH   1  26
HETATM   26  C   UNL     1      43.792 -19.800   2.905  1.00  0.00    -0.007 A 
HETATM   27  C   UNL     1      43.651 -20.761   1.888  1.00  0.00     0.014 A 
HETATM   28  C   UNL     1      44.137 -22.064   2.043  1.00  0.00     0.001 A 
HETATM   29  C   UNL     1      44.773 -22.436   3.225  1.00  0.00     0.000 A 
HETATM   30  C   UNL     1      44.918 -21.509   4.252  1.00  0.00     0.001 A 
HETATM   31  C   UNL     1      44.431 -20.207   4.092  1.00  0.00     0.014 A 
ENDBRANCH   1  26
TORSDOF 6
ENDMDL
MODEL 4
REMARK VINA RESULT:      -8.7      3.712      5.823
REMARK  6 active torsions:
REMARK  status: ('A' for Active; 'I' for Inactive)
REMARK    1  A    between atoms: C_4  and  C_5 
REMARK    2  A    between atoms: C_14  and  C_15 
REMARK       I    between atoms: C_15  and  N_16 
REMARK    3  A    between atoms: N_16  and  C_17 
REMARK    4  A    between atoms: C_17  and  C_18 
REMARK    5  A    between atoms: C_18  and  N_19 
REMARK       I    between atoms: N_19  and  C_20 
REMARK    6  A    between atoms: C_20  and  C_21 
ROOT
HETATM    1  C   UNL     1      43.924 -18.702   4.325  1.00  0.00     0.069 A 
HETATM    2  N   UNL     1      44.333 -18.319   5.562  1.00  0.00    -0.230 NA
HETATM    3  C   UNL     1      44.048 -17.042   5.867  1.00  0.00     0.139 A 
HETATM    4  C   UNL     1      43.405 -16.099   5.077  1.00  0.00     0.027 A 
HETATM    5  C   UNL     1      43.001 -16.520   3.801  1.00  0.00     0.018 A 
HETATM    6  C   UNL     1      43.273 -17.842   3.433  1.00  0.00     0.033 A 
HETATM    7  N   UNL     1      44.362 -16.449   7.055  1.00  0.00    -0.349 N 
HETATM    8  H   UNL     1      44.835 -16.931   7.806  1.00  0.00     0.167 HD
HETATM    9  C   UNL     1      43.943 -15.142   7.052  1.00  0.00     0.108 A 
HETATM   10  C   UNL     1      43.338 -14.876   5.828  1.00  0.00     0.061 A 
ENDROOT
BRANCH  10  11
HETATM   11  C   UNL     1      42.745 -13.618   5.375  1.00  0.00     0.254 C 
HETATM   12  N   UNL     1      41.607 -13.219   6.041  1.00  0.00    -0.355 N 
HETATM   13  H   UNL     1      41.228 -13.788   6.781  1.00  0.00     0.162 HD
HETATM   14  O   UNL     1      43.228 -12.958   4.459  1.00  0.00    -0.268 OA
BRANCH  12  15
HETATM   15  C   UNL     1      40.927 -11.981   5.704  1.00  0.00     0.142 C 
BRANCH  15  16
HETATM   16  C   UNL     1      39.756 -12.197   4.736  1.00  0.00     0.142 C 
BRANCH  16  17
HETATM   17  N   UNL     1      40.196 -12.618   3.417  1.00  0.00    -0.355 N 
HETATM   18  C   UNL     1      40.197 -13.943   3.032  1.00  0.00     0.258 C 
HETATM   19  O   UNL     1      39.819 -14.827   3.799  1.00  0.00    -0.267 OA
HETATM   20  H   UNL     1      40.555 -11.925   2.775  1.00  0.00     0.162 HD
BRANCH  18  21
HETATM   21  C   UNL     1      40.675 -14.219   1.685  1.00  0.00     0.072 A 
HETATM   22  S   UNL     1      41.350 -13.007   0.677  1.00  0.00    -0.097 SA
HETATM   23  C   UNL     1      41.615 -14.115  -0.599  1.00  0.00     0.050 A 
HETATM   24  C   UNL     1      41.202 -15.386  -0.272  1.00  0.00     0.009 A 
HETATM   25  C   UNL     1      40.663 -15.446   1.044  1.00  0.00     0.025 A 
ENDBRANCH  18  21
ENDBRANCH  16  17
ENDBRANCH  15  16
ENDBRANCH  12  15
ENDBRANCH  10  11
BRANCH   1  26
HETATM   26  C   UNL     1      44.231 -20.108   3.970  1.00  0.00    -0.007 A 
HETATM   27  C   UNL     1      44.635 -21.052   4.932  1.00  0.00     0.014 A 
HETATM   28  C   UNL     1      44.912 -22.378   4.582  1.00  0.00     0.001 A 
HETATM   29  C   UNL     1      44.795 -22.789   3.256  1.00  0.00     0.000 A 
HETATM   30  C   UNL     1      44.408 -21.875   2.282  1.00  0.00     0.001 A 
HETATM   31  C   UNL     1      44.132 -20.550   2.637  1.00  0.00     0.014 A 
ENDBRANCH   1  26
TORSDOF 6
ENDMDL
MODEL 5
REMARK VINA RESULT:      -8.4      4.733      7.353
REMARK  6 active torsions:
REMARK  status: ('A' for Active; 'I' for Inactive)
REMARK    1  A    between atoms: C_4  and  C_5 
REMARK    2  A    between atoms: C_14  and  C_15 
REMARK       I    between atoms: C_15  and  N_16 
REMARK    3  A    between atoms: N_16  and  C_17 
REMARK    4  A    between atoms: C_17  and  C_18 
REMARK    5  A    between atoms: C_18  and  N_19 
REMARK       I    between atoms: N_19  and  C_20 
REMARK    6  A    between atoms: C_20  and  C_21 
ROOT
HETATM    1  C   UNL     1      43.652 -18.491   3.382  1.00  0.00     0.069 A 
HETATM    2  N   UNL     1      43.825 -17.841   4.563  1.00  0.00    -0.230 NA
HETATM    3  C   UNL     1      43.473 -16.545   4.537  1.00  0.00     0.139 A 
HETATM    4  C   UNL     1      42.972 -15.818   3.467  1.00  0.00     0.027 A 
HETATM    5  C   UNL     1      42.812 -16.512   2.257  1.00  0.00     0.018 A 
HETATM    6  C   UNL     1      43.164 -17.866   2.230  1.00  0.00     0.033 A 
HETATM    7  N   UNL     1      43.559 -15.707   5.610  1.00  0.00    -0.349 N 
HETATM    8  H   UNL     1      43.893 -16.000   6.517  1.00  0.00     0.167 HD
HETATM    9  C   UNL     1      43.131 -14.451   5.258  1.00  0.00     0.108 A 
HETATM   10  C   UNL     1      42.754 -14.472   3.920  1.00  0.00     0.061 A 
ENDROOT
BRANCH  10  11
HETATM   11  C   UNL     1      42.238 -13.366   3.114  1.00  0.00     0.254 C 
HETATM   12  N   UNL     1      41.036 -12.835   3.529  1.00  0.00    -0.355 N 
HETATM   13  H   UNL     1      40.564 -13.217   4.334  1.00  0.00     0.162 HD
HETATM   14  O   UNL     1      42.834 -12.935   2.132  1.00  0.00    -0.268 OA
BRANCH  12  15
HETATM   15  C   UNL     1      40.418 -11.721   2.830  1.00  0.00     0.142 C 
BRANCH  15  16
HETATM   16  C   UNL     1      39.324 -12.172   1.855  1.00  0.00     0.142 C 
BRANCH  16  17
HETATM   17  N   UNL     1      39.856 -12.544   0.555  1.00  0.00    -0.355 N 
HETATM   18  C   UNL     1      40.135 -13.854   0.226  1.00  0.00     0.258 C 
HETATM   19  O   UNL     1      39.940 -14.766   1.026  1.00  0.00    -0.267 OA
HETATM   20  H   UNL     1      40.072 -11.817  -0.113  1.00  0.00     0.162 HD
BRANCH  18  21
HETATM   21  C   UNL     1      40.677 -14.078  -1.108  1.00  0.00     0.072 A 
HETATM   22  S   UNL     1      41.635 -12.914  -1.924  1.00  0.00    -0.097 SA
HETATM   23  C   UNL     1      41.818 -13.921  -3.295  1.00  0.00     0.050 A 
HETATM   24  C   UNL     1      41.166 -15.123  -3.143  1.00  0.00     0.009 A 
HETATM   25  C   UNL     1      40.511 -15.214  -1.882  1.00  0.00     0.025 A 
ENDBRANCH  18  21
ENDBRANCH  16  17
ENDBRANCH  15  16
ENDBRANCH  12  15
ENDBRANCH  10  11
BRANCH   1  26
HETATM   26  C   UNL     1      44.037 -19.922   3.391  1.00  0.00    -0.007 A 
HETATM   27  C   UNL     1      43.958 -20.725   2.238  1.00  0.00     0.014 A 
HETATM   28  C   UNL     1      44.335 -22.072   2.261  1.00  0.00     0.001 A 
HETATM   29  C   UNL     1      44.795 -22.649   3.442  1.00  0.00     0.000 A 
HETATM   30  C   UNL     1      44.874 -21.882   4.600  1.00  0.00     0.001 A 
HETATM   31  C   UNL     1      44.496 -20.534   4.572  1.00  0.00     0.014 A 
ENDBRANCH   1  26
TORSDOF 6
ENDMDL
MODEL 6
REMARK VINA RESULT:      -8.4      1.850      2.481
REMARK  6 active torsions:
REMARK  status: ('A' for Active; 'I' for Inactive)
REMARK    1  A    between atoms: C_4  and  C_5 
REMARK    2  A    between atoms: C_14  and  C_15 
REMARK       I    between atoms: C_15  and  N_16 
REMARK    3  A    between atoms: N_16  and  C_17 
REMARK    4  A    between atoms: C_17  and  C_18 
REMARK    5  A    between atoms: C_18  and  N_19 
REMARK       I    between atoms: N_19  and  C_20 
REMARK    6  A    between atoms: C_20  and  C_21 
ROOT
HETATM    1  C   UNL     1      42.875 -17.280   3.745  1.00  0.00     0.069 A 
HETATM    2  N   UNL     1      41.597 -17.039   3.351  1.00  0.00    -0.230 NA
HETATM    3  C   UNL     1      41.141 -15.818   3.675  1.00  0.00     0.139 A 
HETATM    4  C   UNL     1      41.810 -14.808   4.351  1.00  0.00     0.027 A 
HETATM    5  C   UNL     1      43.125 -15.087   4.754  1.00  0.00     0.018 A 
HETATM    6  C   UNL     1      43.650 -16.346   4.442  1.00  0.00     0.033 A 
HETATM    7  N   UNL     1      39.891 -15.362   3.372  1.00  0.00    -0.349 N 
HETATM    8  H   UNL     1      39.206 -15.913   2.874  1.00  0.00     0.167 HD
HETATM    9  C   UNL     1      39.731 -14.083   3.843  1.00  0.00     0.108 A 
HETATM   10  C   UNL     1      40.911 -13.693   4.468  1.00  0.00     0.061 A 
ENDROOT
BRANCH  10  11
HETATM   11  C   UNL     1      41.204 -12.415   5.117  1.00  0.00     0.254 C 
HETATM   12  N   UNL     1      41.599 -12.490   6.434  1.00  0.00    -0.355 N 
HETATM   13  H   UNL     1      41.661 -13.385   6.894  1.00  0.00     0.162 HD
HETATM   14  O   UNL     1      41.104 -11.342   4.529  1.00  0.00    -0.268 OA
BRANCH  12  15
HETATM   15  C   UNL     1      41.936 -11.299   7.194  1.00  0.00     0.142 C 
BRANCH  15  16
HETATM   16  C   UNL     1      40.885 -10.962   8.259  1.00  0.00     0.142 C 
BRANCH  16  17
HETATM   17  N   UNL     1      41.452 -10.886   9.594  1.00  0.00    -0.355 N 
HETATM   18  C   UNL     1      41.127  -9.873  10.472  1.00  0.00     0.258 C 
HETATM   19  O   UNL     1      40.336  -8.987  10.155  1.00  0.00    -0.267 OA
HETATM   20  H   UNL     1      42.141 -11.570   9.875  1.00  0.00     0.162 HD
BRANCH  18  21
HETATM   21  C   UNL     1      41.781  -9.916  11.773  1.00  0.00     0.072 A 
HETATM   22  S   UNL     1      41.039 -10.603  13.158  1.00  0.00    -0.097 SA
HETATM   23  C   UNL     1      42.392 -10.255  14.144  1.00  0.00     0.050 A 
HETATM   24  C   UNL     1      43.396  -9.629  13.441  1.00  0.00     0.009 A 
HETATM   25  C   UNL     1      43.044  -9.436  12.075  1.00  0.00     0.025 A 
ENDBRANCH  18  21
ENDBRANCH  16  17
ENDBRANCH  15  16
ENDBRANCH  12  15
ENDBRANCH  10  11
BRANCH   1  26
HETATM   26  C   UNL     1      43.395 -18.624   3.399  1.00  0.00    -0.007 A 
HETATM   27  C   UNL     1      43.040 -19.279   2.206  1.00  0.00     0.014 A 
HETATM   28  C   UNL     1      43.548 -20.544   1.890  1.00  0.00     0.001 A 
HETATM   29  C   UNL     1      44.422 -21.184   2.764  1.00  0.00     0.000 A 
HETATM   30  C   UNL     1      44.783 -20.564   3.956  1.00  0.00     0.001 A 
HETATM   31  C   UNL     1      44.273 -19.299   4.268  1.00  0.00     0.014 A 
ENDBRANCH   1  26
TORSDOF 6
ENDMDL
MODEL 7
REMARK VINA RESULT:      -8.4      5.844      7.926
REMARK  6 active torsions:
REMARK  status: ('A' for Active; 'I' for Inactive)
REMARK    1  A    between atoms: C_4  and  C_5 
REMARK    2  A    between atoms: C_14  and  C_15 
REMARK       I    between atoms: C_15  and  N_16 
REMARK    3  A    between atoms: N_16  and  C_17 
REMARK    4  A    between atoms: C_17  and  C_18 
REMARK    5  A    between atoms: C_18  and  N_19 
REMARK       I    between atoms: N_19  and  C_20 
REMARK    6  A    between atoms: C_20  and  C_21 
ROOT
HETATM    1  C   UNL     1      42.349 -18.026   2.452  1.00  0.00     0.069 A 
HETATM    2  N   UNL     1      41.845 -17.411   3.554  1.00  0.00    -0.230 NA
HETATM    3  C   UNL     1      41.078 -16.342   3.287  1.00  0.00     0.139 A 
HETATM    4  C   UNL     1      40.756 -15.810   2.047  1.00  0.00     0.027 A 
HETATM    5  C   UNL     1      41.297 -16.459   0.926  1.00  0.00     0.018 A 
HETATM    6  C   UNL     1      42.105 -17.579   1.148  1.00  0.00     0.033 A 
HETATM    7  N   UNL     1      40.467 -15.580   4.241  1.00  0.00    -0.349 N 
HETATM    8  H   UNL     1      40.544 -15.766   5.231  1.00  0.00     0.167 HD
HETATM    9  C   UNL     1      39.763 -14.563   3.648  1.00  0.00     0.108 A 
HETATM   10  C   UNL     1      39.917 -14.665   2.269  1.00  0.00     0.061 A 
ENDROOT
BRANCH  10  11
HETATM   11  C   UNL     1      39.351 -13.798   1.236  1.00  0.00     0.254 C 
HETATM   12  N   UNL     1      38.696 -14.442   0.209  1.00  0.00    -0.355 N 
HETATM   13  H   UNL     1      38.640 -15.449   0.196  1.00  0.00     0.162 HD
HETATM   14  O   UNL     1      39.450 -12.576   1.277  1.00  0.00    -0.268 OA
BRANCH  12  15
HETATM   15  C   UNL     1      38.072 -13.702  -0.874  1.00  0.00     0.142 C 
BRANCH  15  16
HETATM   16  C   UNL     1      38.969 -13.603  -2.114  1.00  0.00     0.142 C 
BRANCH  16  17
HETATM   17  N   UNL     1      39.839 -12.440  -2.079  1.00  0.00    -0.355 N 
HETATM   18  C   UNL     1      41.157 -12.522  -1.682  1.00  0.00     0.258 C 
HETATM   19  O   UNL     1      41.652 -13.594  -1.341  1.00  0.00    -0.267 OA
HETATM   20  H   UNL     1      39.456 -11.534  -2.310  1.00  0.00     0.162 HD
BRANCH  18  21
HETATM   21  C   UNL     1      41.907 -11.273  -1.685  1.00  0.00     0.072 A 
HETATM   22  S   UNL     1      41.183  -9.761  -2.048  1.00  0.00    -0.097 SA
HETATM   23  C   UNL     1      42.658  -8.922  -1.836  1.00  0.00     0.050 A 
HETATM   24  C   UNL     1      43.688  -9.769  -1.493  1.00  0.00     0.009 A 
HETATM   25  C   UNL     1      43.254 -11.122  -1.404  1.00  0.00     0.025 A 
ENDBRANCH  18  21
ENDBRANCH  16  17
ENDBRANCH  15  16
ENDBRANCH  12  15
ENDBRANCH  10  11
BRANCH   1  26
HETATM   26  C   UNL     1      43.201 -19.207   2.726  1.00  0.00    -0.007 A 
HETATM   27  C   UNL     1      43.257 -20.308   1.851  1.00  0.00     0.014 A 
HETATM   28  C   UNL     1      44.074 -21.411   2.120  1.00  0.00     0.001 A 
HETATM   29  C   UNL     1      44.852 -21.440   3.275  1.00  0.00     0.000 A 
HETATM   30  C   UNL     1      44.807 -20.371   4.163  1.00  0.00     0.001 A 
HETATM   31  C   UNL     1      43.989 -19.269   3.890  1.00  0.00     0.014 A 
ENDBRANCH   1  26
TORSDOF 6
ENDMDL
MODEL 8
REMARK VINA RESULT:      -8.1      5.140      8.651
REMARK  6 active torsions:
REMARK  status: ('A' for Active; 'I' for Inactive)
REMARK    1  A    between atoms: C_4  and  C_5 
REMARK    2  A    between atoms: C_14  and  C_15 
REMARK       I    between atoms: C_15  and  N_16 
REMARK    3  A    between atoms: N_16  and  C_17 
REMARK    4  A    between atoms: C_17  and  C_18 
REMARK    5  A    between atoms: C_18  and  N_19 
REMARK       I    between atoms: N_19  and  C_20 
REMARK    6  A    between atoms: C_20  and  C_21 
ROOT
HETATM    1  C   UNL     1      41.158 -14.859   0.434  1.00  0.00     0.069 A 
HETATM    2  N   UNL     1      40.542 -14.045   1.331  1.00  0.00    -0.230 NA
HETATM    3  C   UNL     1      40.552 -14.506   2.592  1.00  0.00     0.139 A 
HETATM    4  C   UNL     1      41.101 -15.690   3.064  1.00  0.00     0.027 A 
HETATM    5  C   UNL     1      41.722 -16.516   2.114  1.00  0.00     0.018 A 
HETATM    6  C   UNL     1      41.741 -16.082   0.785  1.00  0.00     0.033 A 
HETATM    7  N   UNL     1      39.997 -13.850   3.652  1.00  0.00    -0.349 N 
HETATM    8  H   UNL     1      39.535 -12.956   3.569  1.00  0.00     0.167 HD
HETATM    9  C   UNL     1      40.168 -14.583   4.799  1.00  0.00     0.108 A 
HETATM   10  C   UNL     1      40.855 -15.750   4.478  1.00  0.00     0.061 A 
ENDROOT
BRANCH  10  11
HETATM   11  C   UNL     1      41.258 -16.831   5.378  1.00  0.00     0.254 C 
HETATM   12  N   UNL     1      42.112 -16.472   6.398  1.00  0.00    -0.355 N 
HETATM   13  H   UNL     1      42.429 -15.519   6.482  1.00  0.00     0.162 HD
HETATM   14  O   UNL     1      40.863 -17.984   5.236  1.00  0.00    -0.268 OA
BRANCH  12  15
HETATM   15  C   UNL     1      42.577 -17.444   7.373  1.00  0.00     0.142 C 
BRANCH  15  16
HETATM   16  C   UNL     1      43.993 -17.951   7.070  1.00  0.00     0.142 C 
BRANCH  16  17
HETATM   17  N   UNL     1      44.006 -18.990   6.055  1.00  0.00    -0.355 N 
HETATM   18  C   UNL     1      44.205 -18.709   4.719  1.00  0.00     0.258 C 
HETATM   19  O   UNL     1      44.384 -17.556   4.333  1.00  0.00    -0.267 OA
HETATM   20  H   UNL     1      43.817 -19.945   6.328  1.00  0.00     0.162 HD
BRANCH  18  21
HETATM   21  C   UNL     1      44.180 -19.849   3.813  1.00  0.00     0.072 A 
HETATM   22  S   UNL     1      44.809 -21.385   4.243  1.00  0.00    -0.097 SA
HETATM   23  C   UNL     1      44.399 -22.057   2.724  1.00  0.00     0.050 A 
HETATM   24  C   UNL     1      43.793 -21.137   1.899  1.00  0.00     0.009 A 
HETATM   25  C   UNL     1      43.665 -19.866   2.528  1.00  0.00     0.025 A 
ENDBRANCH  18  21
ENDBRANCH  16  17
ENDBRANCH  15  16
ENDBRANCH  12  15
ENDBRANCH  10  11
BRANCH   1  26
HETATM   26  C   UNL     1      41.155 -14.368  -0.964  1.00  0.00    -0.007 A 
HETATM   27  C   UNL     1      40.981 -15.232  -2.061  1.00  0.00     0.014 A 
HETATM   28  C   UNL     1      40.971 -14.751  -3.374  1.00  0.00     0.001 A 
HETATM   29  C   UNL     1      41.142 -13.391  -3.621  1.00  0.00     0.000 A 
HETATM   30  C   UNL     1      41.327 -12.515  -2.557  1.00  0.00     0.001 A 
HETATM   31  C   UNL     1      41.335 -13.000  -1.245  1.00  0.00     0.014 A 
ENDBRANCH   1  26
TORSDOF 6
ENDMDL
MODEL 9
REMARK VINA RESULT:      -8.1      4.865      8.682
REMARK  6 active torsions:
REMARK  status: ('A' for Active; 'I' for Inactive)
REMARK    1  A    between atoms: C_4  and  C_5 
REMARK    2  A    between atoms: C_14  and  C_15 
REMARK       I    between atoms: C_15  and  N_16 
REMARK    3  A    between atoms: N_16  and  C_17 
REMARK    4  A    between atoms: C_17  and  C_18 
REMARK    5  A    between atoms: C_18  and  N_19 
REMARK       I    between atoms: N_19  and  C_20 
REMARK    6  A    between atoms: C_20  and  C_21 
ROOT
HETATM    1  C   UNL     1      40.973 -14.887   0.544  1.00  0.00     0.069 A 
HETATM    2  N   UNL     1      41.552 -13.761   1.036  1.00  0.00    -0.230 NA
HETATM    3  C   UNL     1      41.978 -13.869   2.305  1.00  0.00     0.139 A 
HETATM    4  C   UNL     1      41.890 -14.971   3.144  1.00  0.00     0.027 A 
HETATM    5  C   UNL     1      41.279 -16.117   2.613  1.00  0.00     0.018 A 
HETATM    6  C   UNL     1      40.817 -16.058   1.294  1.00  0.00     0.033 A 
HETATM    7  N   UNL     1      42.592 -12.865   2.995  1.00  0.00    -0.349 N 
HETATM    8  H   UNL     1      42.778 -11.955   2.599  1.00  0.00     0.167 HD
HETATM    9  C   UNL     1      42.899 -13.287   4.264  1.00  0.00     0.108 A 
HETATM   10  C   UNL     1      42.474 -14.604   4.405  1.00  0.00     0.061 A 
ENDROOT
BRANCH  10  11
HETATM   11  C   UNL     1      42.588 -15.463   5.584  1.00  0.00     0.254 C 
HETATM   12  N   UNL     1      43.814 -16.063   5.770  1.00  0.00    -0.355 N 
HETATM   13  H   UNL     1      44.560 -15.907   5.109  1.00  0.00     0.162 HD
HETATM   14  O   UNL     1      41.653 -15.641   6.359  1.00  0.00    -0.268 OA
BRANCH  12  15
HETATM   15  C   UNL     1      44.070 -16.927   6.909  1.00  0.00     0.142 C 
BRANCH  15  16
HETATM   16  C   UNL     1      45.205 -17.926   6.648  1.00  0.00     0.142 C 
BRANCH  16  17
HETATM   17  N   UNL     1      45.024 -18.660   5.407  1.00  0.00    -0.355 N 
HETATM   18  C   UNL     1      44.414 -19.897   5.370  1.00  0.00     0.258 C 
HETATM   19  O   UNL     1      43.993 -20.429   6.394  1.00  0.00    -0.267 OA
HETATM   20  H   UNL     1      45.398 -18.276   4.551  1.00  0.00     0.162 HD
BRANCH  18  21
HETATM   21  C   UNL     1      44.314 -20.523   4.058  1.00  0.00     0.072 A 
HETATM   22  S   UNL     1      44.618 -22.191   3.805  1.00  0.00    -0.097 SA
HETATM   23  C   UNL     1      44.296 -22.069   2.129  1.00  0.00     0.050 A 
HETATM   24  C   UNL     1      43.961 -20.786   1.761  1.00  0.00     0.009 A 
HETATM   25  C   UNL     1      43.969 -19.896   2.873  1.00  0.00     0.025 A 
ENDBRANCH  18  21
ENDBRANCH  16  17
ENDBRANCH  15  16
ENDBRANCH  12  15
ENDBRANCH  10  11
BRANCH   1  26
HETATM   26  C   UNL     1      40.494 -14.787  -0.855  1.00  0.00    -0.007 A 
HETATM   27  C   UNL     1      39.488 -13.881  -1.238  1.00  0.00     0.014 A 
HETATM   28  C   UNL     1      39.054 -13.792  -2.565  1.00  0.00     0.001 A 
HETATM   29  C   UNL     1      39.615 -14.612  -3.540  1.00  0.00     0.000 A 
HETATM   30  C   UNL     1      40.604 -15.525  -3.188  1.00  0.00     0.001 A 
HETATM   31  C   UNL     1      41.036 -15.610  -1.860  1.00  0.00     0.014 A 
ENDBRANCH   1  26
TORSDOF 6
ENDMDL
MODEL 10
REMARK VINA RESULT:      -8.1      4.741      7.258
REMARK  6 active torsions:
REMARK  status: ('A' for Active; 'I' for Inactive)
REMARK    1  A    between atoms: C_4  and  C_5 
REMARK    2  A    between atoms: C_14  and  C_15 
REMARK       I    between atoms: C_15  and  N_16 
REMARK    3  A    between atoms: N_16  and  C_17 
REMARK    4  A    between atoms: C_17  and  C_18 
REMARK    5  A    between atoms: C_18  and  N_19 
REMARK       I    between atoms: N_19  and  C_20 
REMARK    6  A    between atoms: C_20  and  C_21 
ROOT
HETATM    1  C   UNL     1      42.940 -17.892   3.140  1.00  0.00     0.069 A 
HETATM    2  N   UNL     1      43.584 -17.093   4.031  1.00  0.00    -0.230 NA
HETATM    3  C   UNL     1      43.081 -15.851   4.123  1.00  0.00     0.139 A 
HETATM    4  C   UNL     1      42.010 -15.310   3.425  1.00  0.00     0.027 A 
HETATM    5  C   UNL     1      41.371 -16.155   2.504  1.00  0.00     0.018 A 
HETATM    6  C   UNL     1      41.855 -17.460   2.370  1.00  0.00     0.033 A 
HETATM    7  N   UNL     1      43.567 -14.887   4.957  1.00  0.00    -0.349 N 
HETATM    8  H   UNL     1      44.349 -15.036   5.578  1.00  0.00     0.167 HD
HETATM    9  C   UNL     1      42.842 -13.731   4.810  1.00  0.00     0.108 A 
HETATM   10  C   UNL     1      41.854 -13.949   3.856  1.00  0.00     0.061 A 
ENDROOT
BRANCH  10  11
HETATM   11  C   UNL     1      40.848 -13.002   3.373  1.00  0.00     0.254 C 
HETATM   12  N   UNL     1      41.323 -11.764   2.999  1.00  0.00    -0.355 N 
HETATM   13  H   UNL     1      42.306 -11.554   3.077  1.00  0.00     0.162 HD
HETATM   14  O   UNL     1      39.657 -13.289   3.306  1.00  0.00    -0.268 OA
BRANCH  12  15
HETATM   15  C   UNL     1      40.435 -10.736   2.486  1.00  0.00     0.142 C 
BRANCH  15  16
HETATM   16  C   UNL     1      40.845 -10.246   1.091  1.00  0.00     0.142 C 
BRANCH  16  17
HETATM   17  N   UNL     1      40.715 -11.279   0.079  1.00  0.00    -0.355 N 
HETATM   18  C   UNL     1      41.781 -12.064  -0.310  1.00  0.00     0.258 C 
HETATM   19  O   UNL     1      42.893 -11.919   0.194  1.00  0.00    -0.267 OA
HETATM   20  H   UNL     1      39.828 -11.397  -0.391  1.00  0.00     0.162 HD
BRANCH  18  21
HETATM   21  C   UNL     1      41.507 -13.051  -1.345  1.00  0.00     0.072 A 
HETATM   22  S   UNL     1      41.087 -14.674  -0.986  1.00  0.00    -0.097 SA
HETATM   23  C   UNL     1      40.956 -15.082  -2.642  1.00  0.00     0.050 A 
HETATM   24  C   UNL     1      41.224 -14.009  -3.460  1.00  0.00     0.009 A 
HETATM   25  C   UNL     1      41.539 -12.839  -2.713  1.00  0.00     0.025 A 
ENDBRANCH  18  21
ENDBRANCH  16  17
ENDBRANCH  15  16
ENDBRANCH  12  15
ENDBRANCH  10  11
BRANCH   1  26
HETATM   26  C   UNL     1      43.483 -19.266   3.024  1.00  0.00    -0.007 A 
HETATM   27  C   UNL     1      44.313 -19.829   4.010  1.00  0.00     0.014 A 
HETATM   28  C   UNL     1      44.809 -21.132   3.889  1.00  0.00     0.001 A 
HETATM   29  C   UNL     1      44.488 -21.901   2.774  1.00  0.00     0.000 A 
HETATM   30  C   UNL     1      43.678 -21.366   1.777  1.00  0.00     0.001 A 
HETATM   31  C   UNL     1      43.184 -20.063   1.902  1.00  0.00     0.014 A 
ENDBRANCH   1  26
TORSDOF 6
ENDMDL
