MODEL 1
REMARK VINA RESULT:      -8.7      0.000      0.000
REMARK  3 active torsions:
REMARK  status: ('A' for Active; 'I' for Inactive)
REMARK    1  A    between atoms: C_9  and  C_10 
REMARK    2  A    between atoms: C_10  and  N_11 
REMARK    3  A    between atoms: C_15  and  N_16 
REMARK       I    between atoms: N_16  and  C_17 
REMARK       I    between atoms: C_17  and  N_18 
ROOT
HETATM    1  N   UNL     1      42.737 -15.197   5.513  1.00  0.00    -0.067 N 
HETATM    2  H   UNL     1      42.777 -15.307   4.494  1.00  0.00     0.280 HD
HETATM    3  C   UNL     1      41.459 -15.821   6.026  1.00  0.00     0.237 C 
HETATM    4  C   UNL     1      40.258 -15.150   5.376  1.00  0.00     0.053 C 
HETATM    5  C   UNL     1      40.234 -13.643   5.651  1.00  0.00     0.089 C 
HETATM    6  C   UNL     1      41.563 -13.021   5.211  1.00  0.00     0.053 C 
HETATM    7  C   UNL     1      42.781 -13.710   5.808  1.00  0.00     0.237 C 
ENDROOT
BRANCH   1   8
HETATM    8  C   UNL     1      43.970 -15.873   6.084  1.00  0.00     0.271 C 
BRANCH   8   9
HETATM    9  C   UNL     1      44.140 -17.324   5.737  1.00  0.00    -0.029 C 
HETATM   10  C   UNL     1      44.671 -18.182   6.870  1.00  0.00     0.211 C 
HETATM   11  O   UNL     1      44.437 -19.588   6.748  1.00  0.00    -0.346 OA
HETATM   12  C   UNL     1      44.432 -20.089   5.477  1.00  0.00     0.079 A 
HETATM   13  C   UNL     1      44.180 -19.294   4.356  1.00  0.00    -0.001 A 
HETATM   14  C   UNL     1      44.638 -21.463   5.345  1.00  0.00     0.039 A 
HETATM   15  C   UNL     1      44.154 -19.885   3.088  1.00  0.00     0.038 A 
HETATM   16  C   UNL     1      43.914 -17.868   4.529  1.00  0.00     0.021 C 
HETATM   17  C   UNL     1      44.379 -21.257   2.958  1.00  0.00     0.035 A 
HETATM   18  C   UNL     1      44.619 -22.049   4.080  1.00  0.00     0.026 A 
HETATM   19 CL   UNL     1      44.348 -21.977   1.395  1.00  0.00    -0.084 Cl
ENDBRANCH   8   9
ENDBRANCH   1   8
BRANCH   5  20
HETATM   20  N   UNL     1      39.784 -13.398   7.023  1.00  0.00    -0.339 N 
HETATM   21  C   UNL     1      39.248 -12.255   7.529  1.00  0.00     0.314 C 
HETATM   22  N   UNL     1      38.841 -12.390   8.813  1.00  0.00    -0.352 N 
HETATM   23  O   UNL     1      39.201 -11.176   6.960  1.00  0.00    -0.248 OA
HETATM   24  H   UNL     1      38.420 -13.258   9.114  1.00  0.00     0.160 HD
HETATM   25  H   UNL     1      38.384 -11.566   9.188  1.00  0.00     0.160 HD
HETATM   26  H   UNL     1      39.628 -14.217   7.596  1.00  0.00     0.164 HD
ENDBRANCH   5  20
TORSDOF 3
ENDMDL
MODEL 2
REMARK VINA RESULT:      -8.4      2.147      2.927
REMARK  3 active torsions:
REMARK  status: ('A' for Active; 'I' for Inactive)
REMARK    1  A    between atoms: C_9  and  C_10 
REMARK    2  A    between atoms: C_10  and  N_11 
REMARK    3  A    between atoms: C_15  and  N_16 
REMARK       I    between atoms: N_16  and  C_17 
REMARK       I    between atoms: C_17  and  N_18 
ROOT
HETATM    1  N   UNL     1      42.842 -15.342   6.329  1.00  0.00    -0.067 N 
HETATM    2  H   UNL     1      42.688 -14.641   7.062  1.00  0.00     0.280 HD
HETATM    3  C   UNL     1      42.878 -14.650   4.985  1.00  0.00     0.237 C 
HETATM    4  C   UNL     1      41.565 -13.917   4.746  1.00  0.00     0.053 C 
HETATM    5  C   UNL     1      40.368 -14.870   4.795  1.00  0.00     0.089 C 
HETATM    6  C   UNL     1      40.377 -15.637   6.121  1.00  0.00     0.053 C 
HETATM    7  C   UNL     1      41.699 -16.335   6.406  1.00  0.00     0.237 C 
ENDROOT
BRANCH   1   8
HETATM    8  C   UNL     1      44.153 -16.038   6.645  1.00  0.00     0.271 C 
BRANCH   8   9
HETATM    9  C   UNL     1      44.236 -17.486   6.257  1.00  0.00    -0.029 C 
HETATM   10  C   UNL     1      44.477 -18.434   7.416  1.00  0.00     0.211 C 
HETATM   11  O   UNL     1      44.129 -19.803   7.184  1.00  0.00    -0.346 OA
HETATM   12  C   UNL     1      44.292 -20.256   5.905  1.00  0.00     0.079 A 
HETATM   13  C   UNL     1      44.316 -19.400   4.801  1.00  0.00    -0.001 A 
HETATM   14  C   UNL     1      44.382 -21.638   5.738  1.00  0.00     0.039 A 
HETATM   15  C   UNL     1      44.449 -19.941   3.517  1.00  0.00     0.038 A 
HETATM   16  C   UNL     1      44.167 -17.961   5.001  1.00  0.00     0.021 C 
HETATM   17  C   UNL     1      44.556 -21.324   3.355  1.00  0.00     0.035 A 
HETATM   18  C   UNL     1      44.521 -22.175   4.458  1.00  0.00     0.026 A 
HETATM   19 CL   UNL     1      44.722 -21.982   1.774  1.00  0.00    -0.084 Cl
ENDBRANCH   8   9
ENDBRANCH   1   8
BRANCH   5  20
HETATM   20  N   UNL     1      40.302 -15.647   3.555  1.00  0.00    -0.339 N 
HETATM   21  C   UNL     1      39.751 -15.274   2.369  1.00  0.00     0.314 C 
HETATM   22  N   UNL     1      39.949 -16.186   1.388  1.00  0.00    -0.352 N 
HETATM   23  O   UNL     1      39.065 -14.281   2.183  1.00  0.00    -0.248 OA
HETATM   24  H   UNL     1      40.826 -16.684   1.341  1.00  0.00     0.160 HD
HETATM   25  H   UNL     1      39.597 -15.896   0.482  1.00  0.00     0.160 HD
HETATM   26  H   UNL     1      40.932 -16.436   3.488  1.00  0.00     0.164 HD
ENDBRANCH   5  20
TORSDOF 3
ENDMDL
MODEL 3
REMARK VINA RESULT:      -8.2      1.525      2.067
REMARK  3 active torsions:
REMARK  status: ('A' for Active; 'I' for Inactive)
REMARK    1  A    between atoms: C_9  and  C_10 
REMARK    2  A    between atoms: C_10  and  N_11 
REMARK    3  A    between atoms: C_15  and  N_16 
REMARK       I    between atoms: N_16  and  C_17 
REMARK       I    between atoms: C_17  and  N_18 
ROOT
HETATM    1  N   UNL     1      42.177 -14.686   5.197  1.00  0.00    -0.067 N 
HETATM    2  H   UNL     1      42.082 -14.642   4.177  1.00  0.00     0.280 HD
HETATM    3  C   UNL     1      40.894 -15.227   5.788  1.00  0.00     0.237 C 
HETATM    4  C   UNL     1      39.728 -14.326   5.406  1.00  0.00     0.053 C 
HETATM    5  C   UNL     1      39.943 -12.888   5.886  1.00  0.00     0.089 C 
HETATM    6  C   UNL     1      41.284 -12.367   5.359  1.00  0.00     0.053 C 
HETATM    7  C   UNL     1      42.458 -13.278   5.685  1.00  0.00     0.237 C 
ENDROOT
BRANCH   1   8
HETATM    8  C   UNL     1      43.364 -15.583   5.497  1.00  0.00     0.271 C 
BRANCH   8   9
HETATM    9  C   UNL     1      43.496 -16.804   4.634  1.00  0.00    -0.029 C 
HETATM   10  C   UNL     1      42.882 -16.667   3.254  1.00  0.00     0.211 C 
HETATM   11  O   UNL     1      43.351 -17.592   2.268  1.00  0.00    -0.346 OA
HETATM   12  C   UNL     1      43.697 -18.832   2.724  1.00  0.00     0.079 A 
HETATM   13  C   UNL     1      44.049 -19.073   4.055  1.00  0.00    -0.001 A 
HETATM   14  C   UNL     1      43.738 -19.858   1.779  1.00  0.00     0.039 A 
HETATM   15  C   UNL     1      44.429 -20.363   4.441  1.00  0.00     0.038 A 
HETATM   16  C   UNL     1      44.050 -17.970   5.012  1.00  0.00     0.021 C 
HETATM   17  C   UNL     1      44.451 -21.392   3.496  1.00  0.00     0.035 A 
HETATM   18  C   UNL     1      44.110 -21.145   2.167  1.00  0.00     0.026 A 
HETATM   19 CL   UNL     1      44.917 -22.976   3.978  1.00  0.00    -0.084 Cl
ENDBRANCH   8   9
ENDBRANCH   1   8
BRANCH   5  20
HETATM   20  N   UNL     1      39.695 -12.805   7.327  1.00  0.00    -0.339 N 
HETATM   21  C   UNL     1      39.257 -11.728   8.034  1.00  0.00     0.314 C 
HETATM   22  N   UNL     1      39.032 -12.014   9.338  1.00  0.00    -0.352 N 
HETATM   23  O   UNL     1      39.151 -10.590   7.606  1.00  0.00    -0.248 OA
HETATM   24  H   UNL     1      38.640 -12.910   9.592  1.00  0.00     0.160 HD
HETATM   25  H   UNL     1      38.647 -11.238   9.867  1.00  0.00     0.160 HD
HETATM   26  H   UNL     1      39.604 -13.686   7.817  1.00  0.00     0.164 HD
ENDBRANCH   5  20
TORSDOF 3
ENDMDL
MODEL 4
REMARK VINA RESULT:      -8.1      5.188      6.074
REMARK  3 active torsions:
REMARK  status: ('A' for Active; 'I' for Inactive)
REMARK    1  A    between atoms: C_9  and  C_10 
REMARK    2  A    between atoms: C_10  and  N_11 
REMARK    3  A    between atoms: C_15  and  N_16 
REMARK       I    between atoms: N_16  and  C_17 
REMARK       I    between atoms: C_17  and  N_18 
ROOT
HETATM    1  N   UNL     1      40.675 -14.747   1.683  1.00  0.00    -0.067 N 
HETATM    2  H   UNL     1      41.182 -13.897   1.951  1.00  0.00     0.280 HD
HETATM    3  C   UNL     1      41.467 -15.479   0.623  1.00  0.00     0.237 C 
HETATM    4  C   UNL     1      41.667 -14.579  -0.588  1.00  0.00     0.053 C 
HETATM    5  C   UNL     1      40.331 -14.121  -1.179  1.00  0.00     0.089 C 
HETATM    6  C   UNL     1      39.489 -13.454  -0.086  1.00  0.00     0.053 C 
HETATM    7  C   UNL     1      39.319 -14.316   1.157  1.00  0.00     0.237 C 
ENDROOT
BRANCH   1   8
HETATM    8  C   UNL     1      40.501 -15.579   2.940  1.00  0.00     0.271 C 
BRANCH   8   9
HETATM    9  C   UNL     1      41.556 -16.617   3.189  1.00  0.00    -0.029 C 
HETATM   10  C   UNL     1      42.589 -16.225   4.228  1.00  0.00     0.211 C 
HETATM   11  O   UNL     1      43.325 -17.304   4.813  1.00  0.00    -0.346 OA
HETATM   12  C   UNL     1      43.569 -18.375   4.000  1.00  0.00     0.079 A 
HETATM   13  C   UNL     1      42.788 -18.660   2.877  1.00  0.00    -0.001 A 
HETATM   14  C   UNL     1      44.615 -19.219   4.374  1.00  0.00     0.039 A 
HETATM   15  C   UNL     1      43.074 -19.797   2.113  1.00  0.00     0.038 A 
HETATM   16  C   UNL     1      41.665 -17.789   2.539  1.00  0.00     0.021 C 
HETATM   17  C   UNL     1      44.134 -20.630   2.480  1.00  0.00     0.035 A 
HETATM   18  C   UNL     1      44.903 -20.348   3.608  1.00  0.00     0.026 A 
HETATM   19 CL   UNL     1      44.483 -22.025   1.535  1.00  0.00    -0.084 Cl
ENDBRANCH   8   9
ENDBRANCH   1   8
BRANCH   5  20
HETATM   20  N   UNL     1      39.724 -15.216  -1.938  1.00  0.00    -0.339 N 
HETATM   21  C   UNL     1      40.085 -15.675  -3.167  1.00  0.00     0.314 C 
HETATM   22  N   UNL     1      39.385 -16.770  -3.544  1.00  0.00    -0.352 N 
HETATM   23  O   UNL     1      40.880 -15.140  -3.922  1.00  0.00    -0.248 OA
HETATM   24  H   UNL     1      39.142 -17.468  -2.855  1.00  0.00     0.160 HD
HETATM   25  H   UNL     1      39.683 -17.162  -4.431  1.00  0.00     0.160 HD
HETATM   26  H   UNL     1      39.140 -15.855  -1.414  1.00  0.00     0.164 HD
ENDBRANCH   5  20
TORSDOF 3
ENDMDL
MODEL 5
REMARK VINA RESULT:      -7.9      2.281      3.059
REMARK  3 active torsions:
REMARK  status: ('A' for Active; 'I' for Inactive)
REMARK    1  A    between atoms: C_9  and  C_10 
REMARK    2  A    between atoms: C_10  and  N_11 
REMARK    3  A    between atoms: C_15  and  N_16 
REMARK       I    between atoms: N_16  and  C_17 
REMARK       I    between atoms: C_17  and  N_18 
ROOT
HETATM    1  N   UNL     1      42.543 -14.945   4.111  1.00  0.00    -0.067 N 
HETATM    2  H   UNL     1      43.087 -15.307   4.902  1.00  0.00     0.280 HD
HETATM    3  C   UNL     1      42.490 -13.436   4.200  1.00  0.00     0.237 C 
HETATM    4  C   UNL     1      41.851 -13.017   5.516  1.00  0.00     0.053 C 
HETATM    5  C   UNL     1      40.436 -13.584   5.664  1.00  0.00     0.089 C 
HETATM    6  C   UNL     1      40.474 -15.106   5.489  1.00  0.00     0.053 C 
HETATM    7  C   UNL     1      41.155 -15.550   4.203  1.00  0.00     0.237 C 
ENDROOT
BRANCH   1   8
HETATM    8  C   UNL     1      43.229 -15.417   2.843  1.00  0.00     0.271 C 
BRANCH   8   9
HETATM    9  C   UNL     1      43.432 -16.900   2.722  1.00  0.00    -0.029 C 
HETATM   10  C   UNL     1      42.794 -17.523   1.495  1.00  0.00     0.211 C 
HETATM   11  O   UNL     1      43.313 -18.798   1.103  1.00  0.00    -0.346 OA
HETATM   12  C   UNL     1      43.745 -19.607   2.114  1.00  0.00     0.079 A 
HETATM   13  C   UNL     1      44.128 -19.112   3.364  1.00  0.00    -0.001 A 
HETATM   14  C   UNL     1      43.843 -20.969   1.827  1.00  0.00     0.039 A 
HETATM   15  C   UNL     1      44.596 -19.999   4.339  1.00  0.00     0.038 A 
HETATM   16  C   UNL     1      44.066 -17.675   3.619  1.00  0.00     0.021 C 
HETATM   17  C   UNL     1      44.676 -21.364   4.054  1.00  0.00     0.035 A 
HETATM   18  C   UNL     1      44.304 -21.853   2.803  1.00  0.00     0.026 A 
HETATM   19 CL   UNL     1      45.250 -22.450   5.259  1.00  0.00    -0.084 Cl
ENDBRANCH   8   9
ENDBRANCH   1   8
BRANCH   5  20
HETATM   20  N   UNL     1      39.507 -12.821   4.828  1.00  0.00    -0.339 N 
HETATM   21  C   UNL     1      38.940 -11.616   5.103  1.00  0.00     0.314 C 
HETATM   22  N   UNL     1      38.206 -11.134   4.073  1.00  0.00    -0.352 N 
HETATM   23  O   UNL     1      38.982 -11.036   6.176  1.00  0.00    -0.248 OA
HETATM   24  H   UNL     1      38.524 -11.277   3.124  1.00  0.00     0.160 HD
HETATM   25  H   UNL     1      37.825 -10.208   4.238  1.00  0.00     0.160 HD
HETATM   26  H   UNL     1      39.463 -13.085   3.852  1.00  0.00     0.164 HD
ENDBRANCH   5  20
TORSDOF 3
ENDMDL
MODEL 6
REMARK VINA RESULT:      -7.7      6.351      7.091
REMARK  3 active torsions:
REMARK  status: ('A' for Active; 'I' for Inactive)
REMARK    1  A    between atoms: C_9  and  C_10 
REMARK    2  A    between atoms: C_10  and  N_11 
REMARK    3  A    between atoms: C_15  and  N_16 
REMARK       I    between atoms: N_16  and  C_17 
REMARK       I    between atoms: C_17  and  N_18 
ROOT
HETATM    1  N   UNL     1      41.658 -14.845  -0.767  1.00  0.00    -0.067 N 
HETATM    2  H   UNL     1      42.566 -15.316  -0.848  1.00  0.00     0.280 HD
HETATM    3  C   UNL     1      40.738 -15.358  -1.852  1.00  0.00     0.237 C 
HETATM    4  C   UNL     1      41.351 -15.090  -3.220  1.00  0.00     0.053 C 
HETATM    5  C   UNL     1      41.613 -13.598  -3.440  1.00  0.00     0.089 C 
HETATM    6  C   UNL     1      42.475 -13.055  -2.294  1.00  0.00     0.053 C 
HETATM    7  C   UNL     1      41.907 -13.357  -0.915  1.00  0.00     0.237 C 
ENDROOT
BRANCH   1   8
HETATM    8  C   UNL     1      41.122 -15.144   0.621  1.00  0.00     0.271 C 
BRANCH   8   9
HETATM    9  C   UNL     1      41.915 -16.129   1.431  1.00  0.00    -0.029 C 
HETATM   10  C   UNL     1      42.678 -15.519   2.591  1.00  0.00     0.211 C 
HETATM   11  O   UNL     1      43.070 -16.427   3.625  1.00  0.00    -0.346 OA
HETATM   12  C   UNL     1      43.367 -17.699   3.226  1.00  0.00     0.079 A 
HETATM   13  C   UNL     1      42.882 -18.247   2.035  1.00  0.00    -0.001 A 
HETATM   14  C   UNL     1      44.145 -18.462   4.097  1.00  0.00     0.039 A 
HETATM   15  C   UNL     1      43.198 -19.571   1.711  1.00  0.00     0.038 A 
HETATM   16  C   UNL     1      42.026 -17.443   1.168  1.00  0.00     0.021 C 
HETATM   17  C   UNL     1      43.992 -20.327   2.578  1.00  0.00     0.035 A 
HETATM   18  C   UNL     1      44.465 -19.780   3.769  1.00  0.00     0.026 A 
HETATM   19 CL   UNL     1      44.379 -21.953   2.171  1.00  0.00    -0.084 Cl
ENDBRANCH   8   9
ENDBRANCH   1   8
BRANCH   5  20
HETATM   20  N   UNL     1      40.353 -12.912  -3.733  1.00  0.00    -0.339 N 
HETATM   21  C   UNL     1      40.187 -11.676  -4.277  1.00  0.00     0.314 C 
HETATM   22  N   UNL     1      38.889 -11.377  -4.514  1.00  0.00    -0.352 N 
HETATM   23  O   UNL     1      41.071 -10.855  -4.465  1.00  0.00    -0.248 OA
HETATM   24  H   UNL     1      38.261 -12.100  -4.837  1.00  0.00     0.160 HD
HETATM   25  H   UNL     1      38.751 -10.484  -4.975  1.00  0.00     0.160 HD
HETATM   26  H   UNL     1      39.524 -13.492  -3.763  1.00  0.00     0.164 HD
ENDBRANCH   5  20
TORSDOF 3
ENDMDL
MODEL 7
REMARK VINA RESULT:      -7.5      1.415      1.489
REMARK  3 active torsions:
REMARK  status: ('A' for Active; 'I' for Inactive)
REMARK    1  A    between atoms: C_9  and  C_10 
REMARK    2  A    between atoms: C_10  and  N_11 
REMARK    3  A    between atoms: C_15  and  N_16 
REMARK       I    between atoms: N_16  and  C_17 
REMARK       I    between atoms: C_17  and  N_18 
ROOT
HETATM    1  N   UNL     1      42.808 -15.221   4.790  1.00  0.00    -0.067 N 
HETATM    2  H   UNL     1      42.765 -15.789   3.936  1.00  0.00     0.280 HD
HETATM    3  C   UNL     1      41.406 -15.035   5.327  1.00  0.00     0.237 C 
HETATM    4  C   UNL     1      40.538 -14.350   4.281  1.00  0.00     0.053 C 
HETATM    5  C   UNL     1      41.111 -12.990   3.872  1.00  0.00     0.089 C 
HETATM    6  C   UNL     1      42.561 -13.164   3.408  1.00  0.00     0.053 C 
HETATM    7  C   UNL     1      43.436 -13.893   4.417  1.00  0.00     0.237 C 
ENDROOT
BRANCH   1   8
HETATM    8  C   UNL     1      43.700 -15.957   5.772  1.00  0.00     0.271 C 
BRANCH   8   9
HETATM    9  C   UNL     1      43.966 -17.401   5.459  1.00  0.00    -0.029 C 
HETATM   10  C   UNL     1      44.631 -18.175   6.582  1.00  0.00     0.211 C 
HETATM   11  O   UNL     1      44.505 -19.599   6.517  1.00  0.00    -0.346 OA
HETATM   12  C   UNL     1      44.465 -20.142   5.265  1.00  0.00     0.079 A 
HETATM   13  C   UNL     1      44.084 -19.409   4.138  1.00  0.00    -0.001 A 
HETATM   14  C   UNL     1      44.774 -21.499   5.161  1.00  0.00     0.039 A 
HETATM   15  C   UNL     1      44.030 -20.044   2.892  1.00  0.00     0.038 A 
HETATM   16  C   UNL     1      43.713 -18.004   4.284  1.00  0.00     0.021 C 
HETATM   17  C   UNL     1      44.358 -21.398   2.789  1.00  0.00     0.035 A 
HETATM   18  C   UNL     1      44.727 -22.128   3.918  1.00  0.00     0.026 A 
HETATM   19 CL   UNL     1      44.292 -22.172   1.254  1.00  0.00    -0.084 Cl
ENDBRANCH   8   9
ENDBRANCH   1   8
BRANCH   5  20
HETATM   20  N   UNL     1      40.841 -12.004   4.920  1.00  0.00    -0.339 N 
HETATM   21  C   UNL     1      39.724 -11.245   5.079  1.00  0.00     0.314 C 
HETATM   22  N   UNL     1      39.749 -10.504   6.212  1.00  0.00    -0.352 N 
HETATM   23  O   UNL     1      38.814 -11.138   4.272  1.00  0.00    -0.248 OA
HETATM   24  H   UNL     1      40.153 -10.893   7.053  1.00  0.00     0.160 HD
HETATM   25  H   UNL     1      38.897  -9.978   6.377  1.00  0.00     0.160 HD
HETATM   26  H   UNL     1      41.427 -12.055   5.745  1.00  0.00     0.164 HD
ENDBRANCH   5  20
TORSDOF 3
ENDMDL
MODEL 8
REMARK VINA RESULT:      -7.4      4.680      5.465
REMARK  3 active torsions:
REMARK  status: ('A' for Active; 'I' for Inactive)
REMARK    1  A    between atoms: C_9  and  C_10 
REMARK    2  A    between atoms: C_10  and  N_11 
REMARK    3  A    between atoms: C_15  and  N_16 
REMARK       I    between atoms: N_16  and  C_17 
REMARK       I    between atoms: C_17  and  N_18 
ROOT
HETATM    1  N   UNL     1      41.737 -15.353   1.203  1.00  0.00    -0.067 N 
HETATM    2  H   UNL     1      41.957 -14.795   2.035  1.00  0.00     0.280 HD
HETATM    3  C   UNL     1      41.672 -14.439   0.000  1.00  0.00     0.237 C 
HETATM    4  C   UNL     1      40.608 -13.372   0.217  1.00  0.00     0.053 C 
HETATM    5  C   UNL     1      39.229 -13.990   0.460  1.00  0.00     0.089 C 
HETATM    6  C   UNL     1      39.310 -14.983   1.624  1.00  0.00     0.053 C 
HETATM    7  C   UNL     1      40.402 -16.028   1.453  1.00  0.00     0.237 C 
ENDROOT
BRANCH   1   8
HETATM    8  C   UNL     1      42.827 -16.400   1.065  1.00  0.00     0.271 C 
BRANCH   8   9
HETATM    9  C   UNL     1      43.159 -17.167   2.311  1.00  0.00    -0.029 C 
HETATM   10  C   UNL     1      43.176 -16.331   3.577  1.00  0.00     0.211 C 
HETATM   11  O   UNL     1      43.045 -17.056   4.804  1.00  0.00    -0.346 OA
HETATM   12  C   UNL     1      43.592 -18.308   4.823  1.00  0.00     0.079 A 
HETATM   13  C   UNL     1      43.825 -19.046   3.659  1.00  0.00    -0.001 A 
HETATM   14  C   UNL     1      43.865 -18.852   6.079  1.00  0.00     0.039 A 
HETATM   15  C   UNL     1      44.353 -20.337   3.760  1.00  0.00     0.038 A 
HETATM   16  C   UNL     1      43.480 -18.472   2.361  1.00  0.00     0.021 C 
HETATM   17  C   UNL     1      44.642 -20.872   5.018  1.00  0.00     0.035 A 
HETATM   18  C   UNL     1      44.398 -20.137   6.177  1.00  0.00     0.026 A 
HETATM   19 CL   UNL     1      45.294 -22.460   5.135  1.00  0.00    -0.084 Cl
ENDBRANCH   8   9
ENDBRANCH   1   8
BRANCH   5  20
HETATM   20  N   UNL     1      38.669 -14.466  -0.807  1.00  0.00    -0.339 N 
HETATM   21  C   UNL     1      38.074 -13.726  -1.782  1.00  0.00     0.314 C 
HETATM   22  N   UNL     1      37.758 -14.458  -2.876  1.00  0.00    -0.352 N 
HETATM   23  O   UNL     1      37.757 -12.551  -1.692  1.00  0.00    -0.248 OA
HETATM   24  H   UNL     1      38.382 -15.191  -3.183  1.00  0.00     0.160 HD
HETATM   25  H   UNL     1      37.368 -13.911  -3.637  1.00  0.00     0.160 HD
HETATM   26  H   UNL     1      38.960 -15.388  -1.107  1.00  0.00     0.164 HD
ENDBRANCH   5  20
TORSDOF 3
ENDMDL
MODEL 9
REMARK VINA RESULT:      -7.4      5.853      6.973
REMARK  3 active torsions:
REMARK  status: ('A' for Active; 'I' for Inactive)
REMARK    1  A    between atoms: C_9  and  C_10 
REMARK    2  A    between atoms: C_10  and  N_11 
REMARK    3  A    between atoms: C_15  and  N_16 
REMARK       I    between atoms: N_16  and  C_17 
REMARK       I    between atoms: C_17  and  N_18 
ROOT
HETATM    1  N   UNL     1      39.543 -14.109   1.152  1.00  0.00    -0.067 N 
HETATM    2  H   UNL     1      39.865 -13.157   1.357  1.00  0.00     0.280 HD
HETATM    3  C   UNL     1      40.520 -14.766   0.202  1.00  0.00     0.237 C 
HETATM    4  C   UNL     1      40.616 -13.955  -1.082  1.00  0.00     0.053 C 
HETATM    5  C   UNL     1      39.254 -13.817  -1.768  1.00  0.00     0.089 C 
HETATM    6  C   UNL     1      38.240 -13.232  -0.780  1.00  0.00     0.053 C 
HETATM    7  C   UNL     1      38.164 -13.997   0.533  1.00  0.00     0.237 C 
ENDROOT
BRANCH   1   8
HETATM    8  C   UNL     1      39.456 -14.845   2.477  1.00  0.00     0.271 C 
BRANCH   8   9
HETATM    9  C   UNL     1      40.501 -15.898   2.711  1.00  0.00    -0.029 C 
HETATM   10  C   UNL     1      40.335 -17.146   1.865  1.00  0.00     0.211 C 
HETATM   11  O   UNL     1      41.503 -17.959   1.719  1.00  0.00    -0.346 OA
HETATM   12  C   UNL     1      42.354 -17.985   2.788  1.00  0.00     0.079 A 
HETATM   13  C   UNL     1      42.391 -16.968   3.745  1.00  0.00    -0.001 A 
HETATM   14  C   UNL     1      43.239 -19.062   2.857  1.00  0.00     0.039 A 
HETATM   15  C   UNL     1      43.317 -17.045   4.792  1.00  0.00     0.038 A 
HETATM   16  C   UNL     1      41.490 -15.826   3.618  1.00  0.00     0.021 C 
HETATM   17  C   UNL     1      44.189 -18.134   4.868  1.00  0.00     0.035 A 
HETATM   18  C   UNL     1      44.156 -19.141   3.905  1.00  0.00     0.026 A 
HETATM   19 CL   UNL     1      45.322 -18.223   6.160  1.00  0.00    -0.084 Cl
ENDBRANCH   8   9
ENDBRANCH   1   8
BRANCH   5  20
HETATM   20  N   UNL     1      38.910 -15.072  -2.440  1.00  0.00    -0.339 N 
HETATM   21  C   UNL     1      39.552 -15.657  -3.487  1.00  0.00     0.314 C 
HETATM   22  N   UNL     1      39.038 -16.868  -3.807  1.00  0.00    -0.352 N 
HETATM   23  O   UNL     1      40.437 -15.147  -4.155  1.00  0.00    -0.248 OA
HETATM   24  H   UNL     1      38.719 -17.484  -3.072  1.00  0.00     0.160 HD
HETATM   25  H   UNL     1      39.543 -17.346  -4.546  1.00  0.00     0.160 HD
HETATM   26  H   UNL     1      38.286 -15.692  -1.939  1.00  0.00     0.164 HD
ENDBRANCH   5  20
TORSDOF 3
ENDMDL
MODEL 10
REMARK VINA RESULT:      -7.3      3.202      3.693
REMARK  3 active torsions:
REMARK  status: ('A' for Active; 'I' for Inactive)
REMARK    1  A    between atoms: C_9  and  C_10 
REMARK    2  A    between atoms: C_10  and  N_11 
REMARK    3  A    between atoms: C_15  and  N_16 
REMARK       I    between atoms: N_16  and  C_17 
REMARK       I    between atoms: C_17  and  N_18 
ROOT
HETATM    1  N   UNL     1      41.967 -14.815   2.557  1.00  0.00    -0.067 N 
HETATM    2  H   UNL     1      42.133 -15.283   1.660  1.00  0.00     0.280 HD
HETATM    3  C   UNL     1      40.494 -14.892   2.889  1.00  0.00     0.237 C 
HETATM    4  C   UNL     1      39.680 -14.227   1.789  1.00  0.00     0.053 C 
HETATM    5  C   UNL     1      40.081 -12.761   1.596  1.00  0.00     0.089 C 
HETATM    6  C   UNL     1      41.590 -12.672   1.345  1.00  0.00     0.053 C 
HETATM    7  C   UNL     1      42.422 -13.376   2.406  1.00  0.00     0.237 C 
ENDROOT
BRANCH   1   8
HETATM    8  C   UNL     1      42.822 -15.521   3.594  1.00  0.00     0.271 C 
BRANCH   8   9
HETATM    9  C   UNL     1      43.153 -16.955   3.302  1.00  0.00    -0.029 C 
HETATM   10  C   UNL     1      42.614 -17.468   1.980  1.00  0.00     0.211 C 
HETATM   11  O   UNL     1      43.251 -18.638   1.459  1.00  0.00    -0.346 OA
HETATM   12  C   UNL     1      43.713 -19.532   2.383  1.00  0.00     0.079 A 
HETATM   13  C   UNL     1      44.008 -19.169   3.700  1.00  0.00    -0.001 A 
HETATM   14  C   UNL     1      43.935 -20.835   1.936  1.00  0.00     0.039 A 
HETATM   15  C   UNL     1      44.515 -20.132   4.580  1.00  0.00     0.038 A 
HETATM   16  C   UNL     1      43.817 -17.785   4.126  1.00  0.00     0.021 C 
HETATM   17  C   UNL     1      44.718 -21.440   4.134  1.00  0.00     0.035 A 
HETATM   18  C   UNL     1      44.434 -21.795   2.817  1.00  0.00     0.026 A 
HETATM   19 CL   UNL     1      45.339 -22.619   5.222  1.00  0.00    -0.084 Cl
ENDBRANCH   8   9
ENDBRANCH   1   8
BRANCH   5  20
HETATM   20  N   UNL     1      39.517 -11.948   2.676  1.00  0.00    -0.339 N 
HETATM   21  C   UNL     1      38.268 -11.414   2.748  1.00  0.00     0.314 C 
HETATM   22  N   UNL     1      38.028 -10.799   3.930  1.00  0.00    -0.352 N 
HETATM   23  O   UNL     1      37.451 -11.386   1.841  1.00  0.00    -0.248 OA
HETATM   24  H   UNL     1      38.399 -11.195   4.782  1.00  0.00     0.160 HD
HETATM   25  H   UNL     1      37.081 -10.448   4.024  1.00  0.00     0.160 HD
HETATM   26  H   UNL     1      40.004 -11.980   3.562  1.00  0.00     0.164 HD
ENDBRANCH   5  20
TORSDOF 3
ENDMDL
