MODEL 1
REMARK VINA RESULT:      -8.8      0.000      0.000
REMARK  2 active torsions:
REMARK  status: ('A' for Active; 'I' for Inactive)
REMARK    1  A    between atoms: C_4  and  N_5 
REMARK    2  A    between atoms: C_12  and  C_13 
ROOT
HETATM    1  N   UNL     1      40.822 -15.136  -0.363  1.00  0.00    -0.236 N 
HETATM    2  N   UNL     1      41.031 -16.488  -0.015  1.00  0.00    -0.179 NA
HETATM    3  C   UNL     1      41.917 -16.481   1.045  1.00  0.00     0.119 A 
HETATM    4  C   UNL     1      42.228 -15.234   1.435  1.00  0.00     0.123 A 
HETATM    5  C   UNL     1      41.532 -14.311   0.525  1.00  0.00     0.280 A 
HETATM    6  O   UNL     1      41.606 -13.095   0.570  1.00  0.00    -0.265 OA
HETATM    7  N   UNL     1      42.480 -17.572   1.649  1.00  0.00    -0.344 N 
HETATM    8  C   UNL     1      43.327 -17.444   2.735  1.00  0.00     0.047 A 
HETATM    9  C   UNL     1      43.703 -16.237   3.200  1.00  0.00     0.086 A 
HETATM   10  C   UNL     1      43.163 -15.010   2.541  1.00  0.00     0.193 A 
HETATM   11  O   UNL     1      43.506 -13.904   2.935  1.00  0.00    -0.287 OA
HETATM   12  H   UNL     1      41.409 -17.031  -0.792  1.00  0.00     0.155 HD
HETATM   13  H   UNL     1      42.050 -18.477   1.482  1.00  0.00     0.167 HD
ENDROOT
BRANCH   8  14
HETATM   14  C   UNL     1      43.836 -18.681   3.357  1.00  0.00    -0.009 A 
HETATM   15  C   UNL     1      44.099 -18.748   4.735  1.00  0.00     0.015 A 
HETATM   16  C   UNL     1      44.576 -19.928   5.312  1.00  0.00     0.024 A 
HETATM   17  C   UNL     1      44.790 -21.052   4.517  1.00  0.00     0.034 A 
HETATM   18 CL   UNL     1      45.377 -22.504   5.227  1.00  0.00    -0.084 Cl
HETATM   19  C   UNL     1      44.530 -21.005   3.149  1.00  0.00     0.024 A 
HETATM   20  C   UNL     1      44.054 -19.824   2.572  1.00  0.00     0.015 A 
ENDBRANCH   8  14
BRANCH   1  21
HETATM   21  C   UNL     1      39.985 -14.790  -1.445  1.00  0.00     0.055 A 
HETATM   22  C   UNL     1      40.274 -15.210  -2.751  1.00  0.00     0.031 A 
HETATM   23  C   UNL     1      39.429 -14.880  -3.816  1.00  0.00     0.002 A 
HETATM   24  C   UNL     1      38.284 -14.122  -3.593  1.00  0.00     0.000 A 
HETATM   25  C   UNL     1      37.986 -13.686  -2.306  1.00  0.00     0.002 A 
HETATM   26  C   UNL     1      38.830 -14.017  -1.241  1.00  0.00     0.031 A 
ENDBRANCH   1  21
TORSDOF 2
ENDMDL
MODEL 2
REMARK VINA RESULT:      -8.6      3.904      8.270
REMARK  2 active torsions:
REMARK  status: ('A' for Active; 'I' for Inactive)
REMARK    1  A    between atoms: C_4  and  N_5 
REMARK    2  A    between atoms: C_12  and  C_13 
ROOT
HETATM    1  N   UNL     1      42.648 -17.913   2.020  1.00  0.00    -0.236 N 
HETATM    2  N   UNL     1      43.027 -17.285   0.813  1.00  0.00    -0.179 NA
HETATM    3  C   UNL     1      42.151 -16.231   0.637  1.00  0.00     0.119 A 
HETATM    4  C   UNL     1      41.298 -16.104   1.666  1.00  0.00     0.123 A 
HETATM    5  C   UNL     1      41.586 -17.203   2.602  1.00  0.00     0.280 A 
HETATM    6  O   UNL     1      40.984 -17.411   3.641  1.00  0.00    -0.265 OA
HETATM    7  N   UNL     1      42.079 -15.399  -0.448  1.00  0.00    -0.344 N 
HETATM    8  C   UNL     1      41.185 -14.346  -0.497  1.00  0.00     0.047 A 
HETATM    9  C   UNL     1      40.286 -14.136   0.483  1.00  0.00     0.086 A 
HETATM   10  C   UNL     1      40.281 -15.049   1.665  1.00  0.00     0.193 A 
HETATM   11  O   UNL     1      39.460 -14.888   2.558  1.00  0.00    -0.287 OA
HETATM   12  H   UNL     1      42.983 -17.923   0.018  1.00  0.00     0.155 HD
HETATM   13  H   UNL     1      42.873 -15.382  -1.081  1.00  0.00     0.167 HD
ENDROOT
BRANCH   8  14
HETATM   14  C   UNL     1      41.224 -13.467  -1.682  1.00  0.00    -0.009 A 
HETATM   15  C   UNL     1      40.066 -13.207  -2.433  1.00  0.00     0.015 A 
HETATM   16  C   UNL     1      40.116 -12.369  -3.551  1.00  0.00     0.024 A 
HETATM   17  C   UNL     1      41.323 -11.781  -3.923  1.00  0.00     0.034 A 
HETATM   18 CL   UNL     1      41.385 -10.751  -5.297  1.00  0.00    -0.084 Cl
HETATM   19  C   UNL     1      42.481 -12.024  -3.187  1.00  0.00     0.024 A 
HETATM   20  C   UNL     1      42.430 -12.864  -2.070  1.00  0.00     0.015 A 
ENDBRANCH   8  14
BRANCH   1  21
HETATM   21  C   UNL     1      43.326 -19.062   2.479  1.00  0.00     0.055 A 
HETATM   22  C   UNL     1      43.297 -20.262   1.757  1.00  0.00     0.031 A 
HETATM   23  C   UNL     1      43.988 -21.391   2.208  1.00  0.00     0.002 A 
HETATM   24  C   UNL     1      44.716 -21.339   3.392  1.00  0.00     0.000 A 
HETATM   25  C   UNL     1      44.750 -20.161   4.130  1.00  0.00     0.002 A 
HETATM   26  C   UNL     1      44.059 -19.032   3.678  1.00  0.00     0.031 A 
ENDBRANCH   1  21
TORSDOF 2
ENDMDL
MODEL 3
REMARK VINA RESULT:      -8.6      4.846      7.698
REMARK  2 active torsions:
REMARK  status: ('A' for Active; 'I' for Inactive)
REMARK    1  A    between atoms: C_4  and  N_5 
REMARK    2  A    between atoms: C_12  and  C_13 
ROOT
HETATM    1  N   UNL     1      43.747 -13.201   7.205  1.00  0.00    -0.236 N 
HETATM    2  N   UNL     1      44.394 -14.429   6.942  1.00  0.00    -0.179 NA
HETATM    3  C   UNL     1      43.699 -15.015   5.901  1.00  0.00     0.119 A 
HETATM    4  C   UNL     1      42.711 -14.227   5.445  1.00  0.00     0.123 A 
HETATM    5  C   UNL     1      42.702 -13.019   6.285  1.00  0.00     0.280 A 
HETATM    6  O   UNL     1      41.918 -12.093   6.169  1.00  0.00    -0.265 OA
HETATM    7  N   UNL     1      43.910 -16.261   5.375  1.00  0.00    -0.344 N 
HETATM    8  C   UNL     1      43.174 -16.729   4.301  1.00  0.00     0.047 A 
HETATM    9  C   UNL     1      42.161 -16.016   3.774  1.00  0.00     0.086 A 
HETATM   10  C   UNL     1      41.849 -14.673   4.348  1.00  0.00     0.193 A 
HETATM   11  O   UNL     1      40.921 -14.017   3.896  1.00  0.00    -0.287 OA
HETATM   12  H   UNL     1      44.400 -15.042   7.757  1.00  0.00     0.155 HD
HETATM   13  H   UNL     1      44.792 -16.718   5.586  1.00  0.00     0.167 HD
ENDROOT
BRANCH   8  14
HETATM   14  C   UNL     1      43.517 -18.060   3.764  1.00  0.00    -0.009 A 
HETATM   15  C   UNL     1      44.284 -18.970   4.511  1.00  0.00     0.015 A 
HETATM   16  C   UNL     1      44.597 -20.229   3.992  1.00  0.00     0.024 A 
HETATM   17  C   UNL     1      44.141 -20.592   2.726  1.00  0.00     0.034 A 
HETATM   18 CL   UNL     1      44.526 -22.141   2.089  1.00  0.00    -0.084 Cl
HETATM   19  C   UNL     1      43.375 -19.704   1.974  1.00  0.00     0.024 A 
HETATM   20  C   UNL     1      43.063 -18.443   2.492  1.00  0.00     0.015 A 
ENDBRANCH   8  14
BRANCH   1  21
HETATM   21  C   UNL     1      44.192 -12.361   8.247  1.00  0.00     0.055 A 
HETATM   22  C   UNL     1      43.316 -11.478   8.893  1.00  0.00     0.031 A 
HETATM   23  C   UNL     1      43.759 -10.662   9.939  1.00  0.00     0.002 A 
HETATM   24  C   UNL     1      45.087 -10.712  10.353  1.00  0.00     0.000 A 
HETATM   25  C   UNL     1      45.974 -11.573   9.717  1.00  0.00     0.002 A 
HETATM   26  C   UNL     1      45.531 -12.391   8.672  1.00  0.00     0.031 A 
ENDBRANCH   1  21
TORSDOF 2
ENDMDL
MODEL 4
REMARK VINA RESULT:      -8.3      3.866      8.272
REMARK  2 active torsions:
REMARK  status: ('A' for Active; 'I' for Inactive)
REMARK    1  A    between atoms: C_4  and  N_5 
REMARK    2  A    between atoms: C_12  and  C_13 
ROOT
HETATM    1  N   UNL     1      42.411 -18.301   2.801  1.00  0.00    -0.236 N 
HETATM    2  N   UNL     1      41.888 -17.767   1.603  1.00  0.00    -0.179 NA
HETATM    3  C   UNL     1      41.137 -16.666   1.968  1.00  0.00     0.119 A 
HETATM    4  C   UNL     1      41.200 -16.426   3.288  1.00  0.00     0.123 A 
HETATM    5  C   UNL     1      42.027 -17.489   3.880  1.00  0.00     0.280 A 
HETATM    6  O   UNL     1      42.278 -17.600   5.068  1.00  0.00    -0.265 OA
HETATM    7  N   UNL     1      40.365 -15.892   1.144  1.00  0.00    -0.344 N 
HETATM    8  C   UNL     1      39.686 -14.784   1.617  1.00  0.00     0.047 A 
HETATM    9  C   UNL     1      39.684 -14.460   2.923  1.00  0.00     0.086 A 
HETATM   10  C   UNL     1      40.463 -15.306   3.877  1.00  0.00     0.193 A 
HETATM   11  O   UNL     1      40.459 -15.040   5.071  1.00  0.00    -0.287 OA
HETATM   12  H   UNL     1      41.311 -18.442   1.101  1.00  0.00     0.155 HD
HETATM   13  H   UNL     1      40.526 -15.964   0.144  1.00  0.00     0.167 HD
ENDROOT
BRANCH   8  14
HETATM   14  C   UNL     1      38.930 -13.976   0.640  1.00  0.00    -0.009 A 
HETATM   15  C   UNL     1      39.299 -13.940  -0.714  1.00  0.00     0.015 A 
HETATM   16  C   UNL     1      38.571 -13.174  -1.630  1.00  0.00     0.024 A 
HETATM   17  C   UNL     1      37.466 -12.443  -1.199  1.00  0.00     0.034 A 
HETATM   18 CL   UNL     1      36.571 -11.501  -2.325  1.00  0.00    -0.084 Cl
HETATM   19  C   UNL     1      37.083 -12.471   0.140  1.00  0.00     0.024 A 
HETATM   20  C   UNL     1      37.812 -13.236   1.056  1.00  0.00     0.015 A 
ENDBRANCH   8  14
BRANCH   1  21
HETATM   21  C   UNL     1      43.205 -19.467   2.785  1.00  0.00     0.055 A 
HETATM   22  C   UNL     1      44.181 -19.697   3.764  1.00  0.00     0.031 A 
HETATM   23  C   UNL     1      44.951 -20.864   3.753  1.00  0.00     0.002 A 
HETATM   24  C   UNL     1      44.761 -21.819   2.759  1.00  0.00     0.000 A 
HETATM   25  C   UNL     1      43.806 -21.605   1.772  1.00  0.00     0.002 A 
HETATM   26  C   UNL     1      43.035 -20.439   1.784  1.00  0.00     0.031 A 
ENDBRANCH   1  21
TORSDOF 2
ENDMDL
MODEL 5
REMARK VINA RESULT:      -8.3      7.883     10.352
REMARK  2 active torsions:
REMARK  status: ('A' for Active; 'I' for Inactive)
REMARK    1  A    between atoms: C_4  and  N_5 
REMARK    2  A    between atoms: C_12  and  C_13 
ROOT
HETATM    1  N   UNL     1      43.981 -10.884  10.325  1.00  0.00    -0.236 N 
HETATM    2  N   UNL     1      43.240 -11.953   9.774  1.00  0.00    -0.179 NA
HETATM    3  C   UNL     1      44.056 -12.537   8.824  1.00  0.00     0.119 A 
HETATM    4  C   UNL     1      45.271 -11.965   8.780  1.00  0.00     0.123 A 
HETATM    5  C   UNL     1      45.262 -10.860   9.752  1.00  0.00     0.280 A 
HETATM    6  O   UNL     1      46.197 -10.107   9.962  1.00  0.00    -0.265 OA
HETATM    7  N   UNL     1      43.721 -13.551   7.968  1.00  0.00    -0.344 N 
HETATM    8  C   UNL     1      44.638 -14.086   7.082  1.00  0.00     0.047 A 
HETATM    9  C   UNL     1      45.880 -13.581   6.960  1.00  0.00     0.086 A 
HETATM   10  C   UNL     1      46.281 -12.435   7.829  1.00  0.00     0.193 A 
HETATM   11  O   UNL     1      47.399 -11.949   7.721  1.00  0.00    -0.287 OA
HETATM   12  H   UNL     1      42.367 -11.638   9.350  1.00  0.00     0.155 HD
HETATM   13  H   UNL     1      42.892 -14.096   8.187  1.00  0.00     0.167 HD
ENDROOT
BRANCH   8  14
HETATM   14  C   UNL     1      44.200 -15.218   6.244  1.00  0.00    -0.009 A 
HETATM   15  C   UNL     1      44.477 -16.545   6.611  1.00  0.00     0.015 A 
HETATM   16  C   UNL     1      44.052 -17.609   5.809  1.00  0.00     0.024 A 
HETATM   17  C   UNL     1      43.342 -17.354   4.638  1.00  0.00     0.034 A 
HETATM   18 CL   UNL     1      42.820 -18.663   3.653  1.00  0.00    -0.084 Cl
HETATM   19  C   UNL     1      43.054 -16.045   4.261  1.00  0.00     0.024 A 
HETATM   20  C   UNL     1      43.481 -14.981   5.062  1.00  0.00     0.015 A 
ENDBRANCH   8  14
BRANCH   1  21
HETATM   21  C   UNL     1      43.416 -10.049  11.312  1.00  0.00     0.055 A 
HETATM   22  C   UNL     1      43.823 -10.127  12.651  1.00  0.00     0.031 A 
HETATM   23  C   UNL     1      43.273  -9.283  13.621  1.00  0.00     0.002 A 
HETATM   24  C   UNL     1      42.304  -8.349  13.269  1.00  0.00     0.000 A 
HETATM   25  C   UNL     1      41.879  -8.262  11.947  1.00  0.00     0.002 A 
HETATM   26  C   UNL     1      42.430  -9.106  10.977  1.00  0.00     0.031 A 
ENDBRANCH   1  21
TORSDOF 2
ENDMDL
MODEL 6
REMARK VINA RESULT:      -8.2      3.507      8.168
REMARK  2 active torsions:
REMARK  status: ('A' for Active; 'I' for Inactive)
REMARK    1  A    between atoms: C_4  and  N_5 
REMARK    2  A    between atoms: C_12  and  C_13 
ROOT
HETATM    1  N   UNL     1      43.628 -18.551   2.724  1.00  0.00    -0.236 N 
HETATM    2  N   UNL     1      43.286 -18.179   1.405  1.00  0.00    -0.179 NA
HETATM    3  C   UNL     1      42.914 -16.849   1.464  1.00  0.00     0.119 A 
HETATM    4  C   UNL     1      43.059 -16.338   2.698  1.00  0.00     0.123 A 
HETATM    5  C   UNL     1      43.522 -17.433   3.566  1.00  0.00     0.280 A 
HETATM    6  O   UNL     1      43.736 -17.333   4.762  1.00  0.00    -0.265 OA
HETATM    7  N   UNL     1      42.413 -16.092   0.440  1.00  0.00    -0.344 N 
HETATM    8  C   UNL     1      42.113 -14.753   0.607  1.00  0.00     0.047 A 
HETATM    9  C   UNL     1      42.221 -14.148   1.805  1.00  0.00     0.086 A 
HETATM   10  C   UNL     1      42.708 -14.942   2.972  1.00  0.00     0.193 A 
HETATM   11  O   UNL     1      42.796 -14.418   4.074  1.00  0.00    -0.287 OA
HETATM   12  H   UNL     1      42.525 -18.746   1.031  1.00  0.00     0.155 HD
HETATM   13  H   UNL     1      42.536 -16.441  -0.506  1.00  0.00     0.167 HD
ENDROOT
BRANCH   8  14
HETATM   14  C   UNL     1      41.636 -14.005  -0.573  1.00  0.00    -0.009 A 
HETATM   15  C   UNL     1      40.870 -14.632  -1.569  1.00  0.00     0.015 A 
HETATM   16  C   UNL     1      40.421 -13.911  -2.680  1.00  0.00     0.024 A 
HETATM   17  C   UNL     1      40.729 -12.557  -2.799  1.00  0.00     0.034 A 
HETATM   18 CL   UNL     1      40.175 -11.670  -4.164  1.00  0.00    -0.084 Cl
HETATM   19  C   UNL     1      41.483 -11.919  -1.817  1.00  0.00     0.024 A 
HETATM   20  C   UNL     1      41.934 -12.640  -0.708  1.00  0.00     0.015 A 
ENDBRANCH   8  14
BRANCH   1  21
HETATM   21  C   UNL     1      44.023 -19.872   3.021  1.00  0.00     0.055 A 
HETATM   22  C   UNL     1      44.558 -20.208   4.272  1.00  0.00     0.031 A 
HETATM   23  C   UNL     1      44.930 -21.524   4.566  1.00  0.00     0.002 A 
HETATM   24  C   UNL     1      44.775 -22.525   3.612  1.00  0.00     0.000 A 
HETATM   25  C   UNL     1      44.256 -22.211   2.361  1.00  0.00     0.002 A 
HETATM   26  C   UNL     1      43.883 -20.895   2.067  1.00  0.00     0.031 A 
ENDBRANCH   1  21
TORSDOF 2
ENDMDL
MODEL 7
REMARK VINA RESULT:      -8.1      4.687      6.662
REMARK  2 active torsions:
REMARK  status: ('A' for Active; 'I' for Inactive)
REMARK    1  A    between atoms: C_4  and  N_5 
REMARK    2  A    between atoms: C_12  and  C_13 
ROOT
HETATM    1  N   UNL     1      41.450 -12.181   6.019  1.00  0.00    -0.236 N 
HETATM    2  N   UNL     1      41.800 -13.531   6.242  1.00  0.00    -0.179 NA
HETATM    3  C   UNL     1      42.180 -14.038   5.013  1.00  0.00     0.119 A 
HETATM    4  C   UNL     1      42.161 -13.100   4.051  1.00  0.00     0.123 A 
HETATM    5  C   UNL     1      41.676 -11.857   4.672  1.00  0.00     0.280 A 
HETATM    6  O   UNL     1      41.510 -10.802   4.084  1.00  0.00    -0.265 OA
HETATM    7  N   UNL     1      42.509 -15.336   4.730  1.00  0.00    -0.344 N 
HETATM    8  C   UNL     1      42.916 -15.721   3.465  1.00  0.00     0.047 A 
HETATM    9  C   UNL     1      42.929 -14.857   2.433  1.00  0.00     0.086 A 
HETATM   10  C   UNL     1      42.522 -13.440   2.673  1.00  0.00     0.193 A 
HETATM   11  O   UNL     1      42.509 -12.643   1.745  1.00  0.00    -0.287 OA
HETATM   12  H   UNL     1      41.024 -14.071   6.626  1.00  0.00     0.155 HD
HETATM   13  H   UNL     1      42.731 -15.946   5.510  1.00  0.00     0.167 HD
ENDROOT
BRANCH   8  14
HETATM   14  C   UNL     1      43.310 -17.130   3.272  1.00  0.00    -0.009 A 
HETATM   15  C   UNL     1      43.275 -17.727   2.001  1.00  0.00     0.015 A 
HETATM   16  C   UNL     1      43.655 -19.062   1.832  1.00  0.00     0.024 A 
HETATM   17  C   UNL     1      44.078 -19.808   2.930  1.00  0.00     0.034 A 
HETATM   18 CL   UNL     1      44.546 -21.448   2.721  1.00  0.00    -0.084 Cl
HETATM   19  C   UNL     1      44.124 -19.230   4.197  1.00  0.00     0.024 A 
HETATM   20  C   UNL     1      43.742 -17.896   4.366  1.00  0.00     0.015 A 
ENDBRANCH   8  14
BRANCH   1  21
HETATM   21  C   UNL     1      40.978 -11.374   7.076  1.00  0.00     0.055 A 
HETATM   22  C   UNL     1      39.695 -11.552   7.610  1.00  0.00     0.031 A 
HETATM   23  C   UNL     1      39.241 -10.762   8.671  1.00  0.00     0.002 A 
HETATM   24  C   UNL     1      40.061  -9.778   9.212  1.00  0.00     0.000 A 
HETATM   25  C   UNL     1      41.335  -9.578   8.690  1.00  0.00     0.002 A 
HETATM   26  C   UNL     1      41.789 -10.369   7.629  1.00  0.00     0.031 A 
ENDBRANCH   1  21
TORSDOF 2
ENDMDL
MODEL 8
REMARK VINA RESULT:      -8.0      4.962      7.968
REMARK  2 active torsions:
REMARK  status: ('A' for Active; 'I' for Inactive)
REMARK    1  A    between atoms: C_4  and  N_5 
REMARK    2  A    between atoms: C_12  and  C_13 
ROOT
HETATM    1  N   UNL     1      42.292 -17.622   3.420  1.00  0.00    -0.236 N 
HETATM    2  N   UNL     1      42.501 -16.840   4.578  1.00  0.00    -0.179 NA
HETATM    3  C   UNL     1      41.640 -15.764   4.476  1.00  0.00     0.119 A 
HETATM    4  C   UNL     1      40.861 -15.841   3.384  1.00  0.00     0.123 A 
HETATM    5  C   UNL     1      41.265 -17.052   2.652  1.00  0.00     0.280 A 
HETATM    6  O   UNL     1      40.783 -17.423   1.596  1.00  0.00    -0.265 OA
HETATM    7  N   UNL     1      41.563 -14.693   5.325  1.00  0.00    -0.344 N 
HETATM    8  C   UNL     1      40.629 -13.690   5.145  1.00  0.00     0.047 A 
HETATM    9  C   UNL     1      39.805 -13.674   4.080  1.00  0.00     0.086 A 
HETATM   10  C   UNL     1      39.886 -14.789   3.089  1.00  0.00     0.193 A 
HETATM   11  O   UNL     1      39.159 -14.784   2.105  1.00  0.00    -0.287 OA
HETATM   12  H   UNL     1      43.466 -16.520   4.656  1.00  0.00     0.155 HD
HETATM   13  H   UNL     1      41.995 -14.787   6.239  1.00  0.00     0.167 HD
ENDROOT
BRANCH   8  14
HETATM   14  C   UNL     1      40.583 -12.609   6.148  1.00  0.00    -0.009 A 
HETATM   15  C   UNL     1      41.663 -11.726   6.315  1.00  0.00     0.015 A 
HETATM   16  C   UNL     1      41.604 -10.703   7.266  1.00  0.00     0.024 A 
HETATM   17  C   UNL     1      40.464 -10.551   8.052  1.00  0.00     0.034 A 
HETATM   18 CL   UNL     1      40.391  -9.292   9.221  1.00  0.00    -0.084 Cl
HETATM   19  C   UNL     1      39.382 -11.414   7.896  1.00  0.00     0.024 A 
HETATM   20  C   UNL     1      39.441 -12.438   6.946  1.00  0.00     0.015 A 
ENDBRANCH   8  14
BRANCH   1  21
HETATM   21  C   UNL     1      43.048 -18.791   3.194  1.00  0.00     0.055 A 
HETATM   22  C   UNL     1      42.892 -19.544   2.022  1.00  0.00     0.031 A 
HETATM   23  C   UNL     1      43.659 -20.691   1.795  1.00  0.00     0.002 A 
HETATM   24  C   UNL     1      44.593 -21.107   2.739  1.00  0.00     0.000 A 
HETATM   25  C   UNL     1      44.756 -20.380   3.913  1.00  0.00     0.002 A 
HETATM   26  C   UNL     1      43.990 -19.232   4.139  1.00  0.00     0.031 A 
ENDBRANCH   1  21
TORSDOF 2
ENDMDL
MODEL 9
REMARK VINA RESULT:      -7.9      5.019      8.451
REMARK  2 active torsions:
REMARK  status: ('A' for Active; 'I' for Inactive)
REMARK    1  A    between atoms: C_4  and  N_5 
REMARK    2  A    between atoms: C_12  and  C_13 
ROOT
HETATM    1  N   UNL     1      43.936 -18.634   4.584  1.00  0.00    -0.236 N 
HETATM    2  N   UNL     1      43.044 -17.874   3.797  1.00  0.00    -0.179 NA
HETATM    3  C   UNL     1      42.952 -16.636   4.405  1.00  0.00     0.119 A 
HETATM    4  C   UNL     1      43.765 -16.535   5.470  1.00  0.00     0.123 A 
HETATM    5  C   UNL     1      44.430 -17.838   5.630  1.00  0.00     0.280 A 
HETATM    6  O   UNL     1      45.222 -18.114   6.514  1.00  0.00    -0.265 OA
HETATM    7  N   UNL     1      42.127 -15.606   4.045  1.00  0.00    -0.344 N 
HETATM    8  C   UNL     1      42.152 -14.391   4.706  1.00  0.00     0.047 A 
HETATM    9  C   UNL     1      42.929 -14.190   5.786  1.00  0.00     0.086 A 
HETATM   10  C   UNL     1      43.808 -15.301   6.259  1.00  0.00     0.193 A 
HETATM   11  O   UNL     1      44.508 -15.147   7.250  1.00  0.00    -0.287 OA
HETATM   12  H   UNL     1      42.123 -18.308   3.732  1.00  0.00     0.155 HD
HETATM   13  H   UNL     1      41.710 -15.639   3.119  1.00  0.00     0.167 HD
ENDROOT
BRANCH   8  14
HETATM   14  C   UNL     1      41.268 -13.321   4.205  1.00  0.00    -0.009 A 
HETATM   15  C   UNL     1      40.085 -13.620   3.510  1.00  0.00     0.015 A 
HETATM   16  C   UNL     1      39.254 -12.596   3.045  1.00  0.00     0.024 A 
HETATM   17  C   UNL     1      39.598 -11.265   3.276  1.00  0.00     0.034 A 
HETATM   18 CL   UNL     1      38.576 -10.006   2.705  1.00  0.00    -0.084 Cl
HETATM   19  C   UNL     1      40.765 -10.951   3.967  1.00  0.00     0.024 A 
HETATM   20  C   UNL     1      41.596 -11.975   4.431  1.00  0.00     0.015 A 
ENDBRANCH   8  14
BRANCH   1  21
HETATM   21  C   UNL     1      44.226 -19.975   4.254  1.00  0.00     0.055 A 
HETATM   22  C   UNL     1      44.563 -20.911   5.241  1.00  0.00     0.031 A 
HETATM   23  C   UNL     1      44.831 -22.243   4.909  1.00  0.00     0.002 A 
HETATM   24  C   UNL     1      44.768 -22.660   3.584  1.00  0.00     0.000 A 
HETATM   25  C   UNL     1      44.446 -21.745   2.588  1.00  0.00     0.002 A 
HETATM   26  C   UNL     1      44.178 -20.413   2.920  1.00  0.00     0.031 A 
ENDBRANCH   1  21
TORSDOF 2
ENDMDL
MODEL 10
REMARK VINA RESULT:      -7.7      3.007      4.209
REMARK  2 active torsions:
REMARK  status: ('A' for Active; 'I' for Inactive)
REMARK    1  A    between atoms: C_4  and  N_5 
REMARK    2  A    between atoms: C_12  and  C_13 
ROOT
HETATM    1  N   UNL     1      40.823 -13.443   2.927  1.00  0.00    -0.236 N 
HETATM    2  N   UNL     1      41.482 -14.322   3.814  1.00  0.00    -0.179 NA
HETATM    3  C   UNL     1      41.841 -15.427   3.066  1.00  0.00     0.119 A 
HETATM    4  C   UNL     1      41.522 -15.284   1.769  1.00  0.00     0.123 A 
HETATM    5  C   UNL     1      40.838 -13.988   1.634  1.00  0.00     0.280 A 
HETATM    6  O   UNL     1      40.387 -13.541   0.594  1.00  0.00    -0.265 OA
HETATM    7  N   UNL     1      42.419 -16.578   3.529  1.00  0.00    -0.344 N 
HETATM    8  C   UNL     1      42.773 -17.606   2.675  1.00  0.00     0.047 A 
HETATM    9  C   UNL     1      42.493 -17.561   1.359  1.00  0.00     0.086 A 
HETATM   10  C   UNL     1      41.811 -16.352   0.808  1.00  0.00     0.193 A 
HETATM   11  O   UNL     1      41.530 -16.298  -0.381  1.00  0.00    -0.287 OA
HETATM   12  H   UNL     1      40.886 -14.599   4.595  1.00  0.00     0.155 HD
HETATM   13  H   UNL     1      42.845 -16.552   4.450  1.00  0.00     0.167 HD
ENDROOT
BRANCH   8  14
HETATM   14  C   UNL     1      43.446 -18.782   3.261  1.00  0.00    -0.009 A 
HETATM   15  C   UNL     1      43.715 -18.854   4.637  1.00  0.00     0.015 A 
HETATM   16  C   UNL     1      44.350 -19.976   5.180  1.00  0.00     0.024 A 
HETATM   17  C   UNL     1      44.715 -21.035   4.351  1.00  0.00     0.034 A 
HETATM   18 CL   UNL     1      45.494 -22.414   5.019  1.00  0.00    -0.084 Cl
HETATM   19  C   UNL     1      44.451 -20.982   2.985  1.00  0.00     0.024 A 
HETATM   20  C   UNL     1      43.818 -19.859   2.442  1.00  0.00     0.015 A 
ENDBRANCH   8  14
BRANCH   1  21
HETATM   21  C   UNL     1      40.292 -12.219   3.387  1.00  0.00     0.055 A 
HETATM   22  C   UNL     1      38.924 -11.935   3.283  1.00  0.00     0.031 A 
HETATM   23  C   UNL     1      38.401 -10.728   3.759  1.00  0.00     0.002 A 
HETATM   24  C   UNL     1      39.239  -9.784   4.343  1.00  0.00     0.000 A 
HETATM   25  C   UNL     1      40.602 -10.042   4.446  1.00  0.00     0.002 A 
HETATM   26  C   UNL     1      41.124 -11.249   3.972  1.00  0.00     0.031 A 
ENDBRANCH   1  21
TORSDOF 2
ENDMDL
