MODEL 1
REMARK VINA RESULT:      -7.8      0.000      0.000
REMARK  6 active torsions:
REMARK  status: ('A' for Active; 'I' for Inactive)
REMARK    1  A    between atoms: C_2  and  C_3 
REMARK    2  A    between atoms: C_3  and  C_4 
REMARK    3  A    between atoms: C_4  and  N_5 
REMARK       I    between atoms: N_5  and  C_6 
REMARK       I    between atoms: C_6  and  N_7 
REMARK    4  A    between atoms: N_7  and  C_8 
REMARK    5  A    between atoms: N_11  and  C_12 
REMARK    6  A    between atoms: C_15  and  O_16 
ROOT
HETATM    1  C   UNL     1      41.125 -13.647   5.011  1.00  0.00     0.123 C 
HETATM    2  C   UNL     1      42.017 -14.823   5.203  1.00  0.00     0.009 A 
HETATM    3  C   UNL     1      42.050 -15.922   4.362  1.00  0.00     0.047 A 
HETATM    4  N   UNL     1      43.093 -16.735   4.798  1.00  0.00    -0.238 N 
HETATM    5  N   UNL     1      43.684 -16.187   5.902  1.00  0.00    -0.179 NA
HETATM    6  C   UNL     1      43.046 -15.043   6.122  1.00  0.00     0.150 A 
HETATM    7  C   UNL     1      41.152 -16.106   3.180  1.00  0.00     0.069 C 
HETATM    8  C   UNL     1      40.377 -14.799   2.815  1.00  0.00    -0.040 C 
HETATM    9  C   UNL     1      39.115 -15.180   2.018  1.00  0.00     0.015 C 
HETATM   10  C   UNL     1      41.254 -13.902   1.917  1.00  0.00     0.015 C 
HETATM   11  C   UNL     1      39.941 -14.021   4.092  1.00  0.00     0.039 C 
ENDROOT
BRANCH   1  12
HETATM   12  N   UNL     1      40.653 -13.178   6.296  1.00  0.00    -0.334 N 
HETATM   13  C   UNL     1      40.950 -11.902   6.700  1.00  0.00     0.316 C 
HETATM   14  N   UNL     1      40.312 -11.582   7.872  1.00  0.00    -0.343 N 
HETATM   15  O   UNL     1      41.699 -11.150   6.091  1.00  0.00    -0.247 OA
HETATM   16  H   UNL     1      40.116 -12.378   8.460  1.00  0.00     0.164 HD
HETATM   17  H   UNL     1      39.796 -13.575   6.646  1.00  0.00     0.165 HD
BRANCH  14  18
HETATM   18  C   UNL     1      40.616 -10.344   8.566  1.00  0.00     0.124 C 
BRANCH  18  19
HETATM   19  C   UNL     1      41.430 -10.509   9.851  1.00  0.00     0.019 C 
BRANCH  19  20
HETATM   20  C   UNL     1      42.939 -10.449   9.617  1.00  0.00    -0.003 C 
HETATM   21  C   UNL     1      43.693 -10.296  10.930  1.00  0.00     0.005 C 
ENDBRANCH  19  20
ENDBRANCH  18  19
ENDBRANCH  14  18
ENDBRANCH   1  12
BRANCH   4  22
HETATM   22  C   UNL     1      43.631 -17.950   4.265  1.00  0.00     0.058 A 
HETATM   23  C   UNL     1      43.488 -18.201   2.889  1.00  0.00     0.034 A 
HETATM   24  C   UNL     1      43.929 -19.405   2.330  1.00  0.00     0.039 A 
HETATM   25  C   UNL     1      44.522 -20.382   3.127  1.00  0.00     0.068 A 
HETATM   26  C   UNL     1      44.712 -20.122   4.483  1.00  0.00     0.039 A 
HETATM   27  C   UNL     1      44.276 -18.912   5.048  1.00  0.00     0.034 A 
BRANCH  25  28
HETATM   28  O   UNL     1      44.883 -21.524   2.469  1.00  0.00    -0.356 OA
HETATM   29  C   UNL     1      44.029 -21.947   1.413  1.00  0.00     0.210 C 
ENDBRANCH  25  28
ENDBRANCH   4  22
TORSDOF 6
ENDMDL
MODEL 2
REMARK VINA RESULT:      -7.6      3.492      6.725
REMARK  6 active torsions:
REMARK  status: ('A' for Active; 'I' for Inactive)
REMARK    1  A    between atoms: C_2  and  C_3 
REMARK    2  A    between atoms: C_3  and  C_4 
REMARK    3  A    between atoms: C_4  and  N_5 
REMARK       I    between atoms: N_5  and  C_6 
REMARK       I    between atoms: C_6  and  N_7 
REMARK    4  A    between atoms: N_7  and  C_8 
REMARK    5  A    between atoms: N_11  and  C_12 
REMARK    6  A    between atoms: C_15  and  O_16 
ROOT
HETATM    1  C   UNL     1      40.126 -14.403   1.983  1.00  0.00     0.123 C 
HETATM    2  C   UNL     1      40.880 -15.685   1.928  1.00  0.00     0.009 A 
HETATM    3  C   UNL     1      41.790 -16.096   2.887  1.00  0.00     0.047 A 
HETATM    4  N   UNL     1      42.176 -17.390   2.550  1.00  0.00    -0.238 N 
HETATM    5  N   UNL     1      41.558 -17.779   1.395  1.00  0.00    -0.179 NA
HETATM    6  C   UNL     1      40.777 -16.762   1.045  1.00  0.00     0.150 A 
HETATM    7  C   UNL     1      42.186 -15.281   4.077  1.00  0.00     0.069 C 
HETATM    8  C   UNL     1      41.249 -14.048   4.289  1.00  0.00    -0.040 C 
HETATM    9  C   UNL     1      42.006 -12.991   5.118  1.00  0.00     0.015 C 
HETATM   10  C   UNL     1      39.998 -14.470   5.086  1.00  0.00     0.015 C 
HETATM   11  C   UNL     1      40.834 -13.410   2.931  1.00  0.00     0.039 C 
ENDROOT
BRANCH   1  12
HETATM   12  N   UNL     1      40.008 -13.849   0.651  1.00  0.00    -0.334 N 
HETATM   13  C   UNL     1      38.776 -13.781   0.054  1.00  0.00     0.316 C 
HETATM   14  N   UNL     1      38.830 -13.108  -1.140  1.00  0.00    -0.343 N 
HETATM   15  O   UNL     1      37.760 -14.270   0.529  1.00  0.00    -0.247 OA
HETATM   16  H   UNL     1      39.727 -13.161  -1.598  1.00  0.00     0.164 HD
HETATM   17  H   UNL     1      40.681 -13.149   0.381  1.00  0.00     0.165 HD
BRANCH  14  18
HETATM   18  C   UNL     1      37.675 -13.065  -2.019  1.00  0.00     0.124 C 
BRANCH  18  19
HETATM   19  C   UNL     1      37.918 -13.603  -3.430  1.00  0.00     0.019 C 
BRANCH  19  20
HETATM   20  C   UNL     1      37.580 -15.088  -3.572  1.00  0.00    -0.003 C 
HETATM   21  C   UNL     1      38.799 -15.889  -4.003  1.00  0.00     0.005 C 
ENDBRANCH  19  20
ENDBRANCH  18  19
ENDBRANCH  14  18
ENDBRANCH   1  12
BRANCH   4  22
HETATM   22  C   UNL     1      43.029 -18.326   3.218  1.00  0.00     0.058 A 
HETATM   23  C   UNL     1      43.724 -19.272   2.445  1.00  0.00     0.034 A 
HETATM   24  C   UNL     1      44.512 -20.256   3.052  1.00  0.00     0.039 A 
HETATM   25  C   UNL     1      44.626 -20.316   4.440  1.00  0.00     0.068 A 
HETATM   26  C   UNL     1      43.981 -19.353   5.213  1.00  0.00     0.039 A 
HETATM   27  C   UNL     1      43.192 -18.360   4.607  1.00  0.00     0.034 A 
BRANCH  25  28
HETATM   28  O   UNL     1      45.399 -21.339   4.912  1.00  0.00    -0.356 OA
HETATM   29  C   UNL     1      44.857 -22.650   4.806  1.00  0.00     0.210 C 
ENDBRANCH  25  28
ENDBRANCH   4  22
TORSDOF 6
ENDMDL
MODEL 3
REMARK VINA RESULT:      -7.3      3.242      5.692
REMARK  6 active torsions:
REMARK  status: ('A' for Active; 'I' for Inactive)
REMARK    1  A    between atoms: C_2  and  C_3 
REMARK    2  A    between atoms: C_3  and  C_4 
REMARK    3  A    between atoms: C_4  and  N_5 
REMARK       I    between atoms: N_5  and  C_6 
REMARK       I    between atoms: C_6  and  N_7 
REMARK    4  A    between atoms: N_7  and  C_8 
REMARK    5  A    between atoms: N_11  and  C_12 
REMARK    6  A    between atoms: C_15  and  O_16 
ROOT
HETATM    1  C   UNL     1      42.277 -13.826   3.122  1.00  0.00     0.123 C 
HETATM    2  C   UNL     1      42.595 -15.158   2.540  1.00  0.00     0.009 A 
HETATM    3  C   UNL     1      43.097 -16.226   3.265  1.00  0.00     0.047 A 
HETATM    4  N   UNL     1      43.134 -17.319   2.403  1.00  0.00    -0.238 N 
HETATM    5  N   UNL     1      42.701 -16.951   1.160  1.00  0.00    -0.179 NA
HETATM    6  C   UNL     1      42.368 -15.668   1.260  1.00  0.00     0.150 A 
HETATM    7  C   UNL     1      43.446 -16.168   4.718  1.00  0.00     0.069 C 
HETATM    8  C   UNL     1      42.909 -14.871   5.406  1.00  0.00    -0.040 C 
HETATM    9  C   UNL     1      43.747 -14.601   6.671  1.00  0.00     0.015 C 
HETATM   10  C   UNL     1      41.444 -15.076   5.841  1.00  0.00     0.015 C 
HETATM   11  C   UNL     1      43.024 -13.639   4.462  1.00  0.00     0.039 C 
ENDROOT
BRANCH   1  12
HETATM   12  N   UNL     1      42.636 -12.786   2.182  1.00  0.00    -0.334 N 
HETATM   13  C   UNL     1      41.647 -12.097   1.527  1.00  0.00     0.316 C 
HETATM   14  N   UNL     1      42.159 -11.063   0.785  1.00  0.00    -0.343 N 
HETATM   15  O   UNL     1      40.459 -12.380   1.594  1.00  0.00    -0.247 OA
HETATM   16  H   UNL     1      43.107 -11.215   0.472  1.00  0.00     0.164 HD
HETATM   17  H   UNL     1      43.498 -12.291   2.347  1.00  0.00     0.165 HD
BRANCH  14  18
HETATM   18  C   UNL     1      41.310 -10.309  -0.120  1.00  0.00     0.124 C 
BRANCH  18  19
HETATM   19  C   UNL     1      41.847 -10.173  -1.546  1.00  0.00     0.019 C 
BRANCH  19  20
HETATM   20  C   UNL     1      42.887 -11.237  -1.899  1.00  0.00    -0.003 C 
HETATM   21  C   UNL     1      42.480 -12.010  -3.144  1.00  0.00     0.005 C 
ENDBRANCH  19  20
ENDBRANCH  18  19
ENDBRANCH  14  18
ENDBRANCH   1  12
BRANCH   4  22
HETATM   22  C   UNL     1      43.487 -18.688   2.628  1.00  0.00     0.058 A 
HETATM   23  C   UNL     1      44.133 -19.026   3.829  1.00  0.00     0.034 A 
HETATM   24  C   UNL     1      44.566 -20.335   4.067  1.00  0.00     0.039 A 
HETATM   25  C   UNL     1      44.363 -21.333   3.116  1.00  0.00     0.068 A 
HETATM   26  C   UNL     1      43.680 -21.018   1.943  1.00  0.00     0.039 A 
HETATM   27  C   UNL     1      43.239 -19.706   1.702  1.00  0.00     0.034 A 
BRANCH  25  28
HETATM   28  O   UNL     1      44.857 -22.561   3.453  1.00  0.00    -0.356 OA
HETATM   29  C   UNL     1      45.045 -22.814   4.841  1.00  0.00     0.210 C 
ENDBRANCH  25  28
ENDBRANCH   4  22
TORSDOF 6
ENDMDL
MODEL 4
REMARK VINA RESULT:      -7.2      4.342      6.258
REMARK  6 active torsions:
REMARK  status: ('A' for Active; 'I' for Inactive)
REMARK    1  A    between atoms: C_2  and  C_3 
REMARK    2  A    between atoms: C_3  and  C_4 
REMARK    3  A    between atoms: C_4  and  N_5 
REMARK       I    between atoms: N_5  and  C_6 
REMARK       I    between atoms: C_6  and  N_7 
REMARK    4  A    between atoms: N_7  and  C_8 
REMARK    5  A    between atoms: N_11  and  C_12 
REMARK    6  A    between atoms: C_15  and  O_16 
ROOT
HETATM    1  C   UNL     1      39.323 -13.619   0.140  1.00  0.00     0.123 C 
HETATM    2  C   UNL     1      39.875 -14.547   1.164  1.00  0.00     0.009 A 
HETATM    3  C   UNL     1      40.798 -15.544   0.897  1.00  0.00     0.047 A 
HETATM    4  N   UNL     1      41.161 -16.099   2.121  1.00  0.00    -0.238 N 
HETATM    5  N   UNL     1      40.467 -15.497   3.133  1.00  0.00    -0.179 NA
HETATM    6  C   UNL     1      39.719 -14.565   2.553  1.00  0.00     0.150 A 
HETATM    7  C   UNL     1      41.319 -15.866  -0.467  1.00  0.00     0.069 C 
HETATM    8  C   UNL     1      40.945 -14.770  -1.518  1.00  0.00    -0.040 C 
HETATM    9  C   UNL     1      40.994 -15.400  -2.924  1.00  0.00     0.015 C 
HETATM   10  C   UNL     1      41.977 -13.625  -1.474  1.00  0.00     0.015 C 
HETATM   11  C   UNL     1      39.512 -14.214  -1.273  1.00  0.00     0.039 C 
ENDROOT
BRANCH   1  12
HETATM   12  N   UNL     1      37.923 -13.370   0.412  1.00  0.00    -0.334 N 
HETATM   13  C   UNL     1      37.487 -12.082   0.584  1.00  0.00     0.316 C 
HETATM   14  N   UNL     1      36.121 -12.022   0.695  1.00  0.00    -0.343 N 
HETATM   15  O   UNL     1      38.231 -11.112   0.640  1.00  0.00    -0.247 OA
HETATM   16  H   UNL     1      35.705 -12.862   1.069  1.00  0.00     0.164 HD
HETATM   17  H   UNL     1      37.256 -14.027   0.040  1.00  0.00     0.165 HD
BRANCH  14  18
HETATM   18  C   UNL     1      35.461 -10.779   1.051  1.00  0.00     0.124 C 
BRANCH  18  19
HETATM   19  C   UNL     1      33.966 -10.728   0.730  1.00  0.00     0.019 C 
BRANCH  19  20
HETATM   20  C   UNL     1      33.109 -10.323   1.930  1.00  0.00    -0.003 C 
HETATM   21  C   UNL     1      31.645 -10.666   1.699  1.00  0.00     0.005 C 
ENDBRANCH  19  20
ENDBRANCH  18  19
ENDBRANCH  14  18
ENDBRANCH   1  12
BRANCH   4  22
HETATM   22  C   UNL     1      42.125 -17.103   2.455  1.00  0.00     0.058 A 
HETATM   23  C   UNL     1      42.146 -18.290   1.702  1.00  0.00     0.034 A 
HETATM   24  C   UNL     1      43.017 -19.333   2.032  1.00  0.00     0.039 A 
HETATM   25  C   UNL     1      43.886 -19.216   3.115  1.00  0.00     0.068 A 
HETATM   26  C   UNL     1      43.908 -18.024   3.837  1.00  0.00     0.039 A 
HETATM   27  C   UNL     1      43.038 -16.971   3.505  1.00  0.00     0.034 A 
BRANCH  25  28
HETATM   28  O   UNL     1      44.665 -20.313   3.353  1.00  0.00    -0.356 OA
HETATM   29  C   UNL     1      44.388 -21.472   2.575  1.00  0.00     0.210 C 
ENDBRANCH  25  28
ENDBRANCH   4  22
TORSDOF 6
ENDMDL
MODEL 5
REMARK VINA RESULT:      -7.2      4.083      8.477
REMARK  6 active torsions:
REMARK  status: ('A' for Active; 'I' for Inactive)
REMARK    1  A    between atoms: C_2  and  C_3 
REMARK    2  A    between atoms: C_3  and  C_4 
REMARK    3  A    between atoms: C_4  and  N_5 
REMARK       I    between atoms: N_5  and  C_6 
REMARK       I    between atoms: C_6  and  N_7 
REMARK    4  A    between atoms: N_7  and  C_8 
REMARK    5  A    between atoms: N_11  and  C_12 
REMARK    6  A    between atoms: C_15  and  O_16 
ROOT
HETATM    1  C   UNL     1      41.733 -15.738   0.565  1.00  0.00     0.123 C 
HETATM    2  C   UNL     1      41.920 -14.783   1.691  1.00  0.00     0.009 A 
HETATM    3  C   UNL     1      42.461 -15.122   2.920  1.00  0.00     0.047 A 
HETATM    4  N   UNL     1      42.590 -13.942   3.646  1.00  0.00    -0.238 N 
HETATM    5  N   UNL     1      42.116 -12.888   2.916  1.00  0.00    -0.179 NA
HETATM    6  C   UNL     1      41.736 -13.399   1.749  1.00  0.00     0.150 A 
HETATM    7  C   UNL     1      42.873 -16.507   3.305  1.00  0.00     0.069 C 
HETATM    8  C   UNL     1      42.911 -17.477   2.079  1.00  0.00    -0.040 C 
HETATM    9  C   UNL     1      42.777 -18.924   2.592  1.00  0.00     0.015 C 
HETATM   10  C   UNL     1      44.266 -17.353   1.353  1.00  0.00     0.015 C 
HETATM   11  C   UNL     1      41.742 -17.190   1.092  1.00  0.00     0.039 C 
ENDROOT
BRANCH   1  12
HETATM   12  N   UNL     1      40.492 -15.445  -0.120  1.00  0.00    -0.334 N 
HETATM   13  C   UNL     1      40.526 -14.841  -1.351  1.00  0.00     0.316 C 
HETATM   14  N   UNL     1      39.276 -14.765  -1.911  1.00  0.00    -0.343 N 
HETATM   15  O   UNL     1      41.547 -14.416  -1.874  1.00  0.00    -0.247 OA
HETATM   16  H   UNL     1      38.527 -14.731  -1.234  1.00  0.00     0.164 HD
HETATM   17  H   UNL     1      39.709 -16.052   0.064  1.00  0.00     0.165 HD
BRANCH  14  18
HETATM   18  C   UNL     1      39.056 -14.014  -3.133  1.00  0.00     0.124 C 
BRANCH  18  19
HETATM   19  C   UNL     1      37.602 -13.619  -3.395  1.00  0.00     0.019 C 
BRANCH  19  20
HETATM   20  C   UNL     1      36.820 -14.683  -4.166  1.00  0.00    -0.003 C 
HETATM   21  C   UNL     1      35.606 -14.080  -4.856  1.00  0.00     0.005 C 
ENDBRANCH  19  20
ENDBRANCH  18  19
ENDBRANCH  14  18
ENDBRANCH   1  12
BRANCH   4  22
HETATM   22  C   UNL     1      43.154 -13.682   4.936  1.00  0.00     0.058 A 
HETATM   23  C   UNL     1      44.421 -14.213   5.233  1.00  0.00     0.034 A 
HETATM   24  C   UNL     1      44.986 -14.053   6.503  1.00  0.00     0.039 A 
HETATM   25  C   UNL     1      44.304 -13.360   7.500  1.00  0.00     0.068 A 
HETATM   26  C   UNL     1      43.069 -12.788   7.200  1.00  0.00     0.039 A 
HETATM   27  C   UNL     1      42.500 -12.942   5.925  1.00  0.00     0.034 A 
BRANCH  25  28
HETATM   28  O   UNL     1      44.947 -13.297   8.704  1.00  0.00    -0.356 OA
HETATM   29  C   UNL     1      44.792 -12.094   9.447  1.00  0.00     0.210 C 
ENDBRANCH  25  28
ENDBRANCH   4  22
TORSDOF 6
ENDMDL
MODEL 6
REMARK VINA RESULT:      -7.0      1.253      2.069
REMARK  6 active torsions:
REMARK  status: ('A' for Active; 'I' for Inactive)
REMARK    1  A    between atoms: C_2  and  C_3 
REMARK    2  A    between atoms: C_3  and  C_4 
REMARK    3  A    between atoms: C_4  and  N_5 
REMARK       I    between atoms: N_5  and  C_6 
REMARK       I    between atoms: C_6  and  N_7 
REMARK    4  A    between atoms: N_7  and  C_8 
REMARK    5  A    between atoms: N_11  and  C_12 
REMARK    6  A    between atoms: C_15  and  O_16 
ROOT
HETATM    1  C   UNL     1      41.978 -12.814   5.527  1.00  0.00     0.123 C 
HETATM    2  C   UNL     1      42.656 -14.138   5.563  1.00  0.00     0.009 A 
HETATM    3  C   UNL     1      42.443 -15.149   4.641  1.00  0.00     0.047 A 
HETATM    4  N   UNL     1      43.349 -16.164   4.936  1.00  0.00    -0.238 N 
HETATM    5  N   UNL     1      44.094 -15.825   6.031  1.00  0.00    -0.179 NA
HETATM    6  C   UNL     1      43.683 -14.611   6.384  1.00  0.00     0.150 A 
HETATM    7  C   UNL     1      41.457 -15.072   3.519  1.00  0.00     0.069 C 
HETATM    8  C   UNL     1      40.906 -13.624   3.313  1.00  0.00    -0.040 C 
HETATM    9  C   UNL     1      39.550 -13.712   2.585  1.00  0.00     0.015 C 
HETATM   10  C   UNL     1      41.872 -12.817   2.422  1.00  0.00     0.015 C 
HETATM   11  C   UNL     1      40.693 -12.898   4.673  1.00  0.00     0.039 C 
ENDROOT
BRANCH   1  12
HETATM   12  N   UNL     1      41.674 -12.385   6.875  1.00  0.00    -0.334 N 
HETATM   13  C   UNL     1      41.623 -11.045   7.162  1.00  0.00     0.316 C 
HETATM   14  N   UNL     1      41.190 -10.820   8.445  1.00  0.00    -0.343 N 
HETATM   15  O   UNL     1      41.934 -10.166   6.371  1.00  0.00    -0.247 OA
HETATM   16  H   UNL     1      41.398 -11.574   9.083  1.00  0.00     0.164 HD
HETATM   17  H   UNL     1      41.092 -12.990   7.432  1.00  0.00     0.165 HD
BRANCH  14  18
HETATM   18  C   UNL     1      41.221  -9.485   9.013  1.00  0.00     0.124 C 
BRANCH  18  19
HETATM   19  C   UNL     1      39.851  -8.897   9.355  1.00  0.00     0.019 C 
BRANCH  19  20
HETATM   20  C   UNL     1      39.382  -7.844   8.350  1.00  0.00    -0.003 C 
HETATM   21  C   UNL     1      38.745  -8.495   7.131  1.00  0.00     0.005 C 
ENDBRANCH  19  20
ENDBRANCH  18  19
ENDBRANCH  14  18
ENDBRANCH   1  12
BRANCH   4  22
HETATM   22  C   UNL     1      43.630 -17.403   4.274  1.00  0.00     0.058 A 
HETATM   23  C   UNL     1      43.899 -18.537   5.059  1.00  0.00     0.034 A 
HETATM   24  C   UNL     1      44.251 -19.753   4.465  1.00  0.00     0.039 A 
HETATM   25  C   UNL     1      44.340 -19.866   3.079  1.00  0.00     0.068 A 
HETATM   26  C   UNL     1      44.027 -18.760   2.291  1.00  0.00     0.039 A 
HETATM   27  C   UNL     1      43.668 -17.537   2.883  1.00  0.00     0.034 A 
BRANCH  25  28
HETATM   28  O   UNL     1      44.722 -21.096   2.622  1.00  0.00    -0.356 OA
HETATM   29  C   UNL     1      43.831 -21.746   1.723  1.00  0.00     0.210 C 
ENDBRANCH  25  28
ENDBRANCH   4  22
TORSDOF 6
ENDMDL
MODEL 7
REMARK VINA RESULT:      -6.9      3.268      6.965
REMARK  6 active torsions:
REMARK  status: ('A' for Active; 'I' for Inactive)
REMARK    1  A    between atoms: C_2  and  C_3 
REMARK    2  A    between atoms: C_3  and  C_4 
REMARK    3  A    between atoms: C_4  and  N_5 
REMARK       I    between atoms: N_5  and  C_6 
REMARK       I    between atoms: C_6  and  N_7 
REMARK    4  A    between atoms: N_7  and  C_8 
REMARK    5  A    between atoms: N_11  and  C_12 
REMARK    6  A    between atoms: C_15  and  O_16 
ROOT
HETATM    1  C   UNL     1      41.622 -14.812   5.646  1.00  0.00     0.123 C 
HETATM    2  C   UNL     1      41.130 -15.188   4.293  1.00  0.00     0.009 A 
HETATM    3  C   UNL     1      40.286 -14.405   3.524  1.00  0.00     0.047 A 
HETATM    4  N   UNL     1      40.165 -15.032   2.288  1.00  0.00    -0.238 N 
HETATM    5  N   UNL     1      40.881 -16.196   2.280  1.00  0.00    -0.179 NA
HETATM    6  C   UNL     1      41.464 -16.268   3.473  1.00  0.00     0.150 A 
HETATM    7  C   UNL     1      39.705 -13.102   3.973  1.00  0.00     0.069 C 
HETATM    8  C   UNL     1      40.382 -12.569   5.277  1.00  0.00    -0.040 C 
HETATM    9  C   UNL     1      39.412 -11.593   5.973  1.00  0.00     0.015 C 
HETATM   10  C   UNL     1      41.666 -11.791   4.923  1.00  0.00     0.015 C 
HETATM   11  C   UNL     1      40.709 -13.729   6.262  1.00  0.00     0.039 C 
ENDROOT
BRANCH   1  12
HETATM   12  N   UNL     1      41.673 -15.986   6.490  1.00  0.00    -0.334 N 
HETATM   13  C   UNL     1      42.889 -16.500   6.862  1.00  0.00     0.316 C 
HETATM   14  N   UNL     1      42.750 -17.521   7.767  1.00  0.00    -0.343 N 
HETATM   15  O   UNL     1      43.960 -16.098   6.428  1.00  0.00    -0.247 OA
HETATM   16  H   UNL     1      41.876 -18.019   7.690  1.00  0.00     0.164 HD
HETATM   17  H   UNL     1      40.908 -16.128   7.131  1.00  0.00     0.165 HD
BRANCH  14  18
HETATM   18  C   UNL     1      43.897 -18.318   8.165  1.00  0.00     0.124 C 
BRANCH  18  19
HETATM   19  C   UNL     1      43.850 -19.782   7.722  1.00  0.00     0.019 C 
BRANCH  19  20
HETATM   20  C   UNL     1      43.727 -19.946   6.207  1.00  0.00    -0.003 C 
HETATM   21  C   UNL     1      44.920 -19.333   5.490  1.00  0.00     0.005 C 
ENDBRANCH  19  20
ENDBRANCH  18  19
ENDBRANCH  14  18
ENDBRANCH   1  12
BRANCH   4  22
HETATM   22  C   UNL     1      39.486 -14.638   1.090  1.00  0.00     0.058 A 
HETATM   23  C   UNL     1      40.231 -14.527  -0.097  1.00  0.00     0.034 A 
HETATM   24  C   UNL     1      39.633 -14.074  -1.278  1.00  0.00     0.039 A 
HETATM   25  C   UNL     1      38.285 -13.726  -1.303  1.00  0.00     0.068 A 
HETATM   26  C   UNL     1      37.527 -13.879  -0.143  1.00  0.00     0.039 A 
HETATM   27  C   UNL     1      38.122 -14.338   1.044  1.00  0.00     0.034 A 
BRANCH  25  28
HETATM   28  O   UNL     1      37.827 -13.271  -2.507  1.00  0.00    -0.356 OA
HETATM   29  C   UNL     1      37.549 -14.255  -3.496  1.00  0.00     0.210 C 
ENDBRANCH  25  28
ENDBRANCH   4  22
TORSDOF 6
ENDMDL
MODEL 8
REMARK VINA RESULT:      -6.8      3.251      7.841
REMARK  6 active torsions:
REMARK  status: ('A' for Active; 'I' for Inactive)
REMARK    1  A    between atoms: C_2  and  C_3 
REMARK    2  A    between atoms: C_3  and  C_4 
REMARK    3  A    between atoms: C_4  and  N_5 
REMARK       I    between atoms: N_5  and  C_6 
REMARK       I    between atoms: C_6  and  N_7 
REMARK    4  A    between atoms: N_7  and  C_8 
REMARK    5  A    between atoms: N_11  and  C_12 
REMARK    6  A    between atoms: C_15  and  O_16 
ROOT
HETATM    1  C   UNL     1      41.888 -16.059   4.879  1.00  0.00     0.123 C 
HETATM    2  C   UNL     1      41.387 -16.021   3.478  1.00  0.00     0.009 A 
HETATM    3  C   UNL     1      40.530 -15.053   2.983  1.00  0.00     0.047 A 
HETATM    4  N   UNL     1      40.403 -15.285   1.616  1.00  0.00    -0.238 N 
HETATM    5  N   UNL     1      41.131 -16.386   1.257  1.00  0.00    -0.179 NA
HETATM    6  C   UNL     1      41.724 -16.804   2.371  1.00  0.00     0.150 A 
HETATM    7  C   UNL     1      39.941 -13.950   3.803  1.00  0.00     0.069 C 
HETATM    8  C   UNL     1      40.625 -13.823   5.203  1.00  0.00    -0.040 C 
HETATM    9  C   UNL     1      39.652 -13.109   6.163  1.00  0.00     0.015 C 
HETATM   10  C   UNL     1      41.898 -12.960   5.089  1.00  0.00     0.015 C 
HETATM   11  C   UNL     1      40.971 -15.220   5.795  1.00  0.00     0.039 C 
ENDROOT
BRANCH   1  12
HETATM   12  N   UNL     1      41.957 -17.432   5.334  1.00  0.00    -0.334 N 
HETATM   13  C   UNL     1      43.178 -17.991   5.613  1.00  0.00     0.316 C 
HETATM   14  N   UNL     1      43.047 -19.242   6.160  1.00  0.00    -0.343 N 
HETATM   15  O   UNL     1      44.247 -17.440   5.390  1.00  0.00    -0.247 OA
HETATM   16  H   UNL     1      42.204 -19.723   5.881  1.00  0.00     0.164 HD
HETATM   17  H   UNL     1      41.169 -17.786   5.852  1.00  0.00     0.165 HD
BRANCH  14  18
HETATM   18  C   UNL     1      44.211 -20.082   6.374  1.00  0.00     0.124 C 
BRANCH  18  19
HETATM   19  C   UNL     1      44.470 -21.117   5.278  1.00  0.00     0.019 C 
BRANCH  19  20
HETATM   20  C   UNL     1      45.216 -20.542   4.074  1.00  0.00    -0.003 C 
HETATM   21  C   UNL     1      44.269 -20.293   2.910  1.00  0.00     0.005 C 
ENDBRANCH  19  20
ENDBRANCH  18  19
ENDBRANCH  14  18
ENDBRANCH   1  12
BRANCH   4  22
HETATM   22  C   UNL     1      39.711 -14.560   0.594  1.00  0.00     0.058 A 
HETATM   23  C   UNL     1      38.388 -14.154   0.838  1.00  0.00     0.034 A 
HETATM   24  C   UNL     1      37.641 -13.508  -0.153  1.00  0.00     0.039 A 
HETATM   25  C   UNL     1      38.197 -13.250  -1.404  1.00  0.00     0.068 A 
HETATM   26  C   UNL     1      39.524 -13.604  -1.639  1.00  0.00     0.039 A 
HETATM   27  C   UNL     1      40.279 -14.249  -0.645  1.00  0.00     0.034 A 
BRANCH  25  28
HETATM   28  O   UNL     1      37.359 -12.640  -2.294  1.00  0.00    -0.356 OA
HETATM   29  C   UNL     1      36.671 -11.483  -1.833  1.00  0.00     0.210 C 
ENDBRANCH  25  28
ENDBRANCH   4  22
TORSDOF 6
ENDMDL
MODEL 9
REMARK VINA RESULT:      -6.8      4.424      8.902
REMARK  6 active torsions:
REMARK  status: ('A' for Active; 'I' for Inactive)
REMARK    1  A    between atoms: C_2  and  C_3 
REMARK    2  A    between atoms: C_3  and  C_4 
REMARK    3  A    between atoms: C_4  and  N_5 
REMARK       I    between atoms: N_5  and  C_6 
REMARK       I    between atoms: C_6  and  N_7 
REMARK    4  A    between atoms: N_7  and  C_8 
REMARK    5  A    between atoms: N_11  and  C_12 
REMARK    6  A    between atoms: C_15  and  O_16 
ROOT
HETATM    1  C   UNL     1      41.500 -15.347   2.485  1.00  0.00     0.123 C 
HETATM    2  C   UNL     1      41.049 -15.258   1.069  1.00  0.00     0.009 A 
HETATM    3  C   UNL     1      40.183 -14.293   0.586  1.00  0.00     0.047 A 
HETATM    4  N   UNL     1      40.113 -14.466  -0.794  1.00  0.00    -0.238 N 
HETATM    5  N   UNL     1      40.884 -15.528  -1.174  1.00  0.00    -0.179 NA
HETATM    6  C   UNL     1      41.449 -15.980  -0.059  1.00  0.00     0.150 A 
HETATM    7  C   UNL     1      39.532 -13.245   1.432  1.00  0.00     0.069 C 
HETATM    8  C   UNL     1      40.161 -13.163   2.861  1.00  0.00    -0.040 C 
HETATM    9  C   UNL     1      39.133 -12.522   3.814  1.00  0.00     0.015 C 
HETATM   10  C   UNL     1      41.412 -12.261   2.834  1.00  0.00     0.015 C 
HETATM   11  C   UNL     1      40.526 -14.576   3.402  1.00  0.00     0.039 C 
ENDROOT
BRANCH   1  12
HETATM   12  N   UNL     1      41.592 -16.736   2.880  1.00  0.00    -0.334 N 
HETATM   13  C   UNL     1      42.763 -17.211   3.413  1.00  0.00     0.316 C 
HETATM   14  N   UNL     1      42.629 -18.502   3.856  1.00  0.00    -0.343 N 
HETATM   15  O   UNL     1      43.798 -16.560   3.474  1.00  0.00    -0.247 OA
HETATM   16  H   UNL     1      41.924 -19.031   3.365  1.00  0.00     0.164 HD
HETATM   17  H   UNL     1      40.743 -17.188   3.181  1.00  0.00     0.165 HD
BRANCH  14  18
HETATM   18  C   UNL     1      43.787 -19.256   4.301  1.00  0.00     0.124 C 
BRANCH  18  19
HETATM   19  C   UNL     1      44.524 -20.018   3.197  1.00  0.00     0.019 C 
BRANCH  19  20
HETATM   20  C   UNL     1      43.601 -20.478   2.068  1.00  0.00    -0.003 C 
HETATM   21  C   UNL     1      43.971 -21.875   1.593  1.00  0.00     0.005 C 
ENDBRANCH  19  20
ENDBRANCH  18  19
ENDBRANCH  14  18
ENDBRANCH   1  12
BRANCH   4  22
HETATM   22  C   UNL     1      39.437 -13.713  -1.808  1.00  0.00     0.058 A 
HETATM   23  C   UNL     1      40.123 -12.654  -2.426  1.00  0.00     0.034 A 
HETATM   24  C   UNL     1      39.486 -11.840  -3.369  1.00  0.00     0.039 A 
HETATM   25  C   UNL     1      38.155 -12.065  -3.716  1.00  0.00     0.068 A 
HETATM   26  C   UNL     1      37.482 -13.143  -3.145  1.00  0.00     0.039 A 
HETATM   27  C   UNL     1      38.120 -13.966  -2.201  1.00  0.00     0.034 A 
BRANCH  25  28
HETATM   28  O   UNL     1      37.638 -11.186  -4.625  1.00  0.00    -0.356 OA
HETATM   29  C   UNL     1      38.399 -10.011  -4.879  1.00  0.00     0.210 C 
ENDBRANCH  25  28
ENDBRANCH   4  22
TORSDOF 6
ENDMDL
MODEL 10
REMARK VINA RESULT:      -6.7      3.978      9.041
REMARK  6 active torsions:
REMARK  status: ('A' for Active; 'I' for Inactive)
REMARK    1  A    between atoms: C_2  and  C_3 
REMARK    2  A    between atoms: C_3  and  C_4 
REMARK    3  A    between atoms: C_4  and  N_5 
REMARK       I    between atoms: N_5  and  C_6 
REMARK       I    between atoms: C_6  and  N_7 
REMARK    4  A    between atoms: N_7  and  C_8 
REMARK    5  A    between atoms: N_11  and  C_12 
REMARK    6  A    between atoms: C_15  and  O_16 
ROOT
HETATM    1  C   UNL     1      42.245 -17.480   2.897  1.00  0.00     0.123 C 
HETATM    2  C   UNL     1      41.512 -16.652   1.902  1.00  0.00     0.009 A 
HETATM    3  C   UNL     1      40.713 -15.569   2.226  1.00  0.00     0.047 A 
HETATM    4  N   UNL     1      40.316 -14.985   1.026  1.00  0.00    -0.238 N 
HETATM    5  N   UNL     1      40.818 -15.693  -0.029  1.00  0.00    -0.179 NA
HETATM    6  C   UNL     1      41.541 -16.672   0.505  1.00  0.00     0.150 A 
HETATM    7  C   UNL     1      40.429 -15.120   3.624  1.00  0.00     0.069 C 
HETATM    8  C   UNL     1      41.361 -15.812   4.670  1.00  0.00    -0.040 C 
HETATM    9  C   UNL     1      40.677 -15.762   6.050  1.00  0.00     0.015 C 
HETATM   10  C   UNL     1      42.695 -15.045   4.773  1.00  0.00     0.015 C 
HETATM   11  C   UNL     1      41.623 -17.302   4.299  1.00  0.00     0.039 C 
ENDROOT
BRANCH   1  12
HETATM   12  N   UNL     1      42.215 -18.870   2.492  1.00  0.00    -0.334 N 
HETATM   13  C   UNL     1      43.390 -19.517   2.211  1.00  0.00     0.316 C 
HETATM   14  N   UNL     1      43.187 -20.854   1.980  1.00  0.00    -0.343 N 
HETATM   15  O   UNL     1      44.480 -18.963   2.166  1.00  0.00    -0.247 OA
HETATM   16  H   UNL     1      42.270 -21.071   1.619  1.00  0.00     0.164 HD
HETATM   17  H   UNL     1      41.459 -19.436   2.842  1.00  0.00     0.165 HD
BRANCH  14  18
HETATM   18  C   UNL     1      44.269 -21.695   1.500  1.00  0.00     0.124 C 
BRANCH  18  19
HETATM   19  C   UNL     1      45.025 -22.458   2.590  1.00  0.00     0.019 C 
BRANCH  19  20
HETATM   20  C   UNL     1      44.272 -22.508   3.919  1.00  0.00    -0.003 C 
HETATM   21  C   UNL     1      45.013 -21.733   4.999  1.00  0.00     0.005 C 
ENDBRANCH  19  20
ENDBRANCH  18  19
ENDBRANCH  14  18
ENDBRANCH   1  12
BRANCH   4  22
HETATM   22  C   UNL     1      39.553 -13.804   0.757  1.00  0.00     0.058 A 
HETATM   23  C   UNL     1      38.168 -13.829   0.998  1.00  0.00     0.034 A 
HETATM   24  C   UNL     1      37.365 -12.728   0.683  1.00  0.00     0.039 A 
HETATM   25  C   UNL     1      37.923 -11.580   0.124  1.00  0.00     0.068 A 
HETATM   26  C   UNL     1      39.301 -11.526  -0.072  1.00  0.00     0.039 A 
HETATM   27  C   UNL     1      40.113 -12.628   0.248  1.00  0.00     0.034 A 
BRANCH  25  28
HETATM   28  O   UNL     1      37.031 -10.586  -0.165  1.00  0.00    -0.356 OA
HETATM   29  C   UNL     1      37.568  -9.281  -0.349  1.00  0.00     0.210 C 
ENDBRANCH  25  28
ENDBRANCH   4  22
TORSDOF 6
ENDMDL
