MODEL 1
REMARK VINA RESULT:      -8.7      0.000      0.000
REMARK  7 active torsions:
REMARK  status: ('A' for Active; 'I' for Inactive)
REMARK    1  A    between atoms: C_7  and  C_8 
REMARK    2  A    between atoms: C_8  and  C_9 
REMARK    3  A    between atoms: C_9  and  N_10 
REMARK    4  A    between atoms: N_10  and  C_11 
REMARK    5  A    between atoms: C_11  and  N_12 
REMARK    6  A    between atoms: N_12  and  C_13 
REMARK    7  A    between atoms: C_30  and  C_31 
ROOT
HETATM    1  C   UNL     1      40.685 -13.530   1.192  1.00  0.00     0.123 C 
HETATM    2  C   UNL     1      41.229 -13.143  -0.004  1.00  0.00     0.144 C 
HETATM    3  C   UNL     1      40.990 -13.925  -1.244  1.00  0.00     0.270 C 
HETATM    4  O   UNL     1      40.520 -15.063  -1.222  1.00  0.00    -0.267 OA
HETATM    5  N   UNL     1      41.351 -13.302  -2.425  1.00  0.00    -0.270 N 
HETATM    6  C   UNL     1      40.977 -13.954  -3.667  1.00  0.00     0.164 C 
HETATM    7  C   UNL     1      42.249 -12.252  -2.515  1.00  0.00     0.333 C 
HETATM    8  O   UNL     1      42.660 -11.847  -3.604  1.00  0.00    -0.246 OA
HETATM    9  N   UNL     1      42.661 -11.682  -1.323  1.00  0.00    -0.270 N 
HETATM   10  C   UNL     1      43.577 -10.557  -1.405  1.00  0.00     0.164 C 
HETATM   11  C   UNL     1      42.073 -11.922  -0.095  1.00  0.00     0.270 C 
HETATM   12  O   UNL     1      42.211 -11.152   0.858  1.00  0.00    -0.267 OA
ENDROOT
BRANCH   1  13
HETATM   13  N   UNL     1      39.809 -14.618   1.270  1.00  0.00    -0.375 N 
HETATM   14  H   UNL     1      38.858 -14.398   0.957  1.00  0.00     0.161 HD
BRANCH  13  15
HETATM   15  C   UNL     1      39.868 -15.625   2.332  1.00  0.00     0.126 C 
BRANCH  15  16
HETATM   16  C   UNL     1      40.657 -16.870   1.905  1.00  0.00     0.061 C 
BRANCH  16  17
HETATM   17  C   UNL     1      41.818 -17.187   2.808  1.00  0.00    -0.022 A 
HETATM   18  C   UNL     1      43.095 -17.552   2.410  1.00  0.00     0.013 A 
HETATM   19  C   UNL     1      43.678 -17.735   1.055  1.00  0.00     0.068 C 
HETATM   20  N   UNL     1      43.848 -17.743   3.541  1.00  0.00    -0.358 N 
HETATM   21  H   UNL     1      44.823 -18.016   3.549  1.00  0.00     0.166 HD
HETATM   22  C   UNL     1      43.091 -17.536   4.673  1.00  0.00     0.058 A 
HETATM   23  C   UNL     1      41.809 -17.197   4.243  1.00  0.00    -0.000 A 
HETATM   24  C   UNL     1      43.452 -17.631   6.034  1.00  0.00     0.075 A 
HETATM   25  C   UNL     1      40.820 -16.947   5.214  1.00  0.00     0.014 A 
HETATM   26  C   UNL     1      41.142 -17.031   6.571  1.00  0.00     0.002 A 
HETATM   27  C   UNL     1      42.434 -17.363   6.970  1.00  0.00     0.018 A 
BRANCH  24  28
HETATM   28  C   UNL     1      44.838 -17.977   6.517  1.00  0.00     0.419 C 
HETATM   29  F   UNL     1      45.470 -18.897   5.731  1.00  0.00    -0.166 F 
HETATM   30  F   UNL     1      45.663 -16.894   6.553  1.00  0.00    -0.166 F 
HETATM   31  F   UNL     1      44.846 -18.496   7.776  1.00  0.00    -0.166 F 
ENDBRANCH  24  28
ENDBRANCH  16  17
ENDBRANCH  15  16
ENDBRANCH  13  15
ENDBRANCH   1  13
BRANCH   1  32
HETATM   32  N   UNL     1      40.937 -12.815   2.369  1.00  0.00    -0.342 N 
HETATM   33  H   UNL     1      41.064 -11.810   2.196  1.00  0.00     0.167 HD
BRANCH  32  34
HETATM   34  C   UNL     1      41.853 -13.200   3.386  1.00  0.00     0.033 A 
HETATM   35  C   UNL     1      43.133 -13.706   3.133  1.00  0.00     0.029 A 
HETATM   36  C   UNL     1      43.973 -14.096   4.181  1.00  0.00     0.002 A 
HETATM   37  C   UNL     1      43.538 -13.996   5.500  1.00  0.00     0.000 A 
HETATM   38  C   UNL     1      42.262 -13.512   5.772  1.00  0.00     0.002 A 
HETATM   39  C   UNL     1      41.425 -13.123   4.721  1.00  0.00     0.029 A 
ENDBRANCH  32  34
ENDBRANCH   1  32
TORSDOF 7
ENDMDL
MODEL 2
REMARK VINA RESULT:      -8.7      1.233      2.280
REMARK  7 active torsions:
REMARK  status: ('A' for Active; 'I' for Inactive)
REMARK    1  A    between atoms: C_7  and  C_8 
REMARK    2  A    between atoms: C_8  and  C_9 
REMARK    3  A    between atoms: C_9  and  N_10 
REMARK    4  A    between atoms: N_10  and  C_11 
REMARK    5  A    between atoms: C_11  and  N_12 
REMARK    6  A    between atoms: N_12  and  C_13 
REMARK    7  A    between atoms: C_30  and  C_31 
ROOT
HETATM    1  C   UNL     1      41.941 -13.497   1.090  1.00  0.00     0.123 C 
HETATM    2  C   UNL     1      41.921 -13.111  -0.224  1.00  0.00     0.144 C 
HETATM    3  C   UNL     1      41.431 -14.029  -1.285  1.00  0.00     0.270 C 
HETATM    4  O   UNL     1      41.261 -15.232  -1.086  1.00  0.00    -0.267 OA
HETATM    5  N   UNL     1      41.199 -13.448  -2.519  1.00  0.00    -0.270 N 
HETATM    6  C   UNL     1      40.557 -14.266  -3.532  1.00  0.00     0.164 C 
HETATM    7  C   UNL     1      41.751 -12.250  -2.938  1.00  0.00     0.333 C 
HETATM    8  O   UNL     1      41.645 -11.866  -4.105  1.00  0.00    -0.246 OA
HETATM    9  N   UNL     1      42.427 -11.509  -1.986  1.00  0.00    -0.270 N 
HETATM   10  C   UNL     1      42.983 -10.234  -2.405  1.00  0.00     0.164 C 
HETATM   11  C   UNL     1      42.387 -11.758  -0.626  1.00  0.00     0.270 C 
HETATM   12  O   UNL     1      42.685 -10.897   0.206  1.00  0.00    -0.267 OA
ENDROOT
BRANCH   1  13
HETATM   13  N   UNL     1      41.412 -14.729   1.491  1.00  0.00    -0.375 N 
HETATM   14  H   UNL     1      41.560 -15.477   0.806  1.00  0.00     0.161 HD
BRANCH  13  15
HETATM   15  C   UNL     1      40.173 -14.861   2.260  1.00  0.00     0.126 C 
BRANCH  15  16
HETATM   16  C   UNL     1      39.890 -16.318   2.653  1.00  0.00     0.061 C 
BRANCH  16  17
HETATM   17  C   UNL     1      40.981 -16.942   3.479  1.00  0.00    -0.022 A 
HETATM   18  C   UNL     1      41.174 -16.785   4.843  1.00  0.00     0.013 A 
HETATM   19  C   UNL     1      40.413 -15.999   5.850  1.00  0.00     0.068 C 
HETATM   20  N   UNL     1      42.271 -17.526   5.199  1.00  0.00    -0.358 N 
HETATM   21  H   UNL     1      42.644 -17.596   6.139  1.00  0.00     0.166 HD
HETATM   22  C   UNL     1      42.820 -18.148   4.100  1.00  0.00     0.058 A 
HETATM   23  C   UNL     1      42.037 -17.790   3.003  1.00  0.00    -0.000 A 
HETATM   24  C   UNL     1      43.948 -18.991   4.005  1.00  0.00     0.075 A 
HETATM   25  C   UNL     1      42.394 -18.285   1.734  1.00  0.00     0.014 A 
HETATM   26  C   UNL     1      43.505 -19.121   1.602  1.00  0.00     0.002 A 
HETATM   27  C   UNL     1      44.262 -19.469   2.717  1.00  0.00     0.018 A 
BRANCH  24  28
HETATM   28  C   UNL     1      44.794 -19.404   5.182  1.00  0.00     0.419 C 
HETATM   29  F   UNL     1      45.525 -18.378   5.709  1.00  0.00    -0.166 F 
HETATM   30  F   UNL     1      44.051 -19.895   6.211  1.00  0.00    -0.166 F 
HETATM   31  F   UNL     1      45.694 -20.379   4.871  1.00  0.00    -0.166 F 
ENDBRANCH  24  28
ENDBRANCH  16  17
ENDBRANCH  15  16
ENDBRANCH  13  15
ENDBRANCH   1  13
BRANCH   1  32
HETATM   32  N   UNL     1      42.435 -12.648   2.088  1.00  0.00    -0.342 N 
HETATM   33  H   UNL     1      43.198 -12.049   1.748  1.00  0.00     0.167 HD
BRANCH  32  34
HETATM   34  C   UNL     1      42.747 -13.037   3.419  1.00  0.00     0.033 A 
HETATM   35  C   UNL     1      43.733 -13.974   3.749  1.00  0.00     0.029 A 
HETATM   36  C   UNL     1      43.967 -14.334   5.080  1.00  0.00     0.002 A 
HETATM   37  C   UNL     1      43.207 -13.771   6.101  1.00  0.00     0.000 A 
HETATM   38  C   UNL     1      42.209 -12.851   5.792  1.00  0.00     0.002 A 
HETATM   39  C   UNL     1      41.978 -12.492   4.461  1.00  0.00     0.029 A 
ENDBRANCH  32  34
ENDBRANCH   1  32
TORSDOF 7
ENDMDL
MODEL 3
REMARK VINA RESULT:      -8.6      1.409      1.829
REMARK  7 active torsions:
REMARK  status: ('A' for Active; 'I' for Inactive)
REMARK    1  A    between atoms: C_7  and  C_8 
REMARK    2  A    between atoms: C_8  and  C_9 
REMARK    3  A    between atoms: C_9  and  N_10 
REMARK    4  A    between atoms: N_10  and  C_11 
REMARK    5  A    between atoms: C_11  and  N_12 
REMARK    6  A    between atoms: N_12  and  C_13 
REMARK    7  A    between atoms: C_30  and  C_31 
ROOT
HETATM    1  C   UNL     1      42.028 -14.646   0.738  1.00  0.00     0.123 C 
HETATM    2  C   UNL     1      41.708 -13.993  -0.423  1.00  0.00     0.144 C 
HETATM    3  C   UNL     1      41.062 -14.709  -1.553  1.00  0.00     0.270 C 
HETATM    4  O   UNL     1      41.012 -15.939  -1.608  1.00  0.00    -0.267 OA
HETATM    5  N   UNL     1      40.540 -13.907  -2.551  1.00  0.00    -0.270 N 
HETATM    6  C   UNL     1      39.750 -14.553  -3.584  1.00  0.00     0.164 C 
HETATM    7  C   UNL     1      40.917 -12.595  -2.781  1.00  0.00     0.333 C 
HETATM    8  O   UNL     1      40.545 -11.984  -3.784  1.00  0.00    -0.246 OA
HETATM    9  N   UNL     1      41.733 -12.007  -1.831  1.00  0.00    -0.270 N 
HETATM   10  C   UNL     1      42.109 -10.619  -2.043  1.00  0.00     0.164 C 
HETATM   11  C   UNL     1      41.995 -12.543  -0.583  1.00  0.00     0.270 C 
HETATM   12  O   UNL     1      42.409 -11.853   0.352  1.00  0.00    -0.267 OA
ENDROOT
BRANCH   1  13
HETATM   13  N   UNL     1      41.672 -15.984   0.937  1.00  0.00    -0.375 N 
HETATM   14  H   UNL     1      40.868 -16.103   1.562  1.00  0.00     0.161 HD
BRANCH  13  15
HETATM   15  C   UNL     1      42.646 -17.075   1.008  1.00  0.00     0.126 C 
BRANCH  15  16
HETATM   16  C   UNL     1      42.093 -18.297   1.755  1.00  0.00     0.061 C 
BRANCH  16  17
HETATM   17  C   UNL     1      42.717 -18.510   3.107  1.00  0.00    -0.022 A 
HETATM   18  C   UNL     1      43.794 -19.334   3.396  1.00  0.00     0.013 A 
HETATM   19  C   UNL     1      44.614 -20.210   2.518  1.00  0.00     0.068 C 
HETATM   20  N   UNL     1      44.049 -19.235   4.740  1.00  0.00    -0.358 N 
HETATM   21  H   UNL     1      44.785 -19.730   5.229  1.00  0.00     0.166 HD
HETATM   22  C   UNL     1      43.152 -18.384   5.347  1.00  0.00     0.058 A 
HETATM   23  C   UNL     1      42.296 -17.923   4.347  1.00  0.00    -0.000 A 
HETATM   24  C   UNL     1      43.040 -18.001   6.700  1.00  0.00     0.075 A 
HETATM   25  C   UNL     1      41.260 -17.039   4.706  1.00  0.00     0.014 A 
HETATM   26  C   UNL     1      41.119 -16.638   6.037  1.00  0.00     0.002 A 
HETATM   27  C   UNL     1      41.995 -17.107   7.012  1.00  0.00     0.018 A 
BRANCH  24  28
HETATM   28  C   UNL     1      43.967 -18.473   7.791  1.00  0.00     0.419 C 
HETATM   29  F   UNL     1      45.288 -18.325   7.478  1.00  0.00    -0.166 F 
HETATM   30  F   UNL     1      43.786 -17.797   8.958  1.00  0.00    -0.166 F 
HETATM   31  F   UNL     1      43.803 -19.791   8.092  1.00  0.00    -0.166 F 
ENDBRANCH  24  28
ENDBRANCH  16  17
ENDBRANCH  15  16
ENDBRANCH  13  15
ENDBRANCH   1  13
BRANCH   1  32
HETATM   32  N   UNL     1      42.669 -13.982   1.791  1.00  0.00    -0.342 N 
HETATM   33  H   UNL     1      43.631 -14.313   1.933  1.00  0.00     0.167 HD
BRANCH  32  34
HETATM   34  C   UNL     1      42.102 -13.728   3.070  1.00  0.00     0.033 A 
HETATM   35  C   UNL     1      40.746 -13.454   3.282  1.00  0.00     0.029 A 
HETATM   36  C   UNL     1      40.260 -13.182   4.565  1.00  0.00     0.002 A 
HETATM   37  C   UNL     1      41.128 -13.168   5.654  1.00  0.00     0.000 A 
HETATM   38  C   UNL     1      42.483 -13.421   5.460  1.00  0.00     0.002 A 
HETATM   39  C   UNL     1      42.966 -13.693   4.177  1.00  0.00     0.029 A 
ENDBRANCH  32  34
ENDBRANCH   1  32
TORSDOF 7
ENDMDL
MODEL 4
REMARK VINA RESULT:      -8.5      2.284      3.354
REMARK  7 active torsions:
REMARK  status: ('A' for Active; 'I' for Inactive)
REMARK    1  A    between atoms: C_7  and  C_8 
REMARK    2  A    between atoms: C_8  and  C_9 
REMARK    3  A    between atoms: C_9  and  N_10 
REMARK    4  A    between atoms: N_10  and  C_11 
REMARK    5  A    between atoms: C_11  and  N_12 
REMARK    6  A    between atoms: N_12  and  C_13 
REMARK    7  A    between atoms: C_30  and  C_31 
ROOT
HETATM    1  C   UNL     1      41.674 -14.074   1.923  1.00  0.00     0.123 C 
HETATM    2  C   UNL     1      41.744 -13.909   0.566  1.00  0.00     0.144 C 
HETATM    3  C   UNL     1      41.391 -15.015  -0.362  1.00  0.00     0.270 C 
HETATM    4  O   UNL     1      41.267 -16.179   0.022  1.00  0.00    -0.267 OA
HETATM    5  N   UNL     1      41.233 -14.658  -1.688  1.00  0.00    -0.270 N 
HETATM    6  C   UNL     1      40.720 -15.668  -2.596  1.00  0.00     0.164 C 
HETATM    7  C   UNL     1      41.756 -13.511  -2.259  1.00  0.00     0.333 C 
HETATM    8  O   UNL     1      41.728 -13.328  -3.478  1.00  0.00    -0.246 OA
HETATM    9  N   UNL     1      42.312 -12.584  -1.396  1.00  0.00    -0.270 N 
HETATM   10  C   UNL     1      42.835 -11.360  -1.980  1.00  0.00     0.164 C 
HETATM   11  C   UNL     1      42.172 -12.611  -0.021  1.00  0.00     0.270 C 
HETATM   12  O   UNL     1      42.355 -11.610   0.676  1.00  0.00    -0.267 OA
ENDROOT
BRANCH   1  13
HETATM   13  N   UNL     1      41.178 -15.257   2.484  1.00  0.00    -0.375 N 
HETATM   14  H   UNL     1      40.155 -15.320   2.459  1.00  0.00     0.161 HD
BRANCH  13  15
HETATM   15  C   UNL     1      41.788 -15.919   3.639  1.00  0.00     0.126 C 
BRANCH  15  16
HETATM   16  C   UNL     1      43.263 -16.266   3.393  1.00  0.00     0.061 C 
BRANCH  16  17
HETATM   17  C   UNL     1      43.687 -17.567   4.019  1.00  0.00    -0.022 A 
HETATM   18  C   UNL     1      44.073 -17.759   5.337  1.00  0.00     0.013 A 
HETATM   19  C   UNL     1      44.184 -16.803   6.469  1.00  0.00     0.068 C 
HETATM   20  N   UNL     1      44.373 -19.088   5.495  1.00  0.00    -0.358 N 
HETATM   21  H   UNL     1      44.684 -19.513   6.361  1.00  0.00     0.166 HD
HETATM   22  C   UNL     1      44.216 -19.770   4.309  1.00  0.00     0.058 A 
HETATM   23  C   UNL     1      43.798 -18.837   3.361  1.00  0.00    -0.000 A 
HETATM   24  C   UNL     1      44.421 -21.135   4.015  1.00  0.00     0.075 A 
HETATM   25  C   UNL     1      43.577 -19.276   2.041  1.00  0.00     0.014 A 
HETATM   26  C   UNL     1      43.770 -20.620   1.714  1.00  0.00     0.002 A 
HETATM   27  C   UNL     1      44.179 -21.530   2.684  1.00  0.00     0.018 A 
BRANCH  24  28
HETATM   28  C   UNL     1      44.854 -22.161   5.031  1.00  0.00     0.419 C 
HETATM   29  F   UNL     1      44.409 -21.893   6.294  1.00  0.00    -0.166 F 
HETATM   30  F   UNL     1      44.398 -23.411   4.738  1.00  0.00    -0.166 F 
HETATM   31  F   UNL     1      46.208 -22.271   5.130  1.00  0.00    -0.166 F 
ENDBRANCH  24  28
ENDBRANCH  16  17
ENDBRANCH  15  16
ENDBRANCH  13  15
ENDBRANCH   1  13
BRANCH   1  32
HETATM   32  N   UNL     1      42.040 -13.045   2.799  1.00  0.00    -0.342 N 
HETATM   33  H   UNL     1      42.970 -13.194   3.210  1.00  0.00     0.167 HD
BRANCH  32  34
HETATM   34  C   UNL     1      41.204 -12.484   3.804  1.00  0.00     0.033 A 
HETATM   35  C   UNL     1      41.585 -12.334   5.142  1.00  0.00     0.029 A 
HETATM   36  C   UNL     1      40.701 -11.803   6.087  1.00  0.00     0.002 A 
HETATM   37  C   UNL     1      39.416 -11.425   5.707  1.00  0.00     0.000 A 
HETATM   38  C   UNL     1      39.012 -11.582   4.384  1.00  0.00     0.002 A 
HETATM   39  C   UNL     1      39.899 -12.114   3.443  1.00  0.00     0.029 A 
ENDBRANCH  32  34
ENDBRANCH   1  32
TORSDOF 7
ENDMDL
MODEL 5
REMARK VINA RESULT:      -8.3      2.124      4.045
REMARK  7 active torsions:
REMARK  status: ('A' for Active; 'I' for Inactive)
REMARK    1  A    between atoms: C_7  and  C_8 
REMARK    2  A    between atoms: C_8  and  C_9 
REMARK    3  A    between atoms: C_9  and  N_10 
REMARK    4  A    between atoms: N_10  and  C_11 
REMARK    5  A    between atoms: C_11  and  N_12 
REMARK    6  A    between atoms: N_12  and  C_13 
REMARK    7  A    between atoms: C_30  and  C_31 
ROOT
HETATM    1  C   UNL     1      41.169 -13.689   2.042  1.00  0.00     0.123 C 
HETATM    2  C   UNL     1      40.127 -13.304   1.243  1.00  0.00     0.144 C 
HETATM    3  C   UNL     1      38.958 -12.576   1.802  1.00  0.00     0.270 C 
HETATM    4  O   UNL     1      38.748 -12.505   3.013  1.00  0.00    -0.267 OA
HETATM    5  N   UNL     1      38.109 -12.002   0.873  1.00  0.00    -0.270 N 
HETATM    6  C   UNL     1      37.056 -11.137   1.375  1.00  0.00     0.164 C 
HETATM    7  C   UNL     1      38.027 -12.382  -0.455  1.00  0.00     0.333 C 
HETATM    8  O   UNL     1      37.138 -11.954  -1.194  1.00  0.00    -0.246 OA
HETATM    9  N   UNL     1      38.990 -13.266  -0.910  1.00  0.00    -0.270 N 
HETATM   10  C   UNL     1      38.934 -13.647  -2.311  1.00  0.00     0.164 C 
HETATM   11  C   UNL     1      40.137 -13.601  -0.214  1.00  0.00     0.270 C 
HETATM   12  O   UNL     1      41.124 -14.084  -0.774  1.00  0.00    -0.267 OA
ENDROOT
BRANCH   1  13
HETATM   13  N   UNL     1      41.216 -13.328   3.394  1.00  0.00    -0.375 N 
HETATM   14  H   UNL     1      40.357 -12.876   3.725  1.00  0.00     0.161 HD
BRANCH  13  15
HETATM   15  C   UNL     1      42.432 -12.853   4.058  1.00  0.00     0.126 C 
BRANCH  15  16
HETATM   16  C   UNL     1      42.415 -13.137   5.567  1.00  0.00     0.061 C 
BRANCH  16  17
HETATM   17  C   UNL     1      43.029 -14.460   5.937  1.00  0.00    -0.022 A 
HETATM   18  C   UNL     1      44.267 -14.655   6.531  1.00  0.00     0.013 A 
HETATM   19  C   UNL     1      45.307 -13.683   6.957  1.00  0.00     0.068 C 
HETATM   20  N   UNL     1      44.440 -16.005   6.704  1.00  0.00    -0.358 N 
HETATM   21  H   UNL     1      45.258 -16.436   7.117  1.00  0.00     0.166 HD
HETATM   22  C   UNL     1      43.357 -16.703   6.218  1.00  0.00     0.058 A 
HETATM   23  C   UNL     1      42.460 -15.759   5.719  1.00  0.00    -0.000 A 
HETATM   24  C   UNL     1      43.118 -18.094   6.181  1.00  0.00     0.075 A 
HETATM   25  C   UNL     1      41.259 -16.214   5.141  1.00  0.00     0.014 A 
HETATM   26  C   UNL     1      40.989 -17.584   5.088  1.00  0.00     0.002 A 
HETATM   27  C   UNL     1      41.900 -18.503   5.602  1.00  0.00     0.018 A 
BRANCH  24  28
HETATM   28  C   UNL     1      44.066 -19.127   6.733  1.00  0.00     0.419 C 
HETATM   29  F   UNL     1      44.323 -18.970   8.064  1.00  0.00    -0.166 F 
HETATM   30  F   UNL     1      43.591 -20.396   6.597  1.00  0.00    -0.166 F 
HETATM   31  F   UNL     1      45.281 -19.115   6.117  1.00  0.00    -0.166 F 
ENDBRANCH  24  28
ENDBRANCH  16  17
ENDBRANCH  15  16
ENDBRANCH  13  15
ENDBRANCH   1  13
BRANCH   1  32
HETATM   32  N   UNL     1      42.255 -14.406   1.525  1.00  0.00    -0.342 N 
HETATM   33  H   UNL     1      42.394 -14.233   0.521  1.00  0.00     0.167 HD
BRANCH  32  34
HETATM   34  C   UNL     1      42.527 -15.779   1.772  1.00  0.00     0.033 A 
HETATM   35  C   UNL     1      43.709 -16.248   2.357  1.00  0.00     0.029 A 
HETATM   36  C   UNL     1      43.926 -17.617   2.544  1.00  0.00     0.002 A 
HETATM   37  C   UNL     1      42.967 -18.539   2.135  1.00  0.00     0.000 A 
HETATM   38  C   UNL     1      41.793 -18.094   1.535  1.00  0.00     0.002 A 
HETATM   39  C   UNL     1      41.579 -16.725   1.351  1.00  0.00     0.029 A 
ENDBRANCH  32  34
ENDBRANCH   1  32
TORSDOF 7
ENDMDL
MODEL 6
REMARK VINA RESULT:      -8.2      2.402      5.353
REMARK  7 active torsions:
REMARK  status: ('A' for Active; 'I' for Inactive)
REMARK    1  A    between atoms: C_7  and  C_8 
REMARK    2  A    between atoms: C_8  and  C_9 
REMARK    3  A    between atoms: C_9  and  N_10 
REMARK    4  A    between atoms: N_10  and  C_11 
REMARK    5  A    between atoms: C_11  and  N_12 
REMARK    6  A    between atoms: N_12  and  C_13 
REMARK    7  A    between atoms: C_30  and  C_31 
ROOT
HETATM    1  C   UNL     1      40.027 -14.241   0.483  1.00  0.00     0.123 C 
HETATM    2  C   UNL     1      39.707 -13.400   1.514  1.00  0.00     0.144 C 
HETATM    3  C   UNL     1      39.620 -13.897   2.912  1.00  0.00     0.270 C 
HETATM    4  O   UNL     1      39.580 -15.099   3.179  1.00  0.00    -0.267 OA
HETATM    5  N   UNL     1      39.563 -12.924   3.892  1.00  0.00    -0.270 N 
HETATM    6  C   UNL     1      39.653 -13.361   5.274  1.00  0.00     0.164 C 
HETATM    7  C   UNL     1      39.179 -11.612   3.674  1.00  0.00     0.333 C 
HETATM    8  O   UNL     1      38.985 -10.833   4.610  1.00  0.00    -0.246 OA
HETATM    9  N   UNL     1      39.022 -11.221   2.357  1.00  0.00    -0.270 N 
HETATM   10  C   UNL     1      38.651  -9.837   2.113  1.00  0.00     0.164 C 
HETATM   11  C   UNL     1      39.442 -11.958   1.265  1.00  0.00     0.270 C 
HETATM   12  O   UNL     1      39.620 -11.445   0.158  1.00  0.00    -0.267 OA
ENDROOT
BRANCH   1  13
HETATM   13  N   UNL     1      40.377 -15.576   0.719  1.00  0.00    -0.375 N 
HETATM   14  H   UNL     1      39.946 -15.966   1.564  1.00  0.00     0.161 HD
BRANCH  13  15
HETATM   15  C   UNL     1      41.699 -16.128   0.415  1.00  0.00     0.126 C 
BRANCH  15  16
HETATM   16  C   UNL     1      42.804 -15.481   1.263  1.00  0.00     0.061 C 
BRANCH  16  17
HETATM   17  C   UNL     1      43.146 -16.260   2.503  1.00  0.00    -0.022 A 
HETATM   18  C   UNL     1      43.223 -15.760   3.794  1.00  0.00     0.013 A 
HETATM   19  C   UNL     1      43.009 -14.387   4.322  1.00  0.00     0.068 C 
HETATM   20  N   UNL     1      43.555 -16.799   4.626  1.00  0.00    -0.358 N 
HETATM   21  H   UNL     1      43.679 -16.722   5.629  1.00  0.00     0.166 HD
HETATM   22  C   UNL     1      43.720 -17.965   3.912  1.00  0.00     0.058 A 
HETATM   23  C   UNL     1      43.481 -17.653   2.574  1.00  0.00    -0.000 A 
HETATM   24  C   UNL     1      44.068 -19.258   4.356  1.00  0.00     0.075 A 
HETATM   25  C   UNL     1      43.602 -18.678   1.615  1.00  0.00     0.014 A 
HETATM   26  C   UNL     1      43.945 -19.971   2.019  1.00  0.00     0.002 A 
HETATM   27  C   UNL     1      44.168 -20.254   3.363  1.00  0.00     0.018 A 
BRANCH  24  28
HETATM   28  C   UNL     1      44.311 -19.617   5.800  1.00  0.00     0.419 C 
HETATM   29  F   UNL     1      43.203 -19.478   6.586  1.00  0.00    -0.166 F 
HETATM   30  F   UNL     1      44.713 -20.909   5.956  1.00  0.00    -0.166 F 
HETATM   31  F   UNL     1      45.276 -18.852   6.382  1.00  0.00    -0.166 F 
ENDBRANCH  24  28
ENDBRANCH  16  17
ENDBRANCH  15  16
ENDBRANCH  13  15
ENDBRANCH   1  13
BRANCH   1  32
HETATM   32  N   UNL     1      40.076 -13.783  -0.839  1.00  0.00    -0.342 N 
HETATM   33  H   UNL     1      39.865 -12.779  -0.913  1.00  0.00     0.167 HD
BRANCH  32  34
HETATM   34  C   UNL     1      39.489 -14.434  -1.958  1.00  0.00     0.033 A 
HETATM   35  C   UNL     1      40.195 -15.259  -2.841  1.00  0.00     0.029 A 
HETATM   36  C   UNL     1      39.562 -15.845  -3.942  1.00  0.00     0.002 A 
HETATM   37  C   UNL     1      38.212 -15.602  -4.183  1.00  0.00     0.000 A 
HETATM   38  C   UNL     1      37.497 -14.770  -3.327  1.00  0.00     0.002 A 
HETATM   39  C   UNL     1      38.133 -14.186  -2.227  1.00  0.00     0.029 A 
ENDBRANCH  32  34
ENDBRANCH   1  32
TORSDOF 7
ENDMDL
MODEL 7
REMARK VINA RESULT:      -8.0      1.998      2.789
REMARK  7 active torsions:
REMARK  status: ('A' for Active; 'I' for Inactive)
REMARK    1  A    between atoms: C_7  and  C_8 
REMARK    2  A    between atoms: C_8  and  C_9 
REMARK    3  A    between atoms: C_9  and  N_10 
REMARK    4  A    between atoms: N_10  and  C_11 
REMARK    5  A    between atoms: C_11  and  N_12 
REMARK    6  A    between atoms: N_12  and  C_13 
REMARK    7  A    between atoms: C_30  and  C_31 
ROOT
HETATM    1  C   UNL     1      40.456 -14.659   1.075  1.00  0.00     0.123 C 
HETATM    2  C   UNL     1      39.872 -13.963   0.050  1.00  0.00     0.144 C 
HETATM    3  C   UNL     1      40.552 -13.815  -1.263  1.00  0.00     0.270 C 
HETATM    4  O   UNL     1      41.745 -14.080  -1.417  1.00  0.00    -0.267 OA
HETATM    5  N   UNL     1      39.764 -13.338  -2.294  1.00  0.00    -0.270 N 
HETATM    6  C   UNL     1      40.337 -13.342  -3.629  1.00  0.00     0.164 C 
HETATM    7  C   UNL     1      38.587 -12.632  -2.121  1.00  0.00     0.333 C 
HETATM    8  O   UNL     1      38.016 -12.088  -3.068  1.00  0.00    -0.246 OA
HETATM    9  N   UNL     1      38.084 -12.568  -0.834  1.00  0.00    -0.270 N 
HETATM   10  C   UNL     1      36.831 -11.857  -0.643  1.00  0.00     0.164 C 
HETATM   11  C   UNL     1      38.534 -13.338   0.223  1.00  0.00     0.270 C 
HETATM   12  O   UNL     1      37.853 -13.525   1.234  1.00  0.00    -0.267 OA
ENDROOT
BRANCH   1  13
HETATM   13  N   UNL     1      41.668 -15.336   0.892  1.00  0.00    -0.375 N 
HETATM   14  H   UNL     1      42.327 -14.835   0.287  1.00  0.00     0.161 HD
BRANCH  13  15
HETATM   15  C   UNL     1      41.770 -16.794   0.803  1.00  0.00     0.126 C 
BRANCH  15  16
HETATM   16  C   UNL     1      43.198 -17.291   1.072  1.00  0.00     0.061 C 
BRANCH  16  17
HETATM   17  C   UNL     1      43.417 -17.759   2.484  1.00  0.00    -0.022 A 
HETATM   18  C   UNL     1      43.582 -19.072   2.900  1.00  0.00     0.013 A 
HETATM   19  C   UNL     1      43.589 -20.344   2.131  1.00  0.00     0.068 C 
HETATM   20  N   UNL     1      43.761 -19.061   4.260  1.00  0.00    -0.358 N 
HETATM   21  H   UNL     1      43.905 -19.885   4.832  1.00  0.00     0.166 HD
HETATM   22  C   UNL     1      43.695 -17.777   4.752  1.00  0.00     0.058 A 
HETATM   23  C   UNL     1      43.468 -16.939   3.661  1.00  0.00    -0.000 A 
HETATM   24  C   UNL     1      43.814 -17.307   6.078  1.00  0.00     0.075 A 
HETATM   25  C   UNL     1      43.342 -15.555   3.892  1.00  0.00     0.014 A 
HETATM   26  C   UNL     1      43.454 -15.055   5.191  1.00  0.00     0.002 A 
HETATM   27  C   UNL     1      43.691 -15.915   6.260  1.00  0.00     0.018 A 
BRANCH  24  28
HETATM   28  C   UNL     1      44.079 -18.195   7.267  1.00  0.00     0.419 C 
HETATM   29  F   UNL     1      45.400 -18.495   7.435  1.00  0.00    -0.166 F 
HETATM   30  F   UNL     1      43.677 -17.631   8.439  1.00  0.00    -0.166 F 
HETATM   31  F   UNL     1      43.435 -19.393   7.188  1.00  0.00    -0.166 F 
ENDBRANCH  24  28
ENDBRANCH  16  17
ENDBRANCH  15  16
ENDBRANCH  13  15
ENDBRANCH   1  13
BRANCH   1  32
HETATM   32  N   UNL     1      39.834 -14.771   2.324  1.00  0.00    -0.342 N 
HETATM   33  H   UNL     1      38.810 -14.814   2.247  1.00  0.00     0.167 HD
BRANCH  32  34
HETATM   34  C   UNL     1      40.153 -13.999   3.474  1.00  0.00     0.033 A 
HETATM   35  C   UNL     1      40.846 -12.784   3.431  1.00  0.00     0.029 A 
HETATM   36  C   UNL     1      41.155 -12.090   4.606  1.00  0.00     0.002 A 
HETATM   37  C   UNL     1      40.784 -12.609   5.843  1.00  0.00     0.000 A 
HETATM   38  C   UNL     1      40.109 -13.824   5.908  1.00  0.00     0.002 A 
HETATM   39  C   UNL     1      39.802 -14.516   4.732  1.00  0.00     0.029 A 
ENDBRANCH  32  34
ENDBRANCH   1  32
TORSDOF 7
ENDMDL
MODEL 8
REMARK VINA RESULT:      -8.0      2.589      3.745
REMARK  7 active torsions:
REMARK  status: ('A' for Active; 'I' for Inactive)
REMARK    1  A    between atoms: C_7  and  C_8 
REMARK    2  A    between atoms: C_8  and  C_9 
REMARK    3  A    between atoms: C_9  and  N_10 
REMARK    4  A    between atoms: N_10  and  C_11 
REMARK    5  A    between atoms: C_11  and  N_12 
REMARK    6  A    between atoms: N_12  and  C_13 
REMARK    7  A    between atoms: C_30  and  C_31 
ROOT
HETATM    1  C   UNL     1      41.022 -13.615   1.913  1.00  0.00     0.123 C 
HETATM    2  C   UNL     1      40.718 -13.486   0.585  1.00  0.00     0.144 C 
HETATM    3  C   UNL     1      41.758 -13.111  -0.408  1.00  0.00     0.270 C 
HETATM    4  O   UNL     1      42.854 -12.663  -0.072  1.00  0.00    -0.267 OA
HETATM    5  N   UNL     1      41.406 -13.278  -1.735  1.00  0.00    -0.270 N 
HETATM    6  C   UNL     1      42.447 -13.091  -2.731  1.00  0.00     0.164 C 
HETATM    7  C   UNL     1      40.105 -13.357  -2.199  1.00  0.00     0.333 C 
HETATM    8  O   UNL     1      39.847 -13.336  -3.404  1.00  0.00    -0.246 OA
HETATM    9  N   UNL     1      39.110 -13.459  -1.243  1.00  0.00    -0.270 N 
HETATM   10  C   UNL     1      37.741 -13.577  -1.717  1.00  0.00     0.164 C 
HETATM   11  C   UNL     1      39.333 -13.722   0.096  1.00  0.00     0.270 C 
HETATM   12  O   UNL     1      38.447 -14.160   0.834  1.00  0.00    -0.267 OA
ENDROOT
BRANCH   1  13
HETATM   13  N   UNL     1      42.340 -13.494   2.369  1.00  0.00    -0.375 N 
HETATM   14  H   UNL     1      42.837 -12.693   1.967  1.00  0.00     0.161 HD
BRANCH  13  15
HETATM   15  C   UNL     1      43.200 -14.643   2.662  1.00  0.00     0.126 C 
BRANCH  15  16
HETATM   16  C   UNL     1      42.471 -15.716   3.483  1.00  0.00     0.061 C 
BRANCH  16  17
HETATM   17  C   UNL     1      42.738 -17.119   3.011  1.00  0.00    -0.022 A 
HETATM   18  C   UNL     1      42.247 -17.706   1.854  1.00  0.00     0.013 A 
HETATM   19  C   UNL     1      41.361 -17.169   0.789  1.00  0.00     0.068 C 
HETATM   20  N   UNL     1      42.734 -18.988   1.797  1.00  0.00    -0.358 N 
HETATM   21  H   UNL     1      42.537 -19.650   1.056  1.00  0.00     0.166 HD
HETATM   22  C   UNL     1      43.513 -19.266   2.898  1.00  0.00     0.058 A 
HETATM   23  C   UNL     1      43.523 -18.114   3.684  1.00  0.00    -0.000 A 
HETATM   24  C   UNL     1      44.196 -20.450   3.249  1.00  0.00     0.075 A 
HETATM   25  C   UNL     1      44.243 -18.135   4.895  1.00  0.00     0.014 A 
HETATM   26  C   UNL     1      44.931 -19.290   5.274  1.00  0.00     0.002 A 
HETATM   27  C   UNL     1      44.910 -20.421   4.464  1.00  0.00     0.018 A 
BRANCH  24  28
HETATM   28  C   UNL     1      44.212 -21.697   2.403  1.00  0.00     0.419 C 
HETATM   29  F   UNL     1      45.144 -21.662   1.405  1.00  0.00    -0.166 F 
HETATM   30  F   UNL     1      44.490 -22.816   3.128  1.00  0.00    -0.166 F 
HETATM   31  F   UNL     1      43.020 -21.936   1.788  1.00  0.00    -0.166 F 
ENDBRANCH  24  28
ENDBRANCH  16  17
ENDBRANCH  15  16
ENDBRANCH  13  15
ENDBRANCH   1  13
BRANCH   1  32
HETATM   32  N   UNL     1      40.037 -13.934   2.856  1.00  0.00    -0.342 N 
HETATM   33  H   UNL     1      39.125 -14.120   2.420  1.00  0.00     0.167 HD
BRANCH  32  34
HETATM   34  C   UNL     1      39.804 -13.233   4.071  1.00  0.00     0.033 A 
HETATM   35  C   UNL     1      39.835 -13.832   5.336  1.00  0.00     0.029 A 
HETATM   36  C   UNL     1      39.565 -13.089   6.490  1.00  0.00     0.002 A 
HETATM   37  C   UNL     1      39.246 -11.738   6.393  1.00  0.00     0.000 A 
HETATM   38  C   UNL     1      39.192 -11.128   5.143  1.00  0.00     0.002 A 
HETATM   39  C   UNL     1      39.463 -11.873   3.992  1.00  0.00     0.029 A 
ENDBRANCH  32  34
ENDBRANCH   1  32
TORSDOF 7
ENDMDL
MODEL 9
REMARK VINA RESULT:      -7.9      2.155      4.776
REMARK  7 active torsions:
REMARK  status: ('A' for Active; 'I' for Inactive)
REMARK    1  A    between atoms: C_7  and  C_8 
REMARK    2  A    between atoms: C_8  and  C_9 
REMARK    3  A    between atoms: C_9  and  N_10 
REMARK    4  A    between atoms: N_10  and  C_11 
REMARK    5  A    between atoms: C_11  and  N_12 
REMARK    6  A    between atoms: N_12  and  C_13 
REMARK    7  A    between atoms: C_30  and  C_31 
ROOT
HETATM    1  C   UNL     1      40.671 -14.639   0.475  1.00  0.00     0.123 C 
HETATM    2  C   UNL     1      40.401 -13.576   1.295  1.00  0.00     0.144 C 
HETATM    3  C   UNL     1      40.045 -13.779   2.723  1.00  0.00     0.270 C 
HETATM    4  O   UNL     1      39.735 -14.883   3.172  1.00  0.00    -0.267 OA
HETATM    5  N   UNL     1      40.063 -12.643   3.512  1.00  0.00    -0.270 N 
HETATM    6  C   UNL     1      39.894 -12.821   4.944  1.00  0.00     0.164 C 
HETATM    7  C   UNL     1      39.977 -11.350   3.028  1.00  0.00     0.333 C 
HETATM    8  O   UNL     1      39.828 -10.387   3.784  1.00  0.00    -0.246 OA
HETATM    9  N   UNL     1      40.063 -11.192   1.656  1.00  0.00    -0.270 N 
HETATM   10  C   UNL     1      40.007  -9.836   1.137  1.00  0.00     0.164 C 
HETATM   11  C   UNL     1      40.459 -12.183   0.777  1.00  0.00     0.270 C 
HETATM   12  O   UNL     1      40.870 -11.926  -0.357  1.00  0.00    -0.267 OA
ENDROOT
BRANCH   1  13
HETATM   13  N   UNL     1      40.717 -15.945   0.976  1.00  0.00    -0.375 N 
HETATM   14  H   UNL     1      40.002 -16.135   1.685  1.00  0.00     0.161 HD
BRANCH  13  15
HETATM   15  C   UNL     1      41.964 -16.688   1.174  1.00  0.00     0.126 C 
BRANCH  15  16
HETATM   16  C   UNL     1      41.714 -18.097   1.732  1.00  0.00     0.061 C 
BRANCH  16  17
HETATM   17  C   UNL     1      42.441 -18.372   3.020  1.00  0.00    -0.022 A 
HETATM   18  C   UNL     1      43.519 -19.228   3.190  1.00  0.00     0.013 A 
HETATM   19  C   UNL     1      44.245 -20.087   2.217  1.00  0.00     0.068 C 
HETATM   20  N   UNL     1      43.885 -19.183   4.511  1.00  0.00    -0.358 N 
HETATM   21  H   UNL     1      44.646 -19.711   4.920  1.00  0.00     0.166 HD
HETATM   22  C   UNL     1      43.059 -18.337   5.219  1.00  0.00     0.058 A 
HETATM   23  C   UNL     1      42.136 -17.823   4.310  1.00  0.00    -0.000 A 
HETATM   24  C   UNL     1      43.066 -18.002   6.590  1.00  0.00     0.075 A 
HETATM   25  C   UNL     1      41.153 -16.932   4.784  1.00  0.00     0.014 A 
HETATM   26  C   UNL     1      41.130 -16.577   6.134  1.00  0.00     0.002 A 
HETATM   27  C   UNL     1      42.071 -17.100   7.017  1.00  0.00     0.018 A 
BRANCH  24  28
HETATM   28  C   UNL     1      44.069 -18.533   7.583  1.00  0.00     0.419 C 
HETATM   29  F   UNL     1      43.960 -19.877   7.795  1.00  0.00    -0.166 F 
HETATM   30  F   UNL     1      45.355 -18.325   7.188  1.00  0.00    -0.166 F 
HETATM   31  F   UNL     1      43.956 -17.954   8.811  1.00  0.00    -0.166 F 
ENDBRANCH  24  28
ENDBRANCH  16  17
ENDBRANCH  15  16
ENDBRANCH  13  15
ENDBRANCH   1  13
BRANCH   1  32
HETATM   32  N   UNL     1      40.972 -14.453  -0.880  1.00  0.00    -0.342 N 
HETATM   33  H   UNL     1      41.370 -13.524  -1.067  1.00  0.00     0.167 HD
BRANCH  32  34
HETATM   34  C   UNL     1      40.118 -14.788  -1.965  1.00  0.00     0.033 A 
HETATM   35  C   UNL     1      38.906 -14.142  -2.234  1.00  0.00     0.029 A 
HETATM   36  C   UNL     1      38.098 -14.543  -3.302  1.00  0.00     0.002 A 
HETATM   37  C   UNL     1      38.486 -15.608  -4.112  1.00  0.00     0.000 A 
HETATM   38  C   UNL     1      39.679 -16.274  -3.851  1.00  0.00     0.002 A 
HETATM   39  C   UNL     1      40.485 -15.870  -2.782  1.00  0.00     0.029 A 
ENDBRANCH  32  34
ENDBRANCH   1  32
TORSDOF 7
ENDMDL
MODEL 10
REMARK VINA RESULT:      -7.9      4.175      7.263
REMARK  7 active torsions:
REMARK  status: ('A' for Active; 'I' for Inactive)
REMARK    1  A    between atoms: C_7  and  C_8 
REMARK    2  A    between atoms: C_8  and  C_9 
REMARK    3  A    between atoms: C_9  and  N_10 
REMARK    4  A    between atoms: N_10  and  C_11 
REMARK    5  A    between atoms: C_11  and  N_12 
REMARK    6  A    between atoms: N_12  and  C_13 
REMARK    7  A    between atoms: C_30  and  C_31 
ROOT
HETATM    1  C   UNL     1      43.426 -14.958   5.723  1.00  0.00     0.123 C 
HETATM    2  C   UNL     1      43.173 -13.759   6.333  1.00  0.00     0.144 C 
HETATM    3  C   UNL     1      42.132 -12.836   5.810  1.00  0.00     0.270 C 
HETATM    4  O   UNL     1      41.633 -12.975   4.693  1.00  0.00    -0.267 OA
HETATM    5  N   UNL     1      41.775 -11.797   6.650  1.00  0.00    -0.270 N 
HETATM    6  C   UNL     1      40.643 -10.977   6.256  1.00  0.00     0.164 C 
HETATM    7  C   UNL     1      42.556 -11.327   7.692  1.00  0.00     0.333 C 
HETATM    8  O   UNL     1      42.266 -10.294   8.299  1.00  0.00    -0.246 OA
HETATM    9  N   UNL     1      43.676 -12.072   8.015  1.00  0.00    -0.270 N 
HETATM   10  C   UNL     1      44.486 -11.608   9.129  1.00  0.00     0.164 C 
HETATM   11  C   UNL     1      43.933 -13.346   7.543  1.00  0.00     0.270 C 
HETATM   12  O   UNL     1      44.719 -14.109   8.110  1.00  0.00    -0.267 OA
ENDROOT
BRANCH   1  13
HETATM   13  N   UNL     1      42.650 -15.400   4.645  1.00  0.00    -0.375 N 
HETATM   14  H   UNL     1      42.511 -14.685   3.923  1.00  0.00     0.161 HD
BRANCH  13  15
HETATM   15  C   UNL     1      41.525 -16.326   4.790  1.00  0.00     0.126 C 
BRANCH  15  16
HETATM   16  C   UNL     1      41.479 -17.361   3.657  1.00  0.00     0.061 C 
BRANCH  16  17
HETATM   17  C   UNL     1      41.618 -16.759   2.285  1.00  0.00    -0.022 A 
HETATM   18  C   UNL     1      42.670 -16.957   1.403  1.00  0.00     0.013 A 
HETATM   19  C   UNL     1      43.908 -17.769   1.529  1.00  0.00     0.068 C 
HETATM   20  N   UNL     1      42.404 -16.236   0.267  1.00  0.00    -0.358 N 
HETATM   21  H   UNL     1      43.005 -16.195  -0.548  1.00  0.00     0.166 HD
HETATM   22  C   UNL     1      41.216 -15.550   0.389  1.00  0.00     0.058 A 
HETATM   23  C   UNL     1      40.706 -15.851   1.652  1.00  0.00    -0.000 A 
HETATM   24  C   UNL     1      40.569 -14.689  -0.523  1.00  0.00     0.075 A 
HETATM   25  C   UNL     1      39.489 -15.258   2.042  1.00  0.00     0.014 A 
HETATM   26  C   UNL     1      38.821 -14.401   1.166  1.00  0.00     0.002 A 
HETATM   27  C   UNL     1      39.350 -14.127  -0.093  1.00  0.00     0.018 A 
BRANCH  24  28
HETATM   28  C   UNL     1      41.095 -14.368  -1.898  1.00  0.00     0.419 C 
HETATM   29  F   UNL     1      42.266 -13.667  -1.879  1.00  0.00    -0.166 F 
HETATM   30  F   UNL     1      41.346 -15.485  -2.635  1.00  0.00    -0.166 F 
HETATM   31  F   UNL     1      40.227 -13.620  -2.636  1.00  0.00    -0.166 F 
ENDBRANCH  24  28
ENDBRANCH  16  17
ENDBRANCH  15  16
ENDBRANCH  13  15
ENDBRANCH   1  13
BRANCH   1  32
HETATM   32  N   UNL     1      44.431 -15.813   6.192  1.00  0.00    -0.342 N 
HETATM   33  H   UNL     1      45.347 -15.605   5.775  1.00  0.00     0.167 HD
BRANCH  32  34
HETATM   34  C   UNL     1      44.318 -17.225   6.314  1.00  0.00     0.033 A 
HETATM   35  C   UNL     1      44.672 -18.127   5.304  1.00  0.00     0.029 A 
HETATM   36  C   UNL     1      44.506 -19.505   5.480  1.00  0.00     0.002 A 
HETATM   37  C   UNL     1      43.971 -19.999   6.666  1.00  0.00     0.000 A 
HETATM   38  C   UNL     1      43.596 -19.118   7.675  1.00  0.00     0.002 A 
HETATM   39  C   UNL     1      43.764 -17.741   7.497  1.00  0.00     0.029 A 
ENDBRANCH  32  34
ENDBRANCH   1  32
TORSDOF 7
ENDMDL
