MODEL 1
REMARK VINA RESULT:      -9.9      0.000      0.000
REMARK  6 active torsions:
REMARK  status: ('A' for Active; 'I' for Inactive)
REMARK    1  A    between atoms: C_4  and  C_5 
REMARK    2  A    between atoms: C_8  and  C_9 
REMARK    3  A    between atoms: C_9  and  C_10 
REMARK       I    between atoms: C_10  and  N_11 
REMARK    4  A    between atoms: N_11  and  C_12 
REMARK    5  A    between atoms: N_13  and  C_14 
REMARK    6  A    between atoms: C_25  and  C_26 
ROOT
HETATM    1  C   UNL     1      41.538 -11.945   4.514  1.00  0.00     0.152 A 
HETATM    2  N   UNL     1      41.557 -12.673   5.695  1.00  0.00    -0.044 N 
HETATM    3  N   UNL     1      41.090 -11.953   6.761  1.00  0.00    -0.148 NA
HETATM    4  C   UNL     1      40.775 -10.764   6.231  1.00  0.00     0.115 A 
HETATM    5  C   UNL     1      41.063 -10.698   4.854  1.00  0.00     0.087 A 
ENDROOT
BRANCH   1   6
HETATM    6  N   UNL     1      41.913 -12.491   3.294  1.00  0.00    -0.311 N 
HETATM    7  C   UNL     1      41.220 -13.525   2.688  1.00  0.00     0.227 C 
HETATM    8  O   UNL     1      40.116 -13.944   3.030  1.00  0.00    -0.273 OA
HETATM    9  H   UNL     1      42.760 -12.126   2.858  1.00  0.00     0.170 HD
BRANCH   7  10
HETATM   10  C   UNL     1      41.990 -14.173   1.546  1.00  0.00     0.141 C 
BRANCH  10  11
HETATM   11  C   UNL     1      42.423 -15.585   1.869  1.00  0.00    -0.049 A 
HETATM   12  C   UNL     1      43.583 -15.831   2.615  1.00  0.00     0.008 A 
HETATM   13  C   UNL     1      43.988 -17.137   2.900  1.00  0.00     0.013 A 
HETATM   14  C   UNL     1      43.237 -18.243   2.474  1.00  0.00    -0.026 A 
HETATM   15  C   UNL     1      42.055 -17.987   1.758  1.00  0.00     0.013 A 
HETATM   16  C   UNL     1      41.651 -16.678   1.461  1.00  0.00     0.008 A 
BRANCH  14  17
HETATM   17  C   UNL     1      43.683 -19.620   2.764  1.00  0.00    -0.026 A 
HETATM   18  C   UNL     1      44.315 -19.940   3.980  1.00  0.00     0.012 A 
HETATM   19  C   UNL     1      44.763 -21.237   4.247  1.00  0.00     0.001 A 
HETATM   20  C   UNL     1      44.582 -22.244   3.303  1.00  0.00     0.000 A 
HETATM   21  C   UNL     1      43.955 -21.954   2.095  1.00  0.00     0.001 A 
HETATM   22  C   UNL     1      43.511 -20.654   1.829  1.00  0.00     0.012 A 
ENDBRANCH  14  17
ENDBRANCH  10  11
ENDBRANCH   7  10
ENDBRANCH   1   6
BRANCH   2  23
HETATM   23  C   UNL     1      41.995 -13.998   5.891  1.00  0.00     0.732 A 
HETATM   24  N   UNL     1      43.248 -14.333   5.984  1.00  0.00    -0.067 NA
HETATM   25  C   UNL     1      43.451 -15.669   6.193  1.00  0.00     0.065 A 
HETATM   26  C   UNL     1      42.501 -16.600   6.306  1.00  0.00     0.036 A 
HETATM   27  C   UNL     1      44.810 -16.270   6.336  1.00  0.00     0.061 C 
HETATM   28  C   UNL     1      43.030 -17.960   6.550  1.00  0.00     0.047 C 
HETATM   29  C   UNL     1      41.098 -16.205   6.198  1.00  0.00     0.268 A 
HETATM   30  C   UNL     1      44.495 -17.664   6.896  1.00  0.00     0.011 C 
HETATM   31  O   UNL     1      40.178 -17.003   6.297  1.00  0.00    -0.267 OA
HETATM   32  N   UNL     1      40.930 -14.867   5.979  1.00  0.00    -0.152 N 
HETATM   33  H   UNL     1      39.987 -14.500   5.895  1.00  0.00     0.188 HD
ENDBRANCH   2  23
BRANCH   4  34
HETATM   34  C   UNL     1      40.164  -9.658   7.024  1.00  0.00     0.105 A 
HETATM   35  O   UNL     1      38.817  -9.472   7.177  1.00  0.00    -0.320 OA
HETATM   36  C   UNL     1      38.646  -8.389   7.977  1.00  0.00     0.142 A 
HETATM   37  C   UNL     1      39.862  -7.866   8.347  1.00  0.00     0.027 A 
HETATM   38  C   UNL     1      40.843  -8.683   7.731  1.00  0.00     0.041 A 
ENDBRANCH   4  34
TORSDOF 6
ENDMDL
MODEL 2
REMARK VINA RESULT:      -9.7      1.499      2.001
REMARK  6 active torsions:
REMARK  status: ('A' for Active; 'I' for Inactive)
REMARK    1  A    between atoms: C_4  and  C_5 
REMARK    2  A    between atoms: C_8  and  C_9 
REMARK    3  A    between atoms: C_9  and  C_10 
REMARK       I    between atoms: C_10  and  N_11 
REMARK    4  A    between atoms: N_11  and  C_12 
REMARK    5  A    between atoms: N_13  and  C_14 
REMARK    6  A    between atoms: C_25  and  C_26 
ROOT
HETATM    1  C   UNL     1      40.872 -12.921   3.923  1.00  0.00     0.152 A 
HETATM    2  N   UNL     1      41.308 -13.066   5.233  1.00  0.00    -0.044 N 
HETATM    3  N   UNL     1      40.878 -12.051   6.043  1.00  0.00    -0.148 NA
HETATM    4  C   UNL     1      40.162 -11.269   5.224  1.00  0.00     0.115 A 
HETATM    5  C   UNL     1      40.155 -11.746   3.899  1.00  0.00     0.087 A 
ENDROOT
BRANCH   1   6
HETATM    6  N   UNL     1      41.140 -13.862   2.939  1.00  0.00    -0.311 N 
HETATM    7  C   UNL     1      41.871 -13.570   1.800  1.00  0.00     0.227 C 
HETATM    8  O   UNL     1      42.522 -12.545   1.609  1.00  0.00    -0.273 OA
HETATM    9  H   UNL     1      40.743 -14.794   3.060  1.00  0.00     0.170 HD
BRANCH   7  10
HETATM   10  C   UNL     1      41.756 -14.642   0.725  1.00  0.00     0.141 C 
BRANCH  10  11
HETATM   11  C   UNL     1      42.264 -15.987   1.192  1.00  0.00    -0.049 A 
HETATM   12  C   UNL     1      43.480 -16.098   1.880  1.00  0.00     0.008 A 
HETATM   13  C   UNL     1      43.955 -17.344   2.298  1.00  0.00     0.013 A 
HETATM   14  C   UNL     1      43.221 -18.518   2.069  1.00  0.00    -0.026 A 
HETATM   15  C   UNL     1      41.986 -18.393   1.412  1.00  0.00     0.013 A 
HETATM   16  C   UNL     1      41.511 -17.146   0.981  1.00  0.00     0.008 A 
BRANCH  14  17
HETATM   17  C   UNL     1      43.740 -19.832   2.500  1.00  0.00    -0.026 A 
HETATM   18  C   UNL     1      43.584 -20.976   1.697  1.00  0.00     0.012 A 
HETATM   19  C   UNL     1      44.051 -22.226   2.114  1.00  0.00     0.001 A 
HETATM   20  C   UNL     1      44.689 -22.355   3.344  1.00  0.00     0.000 A 
HETATM   21  C   UNL     1      44.861 -21.237   4.154  1.00  0.00     0.001 A 
HETATM   22  C   UNL     1      44.390 -19.989   3.736  1.00  0.00     0.012 A 
ENDBRANCH  14  17
ENDBRANCH  10  11
ENDBRANCH   7  10
ENDBRANCH   1   6
BRANCH   2  23
HETATM   23  C   UNL     1      42.112 -14.090   5.772  1.00  0.00     0.732 A 
HETATM   24  N   UNL     1      41.894 -15.356   5.566  1.00  0.00    -0.067 NA
HETATM   25  C   UNL     1      42.806 -16.180   6.165  1.00  0.00     0.065 A 
HETATM   26  C   UNL     1      43.850 -15.794   6.903  1.00  0.00     0.036 A 
HETATM   27  C   UNL     1      42.750 -17.668   6.054  1.00  0.00     0.061 C 
HETATM   28  C   UNL     1      44.672 -16.918   7.402  1.00  0.00     0.047 C 
HETATM   29  C   UNL     1      44.078 -14.368   7.124  1.00  0.00     0.268 A 
HETATM   30  C   UNL     1      44.135 -18.087   6.566  1.00  0.00     0.011 C 
HETATM   31  O   UNL     1      45.015 -13.943   7.783  1.00  0.00    -0.267 OA
HETATM   32  N   UNL     1      43.145 -13.572   6.522  1.00  0.00    -0.152 N 
HETATM   33  H   UNL     1      43.225 -12.564   6.617  1.00  0.00     0.188 HD
ENDBRANCH   2  23
BRANCH   4  34
HETATM   34  C   UNL     1      39.440 -10.050   5.691  1.00  0.00     0.105 A 
HETATM   35  O   UNL     1      39.076  -9.820   6.990  1.00  0.00    -0.320 OA
HETATM   36  C   UNL     1      38.466  -8.607   7.030  1.00  0.00     0.142 A 
HETATM   37  C   UNL     1      38.427  -8.045   5.777  1.00  0.00     0.027 A 
HETATM   38  C   UNL     1      39.053  -8.977   4.911  1.00  0.00     0.041 A 
ENDBRANCH   4  34
TORSDOF 6
ENDMDL
MODEL 3
REMARK VINA RESULT:      -9.1      3.399      6.203
REMARK  6 active torsions:
REMARK  status: ('A' for Active; 'I' for Inactive)
REMARK    1  A    between atoms: C_4  and  C_5 
REMARK    2  A    between atoms: C_8  and  C_9 
REMARK    3  A    between atoms: C_9  and  C_10 
REMARK       I    between atoms: C_10  and  N_11 
REMARK    4  A    between atoms: N_11  and  C_12 
REMARK    5  A    between atoms: N_13  and  C_14 
REMARK    6  A    between atoms: C_25  and  C_26 
ROOT
HETATM    1  C   UNL     1      43.352 -15.390   5.283  1.00  0.00     0.152 A 
HETATM    2  N   UNL     1      44.052 -16.314   6.046  1.00  0.00    -0.044 N 
HETATM    3  N   UNL     1      44.759 -15.726   7.060  1.00  0.00    -0.148 NA
HETATM    4  C   UNL     1      44.490 -14.421   6.924  1.00  0.00     0.115 A 
HETATM    5  C   UNL     1      43.653 -14.160   5.821  1.00  0.00     0.087 A 
ENDROOT
BRANCH   1   6
HETATM    6  N   UNL     1      42.521 -15.764   4.235  1.00  0.00    -0.311 N 
HETATM    7  C   UNL     1      41.214 -16.176   4.423  1.00  0.00     0.227 C 
HETATM    8  O   UNL     1      40.576 -16.080   5.470  1.00  0.00    -0.273 OA
HETATM    9  H   UNL     1      42.921 -15.762   3.296  1.00  0.00     0.170 HD
BRANCH   7  10
HETATM   10  C   UNL     1      40.614 -16.843   3.193  1.00  0.00     0.141 C 
BRANCH  10  11
HETATM   11  C   UNL     1      40.751 -15.993   1.950  1.00  0.00    -0.049 A 
HETATM   12  C   UNL     1      40.119 -14.746   1.857  1.00  0.00     0.008 A 
HETATM   13  C   UNL     1      40.235 -13.969   0.702  1.00  0.00     0.013 A 
HETATM   14  C   UNL     1      41.007 -14.396  -0.390  1.00  0.00    -0.026 A 
HETATM   15  C   UNL     1      41.668 -15.631  -0.273  1.00  0.00     0.013 A 
HETATM   16  C   UNL     1      41.544 -16.418   0.880  1.00  0.00     0.008 A 
BRANCH  14  17
HETATM   17  C   UNL     1      41.109 -13.575  -1.613  1.00  0.00    -0.026 A 
HETATM   18  C   UNL     1      39.973 -13.275  -2.386  1.00  0.00     0.012 A 
HETATM   19  C   UNL     1      40.070 -12.520  -3.559  1.00  0.00     0.001 A 
HETATM   20  C   UNL     1      41.309 -12.046  -3.980  1.00  0.00     0.000 A 
HETATM   21  C   UNL     1      42.447 -12.325  -3.230  1.00  0.00     0.001 A 
HETATM   22  C   UNL     1      42.347 -13.082  -2.059  1.00  0.00     0.012 A 
ENDBRANCH  14  17
ENDBRANCH  10  11
ENDBRANCH   7  10
ENDBRANCH   1   6
BRANCH   2  23
HETATM   23  C   UNL     1      44.109 -17.712   5.881  1.00  0.00     0.732 A 
HETATM   24  N   UNL     1      44.372 -18.290   4.745  1.00  0.00    -0.067 NA
HETATM   25  C   UNL     1      44.397 -19.655   4.810  1.00  0.00     0.065 A 
HETATM   26  C   UNL     1      44.185 -20.394   5.901  1.00  0.00     0.036 A 
HETATM   27  C   UNL     1      44.685 -20.518   3.627  1.00  0.00     0.061 C 
HETATM   28  C   UNL     1      44.300 -21.850   5.663  1.00  0.00     0.047 C 
HETATM   29  C   UNL     1      43.890 -19.728   7.168  1.00  0.00     0.268 A 
HETATM   30  C   UNL     1      44.948 -21.885   4.274  1.00  0.00     0.011 C 
HETATM   31  O   UNL     1      43.691 -20.341   8.206  1.00  0.00    -0.267 OA
HETATM   32  N   UNL     1      43.862 -18.366   7.067  1.00  0.00    -0.152 N 
HETATM   33  H   UNL     1      43.669 -17.817   7.900  1.00  0.00     0.188 HD
ENDBRANCH   2  23
BRANCH   4  34
HETATM   34  C   UNL     1      45.009 -13.383   7.861  1.00  0.00     0.105 A 
HETATM   35  O   UNL     1      44.461 -13.106   9.084  1.00  0.00    -0.320 OA
HETATM   36  C   UNL     1      45.212 -12.128   9.651  1.00  0.00     0.142 A 
HETATM   37  C   UNL     1      46.241 -11.765   8.816  1.00  0.00     0.027 A 
HETATM   38  C   UNL     1      46.109 -12.572   7.659  1.00  0.00     0.041 A 
ENDBRANCH   4  34
TORSDOF 6
ENDMDL
MODEL 4
REMARK VINA RESULT:      -9.0      3.521      8.379
REMARK  6 active torsions:
REMARK  status: ('A' for Active; 'I' for Inactive)
REMARK    1  A    between atoms: C_4  and  C_5 
REMARK    2  A    between atoms: C_8  and  C_9 
REMARK    3  A    between atoms: C_9  and  C_10 
REMARK       I    between atoms: C_10  and  N_11 
REMARK    4  A    between atoms: N_11  and  C_12 
REMARK    5  A    between atoms: N_13  and  C_14 
REMARK    6  A    between atoms: C_25  and  C_26 
ROOT
HETATM    1  C   UNL     1      41.622 -14.650   5.119  1.00  0.00     0.152 A 
HETATM    2  N   UNL     1      41.632 -15.843   4.410  1.00  0.00    -0.044 N 
HETATM    3  N   UNL     1      40.754 -15.835   3.360  1.00  0.00    -0.148 NA
HETATM    4  C   UNL     1      40.197 -14.618   3.418  1.00  0.00     0.115 A 
HETATM    5  C   UNL     1      40.676 -13.861   4.505  1.00  0.00     0.087 A 
ENDROOT
BRANCH   1   6
HETATM    6  N   UNL     1      42.473 -14.411   6.190  1.00  0.00    -0.311 N 
HETATM    7  C   UNL     1      43.738 -13.870   6.039  1.00  0.00     0.227 C 
HETATM    8  O   UNL     1      44.183 -13.364   5.010  1.00  0.00    -0.273 OA
HETATM    9  H   UNL     1      42.147 -14.686   7.117  1.00  0.00     0.170 HD
BRANCH   7  10
HETATM   10  C   UNL     1      44.600 -14.007   7.286  1.00  0.00     0.141 C 
BRANCH  10  11
HETATM   11  C   UNL     1      44.259 -12.979   8.341  1.00  0.00    -0.049 A 
HETATM   12  C   UNL     1      44.824 -13.045   9.621  1.00  0.00     0.008 A 
HETATM   13  C   UNL     1      44.497 -12.102  10.598  1.00  0.00     0.013 A 
HETATM   14  C   UNL     1      43.615 -11.044  10.325  1.00  0.00    -0.026 A 
HETATM   15  C   UNL     1      43.082 -10.964   9.027  1.00  0.00     0.013 A 
HETATM   16  C   UNL     1      43.399 -11.915   8.047  1.00  0.00     0.008 A 
BRANCH  14  17
HETATM   17  C   UNL     1      43.262 -10.063  11.370  1.00  0.00    -0.026 A 
HETATM   18  C   UNL     1      42.537  -8.898  11.061  1.00  0.00     0.012 A 
HETATM   19  C   UNL     1      42.224  -7.954  12.044  1.00  0.00     0.001 A 
HETATM   20  C   UNL     1      42.628  -8.160  13.360  1.00  0.00     0.000 A 
HETATM   21  C   UNL     1      43.342  -9.308  13.692  1.00  0.00     0.001 A 
HETATM   22  C   UNL     1      43.656 -10.248  12.706  1.00  0.00     0.012 A 
ENDBRANCH  14  17
ENDBRANCH  10  11
ENDBRANCH   7  10
ENDBRANCH   1   6
BRANCH   2  23
HETATM   23  C   UNL     1      42.404 -16.995   4.660  1.00  0.00     0.732 A 
HETATM   24  N   UNL     1      42.538 -17.527   5.840  1.00  0.00    -0.067 NA
HETATM   25  C   UNL     1      43.314 -18.652   5.856  1.00  0.00     0.065 A 
HETATM   26  C   UNL     1      43.907 -19.213   4.800  1.00  0.00     0.036 A 
HETATM   27  C   UNL     1      43.595 -19.425   7.102  1.00  0.00     0.061 C 
HETATM   28  C   UNL     1      44.667 -20.440   5.129  1.00  0.00     0.047 C 
HETATM   29  C   UNL     1      43.746 -18.602   3.483  1.00  0.00     0.268 A 
HETATM   30  C   UNL     1      44.173 -20.736   6.551  1.00  0.00     0.011 C 
HETATM   31  O   UNL     1      44.256 -19.064   2.473  1.00  0.00    -0.267 OA
HETATM   32  N   UNL     1      42.975 -17.474   3.502  1.00  0.00    -0.152 N 
HETATM   33  H   UNL     1      42.803 -16.983   2.630  1.00  0.00     0.188 HD
ENDBRANCH   2  23
BRANCH   4  34
HETATM   34  C   UNL     1      39.202 -14.133   2.418  1.00  0.00     0.105 A 
HETATM   35  O   UNL     1      38.448 -14.951   1.621  1.00  0.00    -0.320 OA
HETATM   36  C   UNL     1      37.649 -14.154   0.865  1.00  0.00     0.142 A 
HETATM   37  C   UNL     1      37.873 -12.831   1.158  1.00  0.00     0.027 A 
HETATM   38  C   UNL     1      38.877 -12.815   2.158  1.00  0.00     0.041 A 
ENDBRANCH   4  34
TORSDOF 6
ENDMDL
MODEL 5
REMARK VINA RESULT:      -8.9      2.695      4.424
REMARK  6 active torsions:
REMARK  status: ('A' for Active; 'I' for Inactive)
REMARK    1  A    between atoms: C_4  and  C_5 
REMARK    2  A    between atoms: C_8  and  C_9 
REMARK    3  A    between atoms: C_9  and  C_10 
REMARK       I    between atoms: C_10  and  N_11 
REMARK    4  A    between atoms: N_11  and  C_12 
REMARK    5  A    between atoms: N_13  and  C_14 
REMARK    6  A    between atoms: C_25  and  C_26 
ROOT
HETATM    1  C   UNL     1      41.382 -11.693   5.540  1.00  0.00     0.152 A 
HETATM    2  N   UNL     1      40.950 -10.955   6.633  1.00  0.00    -0.044 N 
HETATM    3  N   UNL     1      39.863 -10.176   6.341  1.00  0.00    -0.148 NA
HETATM    4  C   UNL     1      39.617 -10.439   5.051  1.00  0.00     0.115 A 
HETATM    5  C   UNL     1      40.547 -11.344   4.503  1.00  0.00     0.087 A 
ENDROOT
BRANCH   1   6
HETATM    6  N   UNL     1      42.434 -12.596   5.617  1.00  0.00    -0.311 N 
HETATM    7  C   UNL     1      42.258 -13.929   5.943  1.00  0.00     0.227 C 
HETATM    8  O   UNL     1      41.178 -14.515   6.007  1.00  0.00    -0.273 OA
HETATM    9  H   UNL     1      43.375 -12.233   5.459  1.00  0.00     0.170 HD
BRANCH   7  10
HETATM   10  C   UNL     1      43.560 -14.637   6.290  1.00  0.00     0.141 C 
BRANCH  10  11
HETATM   11  C   UNL     1      43.692 -15.976   5.599  1.00  0.00    -0.049 A 
HETATM   12  C   UNL     1      44.123 -17.109   6.301  1.00  0.00     0.008 A 
HETATM   13  C   UNL     1      44.258 -18.342   5.658  1.00  0.00     0.013 A 
HETATM   14  C   UNL     1      43.941 -18.494   4.299  1.00  0.00    -0.026 A 
HETATM   15  C   UNL     1      43.474 -17.361   3.612  1.00  0.00     0.013 A 
HETATM   16  C   UNL     1      43.348 -16.120   4.251  1.00  0.00     0.008 A 
BRANCH  14  17
HETATM   17  C   UNL     1      44.104 -19.797   3.624  1.00  0.00    -0.026 A 
HETATM   18  C   UNL     1      43.657 -19.996   2.306  1.00  0.00     0.012 A 
HETATM   19  C   UNL     1      43.785 -21.237   1.674  1.00  0.00     0.001 A 
HETATM   20  C   UNL     1      44.371 -22.304   2.349  1.00  0.00     0.000 A 
HETATM   21  C   UNL     1      44.827 -22.131   3.652  1.00  0.00     0.001 A 
HETATM   22  C   UNL     1      44.693 -20.890   4.283  1.00  0.00     0.012 A 
ENDBRANCH  14  17
ENDBRANCH  10  11
ENDBRANCH   7  10
ENDBRANCH   1   6
BRANCH   2  23
HETATM   23  C   UNL     1      41.496 -10.925   7.931  1.00  0.00     0.732 A 
HETATM   24  N   UNL     1      42.774 -10.875   8.170  1.00  0.00    -0.067 NA
HETATM   25  C   UNL     1      43.088 -10.834   9.501  1.00  0.00     0.065 A 
HETATM   26  C   UNL     1      42.219 -10.836  10.514  1.00  0.00     0.036 A 
HETATM   27  C   UNL     1      44.493 -10.768  10.000  1.00  0.00     0.061 C 
HETATM   28  C   UNL     1      42.861 -10.763  11.845  1.00  0.00     0.047 C 
HETATM   29  C   UNL     1      40.788 -10.894  10.226  1.00  0.00     0.268 A 
HETATM   30  C   UNL     1      44.300 -10.384  11.474  1.00  0.00     0.011 C 
HETATM   31  O   UNL     1      39.937 -10.894  11.103  1.00  0.00    -0.267 OA
HETATM   32  N   UNL     1      40.508 -10.945   8.890  1.00  0.00    -0.152 N 
HETATM   33  H   UNL     1      39.537 -10.982   8.594  1.00  0.00     0.188 HD
ENDBRANCH   2  23
BRANCH   4  34
HETATM   34  C   UNL     1      38.468  -9.847   4.307  1.00  0.00     0.105 A 
HETATM   35  O   UNL     1      37.957 -10.359   3.145  1.00  0.00    -0.320 OA
HETATM   36  C   UNL     1      36.912  -9.572   2.782  1.00  0.00     0.142 A 
HETATM   37  C   UNL     1      36.736  -8.555   3.689  1.00  0.00     0.027 A 
HETATM   38  C   UNL     1      37.742  -8.730   4.672  1.00  0.00     0.041 A 
ENDBRANCH   4  34
TORSDOF 6
ENDMDL
MODEL 6
REMARK VINA RESULT:      -8.9      3.014      9.636
REMARK  6 active torsions:
REMARK  status: ('A' for Active; 'I' for Inactive)
REMARK    1  A    between atoms: C_4  and  C_5 
REMARK    2  A    between atoms: C_8  and  C_9 
REMARK    3  A    between atoms: C_9  and  C_10 
REMARK       I    between atoms: C_10  and  N_11 
REMARK    4  A    between atoms: N_11  and  C_12 
REMARK    5  A    between atoms: N_13  and  C_14 
REMARK    6  A    between atoms: C_25  and  C_26 
ROOT
HETATM    1  C   UNL     1      44.160 -15.502   6.900  1.00  0.00     0.152 A 
HETATM    2  N   UNL     1      43.365 -15.448   5.763  1.00  0.00    -0.044 N 
HETATM    3  N   UNL     1      43.288 -16.654   5.122  1.00  0.00    -0.148 NA
HETATM    4  C   UNL     1      44.043 -17.466   5.874  1.00  0.00     0.115 A 
HETATM    5  C   UNL     1      44.629 -16.794   6.964  1.00  0.00     0.087 A 
ENDROOT
BRANCH   1   6
HETATM    6  N   UNL     1      44.337 -14.411   7.740  1.00  0.00    -0.311 N 
HETATM    7  C   UNL     1      45.280 -13.425   7.504  1.00  0.00     0.227 C 
HETATM    8  O   UNL     1      45.921 -13.281   6.465  1.00  0.00    -0.273 OA
HETATM    9  H   UNL     1      43.761 -14.369   8.582  1.00  0.00     0.170 HD
BRANCH   7  10
HETATM   10  C   UNL     1      45.517 -12.524   8.707  1.00  0.00     0.141 C 
BRANCH  10  11
HETATM   11  C   UNL     1      44.241 -11.897   9.221  1.00  0.00    -0.049 A 
HETATM   12  C   UNL     1      43.331 -11.293   8.344  1.00  0.00     0.008 A 
HETATM   13  C   UNL     1      42.159 -10.702   8.823  1.00  0.00     0.013 A 
HETATM   14  C   UNL     1      41.841 -10.717  10.190  1.00  0.00    -0.026 A 
HETATM   15  C   UNL     1      42.741 -11.358  11.058  1.00  0.00     0.013 A 
HETATM   16  C   UNL     1      43.923 -11.943  10.583  1.00  0.00     0.008 A 
BRANCH  14  17
HETATM   17  C   UNL     1      40.609 -10.074  10.688  1.00  0.00    -0.026 A 
HETATM   18  C   UNL     1      40.547  -9.516  11.978  1.00  0.00     0.012 A 
HETATM   19  C   UNL     1      39.374  -8.931  12.462  1.00  0.00     0.001 A 
HETATM   20  C   UNL     1      38.237  -8.886  11.661  1.00  0.00     0.000 A 
HETATM   21  C   UNL     1      38.274  -9.426  10.378  1.00  0.00     0.001 A 
HETATM   22  C   UNL     1      39.448 -10.014   9.898  1.00  0.00     0.012 A 
ENDBRANCH  14  17
ENDBRANCH  10  11
ENDBRANCH   7  10
ENDBRANCH   1   6
BRANCH   2  23
HETATM   23  C   UNL     1      42.681 -14.336   5.234  1.00  0.00     0.732 A 
HETATM   24  N   UNL     1      41.871 -13.594   5.932  1.00  0.00    -0.067 NA
HETATM   25  C   UNL     1      41.328 -12.554   5.229  1.00  0.00     0.065 A 
HETATM   26  C   UNL     1      41.564 -12.263   3.948  1.00  0.00     0.036 A 
HETATM   27  C   UNL     1      40.379 -11.575   5.835  1.00  0.00     0.061 C 
HETATM   28  C   UNL     1      40.844 -11.061   3.471  1.00  0.00     0.047 C 
HETATM   29  C   UNL     1      42.475 -13.109   3.180  1.00  0.00     0.268 A 
HETATM   30  C   UNL     1      40.356 -10.451   4.790  1.00  0.00     0.011 C 
HETATM   31  O   UNL     1      42.740 -12.898   2.006  1.00  0.00    -0.267 OA
HETATM   32  N   UNL     1      42.992 -14.144   3.907  1.00  0.00    -0.152 N 
HETATM   33  H   UNL     1      43.641 -14.782   3.457  1.00  0.00     0.188 HD
ENDBRANCH   2  23
BRANCH   4  34
HETATM   34  C   UNL     1      44.209 -18.920   5.584  1.00  0.00     0.105 A 
HETATM   35  O   UNL     1      44.725 -19.420   4.419  1.00  0.00    -0.320 OA
HETATM   36  C   UNL     1      44.741 -20.773   4.532  1.00  0.00     0.142 A 
HETATM   37  C   UNL     1      44.242 -21.161   5.752  1.00  0.00     0.027 A 
HETATM   38  C   UNL     1      43.896 -19.966   6.431  1.00  0.00     0.041 A 
ENDBRANCH   4  34
TORSDOF 6
ENDMDL
MODEL 7
REMARK VINA RESULT:      -8.7      3.295      5.451
REMARK  6 active torsions:
REMARK  status: ('A' for Active; 'I' for Inactive)
REMARK    1  A    between atoms: C_4  and  C_5 
REMARK    2  A    between atoms: C_8  and  C_9 
REMARK    3  A    between atoms: C_9  and  C_10 
REMARK       I    between atoms: C_10  and  N_11 
REMARK    4  A    between atoms: N_11  and  C_12 
REMARK    5  A    between atoms: N_13  and  C_14 
REMARK    6  A    between atoms: C_25  and  C_26 
ROOT
HETATM    1  C   UNL     1      40.977 -12.795  -0.089  1.00  0.00     0.152 A 
HETATM    2  N   UNL     1      41.831 -12.157   0.799  1.00  0.00    -0.044 N 
HETATM    3  N   UNL     1      42.428 -11.055   0.250  1.00  0.00    -0.148 NA
HETATM    4  C   UNL     1      41.934 -11.009  -0.994  1.00  0.00     0.115 A 
HETATM    5  C   UNL     1      41.059 -12.081  -1.262  1.00  0.00     0.087 A 
ENDROOT
BRANCH   1   6
HETATM    6  N   UNL     1      40.220 -13.903   0.269  1.00  0.00    -0.311 N 
HETATM    7  C   UNL     1      39.244 -13.862   1.250  1.00  0.00     0.227 C 
HETATM    8  O   UNL     1      38.795 -12.843   1.771  1.00  0.00    -0.273 OA
HETATM    9  H   UNL     1      40.432 -14.786  -0.197  1.00  0.00     0.170 HD
BRANCH   7  10
HETATM   10  C   UNL     1      38.787 -15.243   1.697  1.00  0.00     0.141 C 
BRANCH  10  11
HETATM   11  C   UNL     1      39.936 -16.114   2.151  1.00  0.00    -0.049 A 
HETATM   12  C   UNL     1      40.636 -16.916   1.240  1.00  0.00     0.008 A 
HETATM   13  C   UNL     1      41.689 -17.730   1.664  1.00  0.00     0.013 A 
HETATM   14  C   UNL     1      42.098 -17.754   3.006  1.00  0.00    -0.026 A 
HETATM   15  C   UNL     1      41.415 -16.918   3.906  1.00  0.00     0.013 A 
HETATM   16  C   UNL     1      40.351 -16.108   3.487  1.00  0.00     0.008 A 
BRANCH  14  17
HETATM   17  C   UNL     1      43.200 -18.632   3.447  1.00  0.00    -0.026 A 
HETATM   18  C   UNL     1      43.728 -19.621   2.598  1.00  0.00     0.012 A 
HETATM   19  C   UNL     1      44.754 -20.471   3.023  1.00  0.00     0.001 A 
HETATM   20  C   UNL     1      45.276 -20.345   4.307  1.00  0.00     0.000 A 
HETATM   21  C   UNL     1      44.774 -19.370   5.164  1.00  0.00     0.001 A 
HETATM   22  C   UNL     1      43.746 -18.523   4.737  1.00  0.00     0.012 A 
ENDBRANCH  14  17
ENDBRANCH  10  11
ENDBRANCH   7  10
ENDBRANCH   1   6
BRANCH   2  23
HETATM   23  C   UNL     1      42.132 -12.519   2.127  1.00  0.00     0.732 A 
HETATM   24  N   UNL     1      42.930 -13.497   2.441  1.00  0.00    -0.067 NA
HETATM   25  C   UNL     1      43.099 -13.666   3.788  1.00  0.00     0.065 A 
HETATM   26  C   UNL     1      42.534 -12.931   4.748  1.00  0.00     0.036 A 
HETATM   27  C   UNL     1      43.976 -14.724   4.368  1.00  0.00     0.061 C 
HETATM   28  C   UNL     1      42.925 -13.341   6.115  1.00  0.00     0.047 C 
HETATM   29  C   UNL     1      41.639 -11.837   4.377  1.00  0.00     0.268 A 
HETATM   30  C   UNL     1      44.107 -14.275   5.830  1.00  0.00     0.011 C 
HETATM   31  O   UNL     1      41.092 -11.121   5.203  1.00  0.00    -0.267 OA
HETATM   32  N   UNL     1      41.483 -11.702   3.027  1.00  0.00    -0.152 N 
HETATM   33  H   UNL     1      40.882 -10.963   2.674  1.00  0.00     0.188 HD
ENDBRANCH   2  23
BRANCH   4  34
HETATM   34  C   UNL     1      42.266  -9.923  -1.960  1.00  0.00     0.105 A 
HETATM   35  O   UNL     1      42.546  -8.632  -1.602  1.00  0.00    -0.320 OA
HETATM   36  C   UNL     1      42.821  -7.947  -2.742  1.00  0.00     0.142 A 
HETATM   37  C   UNL     1      42.724  -8.772  -3.836  1.00  0.00     0.027 A 
HETATM   38  C   UNL     1      42.363 -10.047  -3.333  1.00  0.00     0.041 A 
ENDBRANCH   4  34
TORSDOF 6
ENDMDL
MODEL 8
REMARK VINA RESULT:      -8.6      3.250      9.328
REMARK  6 active torsions:
REMARK  status: ('A' for Active; 'I' for Inactive)
REMARK    1  A    between atoms: C_4  and  C_5 
REMARK    2  A    between atoms: C_8  and  C_9 
REMARK    3  A    between atoms: C_9  and  C_10 
REMARK       I    between atoms: C_10  and  N_11 
REMARK    4  A    between atoms: N_11  and  C_12 
REMARK    5  A    between atoms: N_13  and  C_14 
REMARK    6  A    between atoms: C_25  and  C_26 
ROOT
HETATM    1  C   UNL     1      41.175 -14.920   5.071  1.00  0.00     0.152 A 
HETATM    2  N   UNL     1      41.177 -15.519   3.819  1.00  0.00    -0.044 N 
HETATM    3  N   UNL     1      41.876 -16.696   3.803  1.00  0.00    -0.148 NA
HETATM    4  C   UNL     1      42.309 -16.828   5.064  1.00  0.00     0.115 A 
HETATM    5  C   UNL     1      41.931 -15.741   5.877  1.00  0.00     0.087 A 
ENDROOT
BRANCH   1   6
HETATM    6  N   UNL     1      40.482 -13.747   5.336  1.00  0.00    -0.311 N 
HETATM    7  C   UNL     1      41.028 -12.490   5.142  1.00  0.00     0.227 C 
HETATM    8  O   UNL     1      42.077 -12.249   4.547  1.00  0.00    -0.273 OA
HETATM    9  H   UNL     1      39.542 -13.836   5.724  1.00  0.00     0.170 HD
BRANCH   7  10
HETATM   10  C   UNL     1      40.224 -11.380   5.802  1.00  0.00     0.141 C 
BRANCH  10  11
HETATM   11  C   UNL     1      40.640 -11.137   7.235  1.00  0.00    -0.049 A 
HETATM   12  C   UNL     1      41.973 -10.850   7.559  1.00  0.00     0.008 A 
HETATM   13  C   UNL     1      42.358 -10.639   8.885  1.00  0.00     0.013 A 
HETATM   14  C   UNL     1      41.423 -10.681   9.932  1.00  0.00    -0.026 A 
HETATM   15  C   UNL     1      40.083 -10.932   9.593  1.00  0.00     0.013 A 
HETATM   16  C   UNL     1      39.694 -11.155   8.265  1.00  0.00     0.008 A 
BRANCH  14  17
HETATM   17  C   UNL     1      41.844 -10.475  11.332  1.00  0.00    -0.026 A 
HETATM   18  C   UNL     1      40.997 -10.809  12.404  1.00  0.00     0.012 A 
HETATM   19  C   UNL     1      41.382 -10.590  13.730  1.00  0.00     0.001 A 
HETATM   20  C   UNL     1      42.627 -10.036  14.011  1.00  0.00     0.000 A 
HETATM   21  C   UNL     1      43.486  -9.703  12.967  1.00  0.00     0.001 A 
HETATM   22  C   UNL     1      43.097  -9.920  11.642  1.00  0.00     0.012 A 
ENDBRANCH  14  17
ENDBRANCH  10  11
ENDBRANCH   7  10
ENDBRANCH   1   6
BRANCH   2  23
HETATM   23  C   UNL     1      40.574 -15.055   2.633  1.00  0.00     0.732 A 
HETATM   24  N   UNL     1      39.293 -14.873   2.504  1.00  0.00    -0.067 NA
HETATM   25  C   UNL     1      38.921 -14.398   1.277  1.00  0.00     0.065 A 
HETATM   26  C   UNL     1      39.740 -14.119   0.261  1.00  0.00     0.036 A 
HETATM   27  C   UNL     1      37.502 -14.112   0.914  1.00  0.00     0.061 C 
HETATM   28  C   UNL     1      39.044 -13.598  -0.937  1.00  0.00     0.047 C 
HETATM   29  C   UNL     1      41.177 -14.330   0.424  1.00  0.00     0.268 A 
HETATM   30  C   UNL     1      37.651 -13.291  -0.374  1.00  0.00     0.011 C 
HETATM   31  O   UNL     1      41.985 -14.091  -0.462  1.00  0.00    -0.267 OA
HETATM   32  N   UNL     1      41.515 -14.815   1.656  1.00  0.00    -0.152 N 
HETATM   33  H   UNL     1      42.494 -14.988   1.863  1.00  0.00     0.188 HD
ENDBRANCH   2  23
BRANCH   4  34
HETATM   34  C   UNL     1      43.082 -18.013   5.537  1.00  0.00     0.105 A 
HETATM   35  O   UNL     1      43.090 -18.463   6.829  1.00  0.00    -0.320 OA
HETATM   36  C   UNL     1      43.880 -19.565   6.869  1.00  0.00     0.142 A 
HETATM   37  C   UNL     1      44.388 -19.840   5.623  1.00  0.00     0.027 A 
HETATM   38  C   UNL     1      43.876 -18.837   4.762  1.00  0.00     0.041 A 
ENDBRANCH   4  34
TORSDOF 6
ENDMDL
MODEL 9
REMARK VINA RESULT:      -8.2      2.405      4.467
REMARK  6 active torsions:
REMARK  status: ('A' for Active; 'I' for Inactive)
REMARK    1  A    between atoms: C_4  and  C_5 
REMARK    2  A    between atoms: C_8  and  C_9 
REMARK    3  A    between atoms: C_9  and  C_10 
REMARK       I    between atoms: C_10  and  N_11 
REMARK    4  A    between atoms: N_11  and  C_12 
REMARK    5  A    between atoms: N_13  and  C_14 
REMARK    6  A    between atoms: C_25  and  C_26 
ROOT
HETATM    1  C   UNL     1      40.894 -11.488   5.720  1.00  0.00     0.152 A 
HETATM    2  N   UNL     1      39.612 -11.259   5.242  1.00  0.00    -0.044 N 
HETATM    3  N   UNL     1      38.825 -10.602   6.148  1.00  0.00    -0.148 NA
HETATM    4  C   UNL     1      39.633 -10.419   7.201  1.00  0.00     0.115 A 
HETATM    5  C   UNL     1      40.911 -10.978   6.998  1.00  0.00     0.087 A 
ENDROOT
BRANCH   1   6
HETATM    6  N   UNL     1      41.881 -12.090   4.951  1.00  0.00    -0.311 N 
HETATM    7  C   UNL     1      42.211 -13.429   5.064  1.00  0.00     0.227 C 
HETATM    8  O   UNL     1      41.570 -14.275   5.686  1.00  0.00    -0.273 OA
HETATM    9  H   UNL     1      42.401 -11.494   4.305  1.00  0.00     0.170 HD
BRANCH   7  10
HETATM   10  C   UNL     1      43.522 -13.783   4.376  1.00  0.00     0.141 C 
BRANCH  10  11
HETATM   11  C   UNL     1      43.634 -15.259   4.069  1.00  0.00    -0.049 A 
HETATM   12  C   UNL     1      43.830 -16.195   5.093  1.00  0.00     0.008 A 
HETATM   13  C   UNL     1      43.947 -17.557   4.806  1.00  0.00     0.013 A 
HETATM   14  C   UNL     1      43.846 -18.037   3.491  1.00  0.00    -0.026 A 
HETATM   15  C   UNL     1      43.612 -17.095   2.474  1.00  0.00     0.013 A 
HETATM   16  C   UNL     1      43.505 -15.726   2.757  1.00  0.00     0.008 A 
BRANCH  14  17
HETATM   17  C   UNL     1      43.990 -19.476   3.196  1.00  0.00    -0.026 A 
HETATM   18  C   UNL     1      43.502 -20.027   1.997  1.00  0.00     0.012 A 
HETATM   19  C   UNL     1      43.612 -21.394   1.727  1.00  0.00     0.001 A 
HETATM   20  C   UNL     1      44.220 -22.239   2.651  1.00  0.00     0.000 A 
HETATM   21  C   UNL     1      44.716 -21.717   3.842  1.00  0.00     0.001 A 
HETATM   22  C   UNL     1      44.601 -20.350   4.111  1.00  0.00     0.012 A 
ENDBRANCH  14  17
ENDBRANCH  10  11
ENDBRANCH   7  10
ENDBRANCH   1   6
BRANCH   2  23
HETATM   23  C   UNL     1      39.073 -11.625   3.992  1.00  0.00     0.732 A 
HETATM   24  N   UNL     1      39.291 -12.777   3.427  1.00  0.00    -0.067 NA
HETATM   25  C   UNL     1      38.656 -12.934   2.226  1.00  0.00     0.065 A 
HETATM   26  C   UNL     1      37.868 -12.036   1.630  1.00  0.00     0.036 A 
HETATM   27  C   UNL     1      38.763 -14.178   1.409  1.00  0.00     0.061 C 
HETATM   28  C   UNL     1      37.306 -12.502   0.343  1.00  0.00     0.047 C 
HETATM   29  C   UNL     1      37.636 -10.748   2.280  1.00  0.00     0.268 A 
HETATM   30  C   UNL     1      37.629 -14.001   0.391  1.00  0.00     0.011 C 
HETATM   31  O   UNL     1      36.922  -9.882   1.794  1.00  0.00    -0.267 OA
HETATM   32  N   UNL     1      38.291 -10.618   3.471  1.00  0.00    -0.152 N 
HETATM   33  H   UNL     1      38.185  -9.757   3.998  1.00  0.00     0.188 HD
ENDBRANCH   2  23
BRANCH   4  34
HETATM   34  C   UNL     1      39.214  -9.682   8.428  1.00  0.00     0.105 A 
HETATM   35  O   UNL     1      38.740 -10.282   9.563  1.00  0.00    -0.320 OA
HETATM   36  C   UNL     1      38.487  -9.299  10.465  1.00  0.00     0.142 A 
HETATM   37  C   UNL     1      38.789  -8.069   9.933  1.00  0.00     0.027 A 
HETATM   38  C   UNL     1      39.255  -8.314   8.618  1.00  0.00     0.041 A 
ENDBRANCH   4  34
TORSDOF 6
ENDMDL
MODEL 10
REMARK VINA RESULT:      -7.9      3.733      7.006
REMARK  6 active torsions:
REMARK  status: ('A' for Active; 'I' for Inactive)
REMARK    1  A    between atoms: C_4  and  C_5 
REMARK    2  A    between atoms: C_8  and  C_9 
REMARK    3  A    between atoms: C_9  and  C_10 
REMARK       I    between atoms: C_10  and  N_11 
REMARK    4  A    between atoms: N_11  and  C_12 
REMARK    5  A    between atoms: N_13  and  C_14 
REMARK    6  A    between atoms: C_25  and  C_26 
ROOT
HETATM    1  C   UNL     1      40.436 -13.572  -0.659  1.00  0.00     0.152 A 
HETATM    2  N   UNL     1      39.666 -12.484  -0.271  1.00  0.00    -0.044 N 
HETATM    3  N   UNL     1      38.584 -12.293  -1.086  1.00  0.00    -0.148 NA
HETATM    4  C   UNL     1      38.683 -13.278  -1.988  1.00  0.00     0.115 A 
HETATM    5  C   UNL     1      39.828 -14.075  -1.786  1.00  0.00     0.087 A 
ENDROOT
BRANCH   1   6
HETATM    6  N   UNL     1      41.552 -13.989   0.055  1.00  0.00    -0.311 N 
HETATM    7  C   UNL     1      41.465 -14.623   1.282  1.00  0.00     0.227 C 
HETATM    8  O   UNL     1      40.436 -15.064   1.790  1.00  0.00    -0.273 OA
HETATM    9  H   UNL     1      42.468 -13.778  -0.342  1.00  0.00     0.170 HD
BRANCH   7  10
HETATM   10  C   UNL     1      42.796 -14.686   2.018  1.00  0.00     0.141 C 
BRANCH  10  11
HETATM   11  C   UNL     1      43.176 -16.097   2.407  1.00  0.00    -0.049 A 
HETATM   12  C   UNL     1      43.564 -17.031   1.438  1.00  0.00     0.008 A 
HETATM   13  C   UNL     1      43.902 -18.338   1.799  1.00  0.00     0.013 A 
HETATM   14  C   UNL     1      43.890 -18.751   3.140  1.00  0.00    -0.026 A 
HETATM   15  C   UNL     1      43.536 -17.797   4.109  1.00  0.00     0.013 A 
HETATM   16  C   UNL     1      43.186 -16.487   3.750  1.00  0.00     0.008 A 
BRANCH  14  17
HETATM   17  C   UNL     1      44.231 -20.139   3.509  1.00  0.00    -0.026 A 
HETATM   18  C   UNL     1      44.579 -20.479   4.829  1.00  0.00     0.012 A 
HETATM   19  C   UNL     1      44.929 -21.788   5.175  1.00  0.00     0.001 A 
HETATM   20  C   UNL     1      44.931 -22.786   4.206  1.00  0.00     0.000 A 
HETATM   21  C   UNL     1      44.585 -22.477   2.894  1.00  0.00     0.001 A 
HETATM   22  C   UNL     1      44.240 -21.167   2.550  1.00  0.00     0.012 A 
ENDBRANCH  14  17
ENDBRANCH  10  11
ENDBRANCH   7  10
ENDBRANCH   1   6
BRANCH   2  23
HETATM   23  C   UNL     1      39.886 -11.606   0.809  1.00  0.00     0.732 A 
HETATM   24  N   UNL     1      40.528 -10.480   0.699  1.00  0.00    -0.067 NA
HETATM   25  C   UNL     1      40.610  -9.772   1.866  1.00  0.00     0.065 A 
HETATM   26  C   UNL     1      40.100 -10.137   3.044  1.00  0.00     0.036 A 
HETATM   27  C   UNL     1      41.298  -8.451   1.965  1.00  0.00     0.061 C 
HETATM   28  C   UNL     1      40.333  -9.150   4.122  1.00  0.00     0.047 C 
HETATM   29  C   UNL     1      39.382 -11.405   3.149  1.00  0.00     0.268 A 
HETATM   30  C   UNL     1      40.811  -7.930   3.325  1.00  0.00     0.011 C 
HETATM   31  O   UNL     1      38.885 -11.799   4.194  1.00  0.00    -0.267 OA
HETATM   32  N   UNL     1      39.327 -12.093   1.970  1.00  0.00    -0.152 N 
HETATM   33  H   UNL     1      38.843 -12.985   1.945  1.00  0.00     0.188 HD
ENDBRANCH   2  23
BRANCH   4  34
HETATM   34  C   UNL     1      37.671 -13.502  -3.060  1.00  0.00     0.105 A 
HETATM   35  O   UNL     1      37.395 -14.721  -3.617  1.00  0.00    -0.320 OA
HETATM   36  C   UNL     1      36.410 -14.534  -4.533  1.00  0.00     0.142 A 
HETATM   37  C   UNL     1      36.043 -13.211  -4.581  1.00  0.00     0.027 A 
HETATM   38  C   UNL     1      36.857 -12.543  -3.633  1.00  0.00     0.041 A 
ENDBRANCH   4  34
TORSDOF 6
ENDMDL
