MODEL 1
REMARK VINA RESULT:     -10.0      0.000      0.000
REMARK  8 active torsions:
REMARK  status: ('A' for Active; 'I' for Inactive)
REMARK    1  A    between atoms: C_4  and  S_5 
REMARK    2  A    between atoms: S_5  and  C_6 
REMARK    3  A    between atoms: C_6  and  C_7 
REMARK       I    between atoms: C_7  and  N_8 
REMARK    4  A    between atoms: N_8  and  C_9 
REMARK    5  A    between atoms: C_11  and  C_12 
REMARK    6  A    between atoms: C_23  and  C_24 
REMARK    7  A    between atoms: C_30  and  C_31 
REMARK       I    between atoms: C_31  and  N_32 
REMARK    8  A    between atoms: N_32  and  C_33 
ROOT
HETATM    1  C   UNL     1      43.709 -16.527   6.549  1.00  0.00     0.069 C 
HETATM    2  C   UNL     1      43.277 -15.472   5.564  1.00  0.00     0.019 C 
HETATM    3  N   UNL     1      42.571 -15.931   4.462  1.00  0.00    -0.353 N 
HETATM    4  C   UNL     1      42.155 -15.162   3.387  1.00  0.00     0.087 C 
HETATM    5  C   UNL     1      42.349 -13.825   3.439  1.00  0.00     0.055 C 
HETATM    6  C   UNL     1      42.102 -12.880   2.275  1.00  0.00     0.019 C 
HETATM    7  N   UNL     1      41.898 -12.095   1.309  1.00  0.00    -0.096 N 
HETATM    8  C   UNL     1      42.799 -13.162   4.745  1.00  0.00     0.104 C 
HETATM    9  C   UNL     1      43.465 -14.140   5.716  1.00  0.00     0.046 C 
HETATM   10  H   UNL     1      42.361 -16.925   4.396  1.00  0.00     0.166 HD
ENDROOT
BRANCH   4  11
HETATM   11  S   UNL     1      41.187 -15.918   2.145  1.00  0.00    -0.102 SA
BRANCH  11  12
HETATM   12  C   UNL     1      42.350 -16.316   0.806  1.00  0.00     0.184 C 
BRANCH  12  13
HETATM   13  C   UNL     1      43.342 -17.405   1.244  1.00  0.00     0.231 C 
HETATM   14  N   UNL     1      42.745 -18.550   1.743  1.00  0.00    -0.327 N 
HETATM   15  H   UNL     1      41.734 -18.498   1.834  1.00  0.00     0.169 HD
HETATM   16  O   UNL     1      44.550 -17.233   1.094  1.00  0.00    -0.272 OA
BRANCH  14  17
HETATM   17  C   UNL     1      43.346 -19.718   2.244  1.00  0.00     0.035 A 
HETATM   18  C   UNL     1      43.703 -19.906   3.580  1.00  0.00     0.045 A 
HETATM   19  C   UNL     1      44.297 -21.111   4.002  1.00  0.00     0.050 A 
HETATM   20  C   UNL     1      44.515 -22.134   3.065  1.00  0.00     0.016 A 
HETATM   21  C   UNL     1      44.162 -21.952   1.731  1.00  0.00     0.003 A 
HETATM   22  C   UNL     1      43.587 -20.748   1.324  1.00  0.00     0.029 A 
BRANCH  19  23
HETATM   23  C   UNL     1      44.684 -21.326   5.444  1.00  0.00     0.417 C 
HETATM   24  F   UNL     1      43.667 -21.773   6.230  1.00  0.00    -0.166 F 
HETATM   25  F   UNL     1      45.689 -22.236   5.578  1.00  0.00    -0.166 F 
HETATM   26  F   UNL     1      45.139 -20.186   6.036  1.00  0.00    -0.166 F 
ENDBRANCH  19  23
ENDBRANCH  14  17
ENDBRANCH  12  13
ENDBRANCH  11  12
ENDBRANCH   4  11
BRANCH   8  27
HETATM   27  C   UNL     1      41.573 -12.473   5.369  1.00  0.00    -0.042 A 
HETATM   28  C   UNL     1      41.504 -11.076   5.506  1.00  0.00     0.027 A 
HETATM   29  C   UNL     1      40.394 -10.515   6.117  1.00  0.00     0.116 A 
HETATM   30  N   UNL     1      39.366 -11.233   6.610  1.00  0.00    -0.273 NA
HETATM   31  C   UNL     1      39.444 -12.573   6.468  1.00  0.00     0.116 A 
HETATM   32  C   UNL     1      40.509 -13.231   5.868  1.00  0.00     0.027 A 
ENDBRANCH   8  27
BRANCH   9  33
HETATM   33  C   UNL     1      44.240 -13.483   6.818  1.00  0.00     0.255 C 
HETATM   34  N   UNL     1      43.468 -12.774   7.712  1.00  0.00    -0.323 N 
HETATM   35  H   UNL     1      42.469 -12.757   7.557  1.00  0.00     0.169 HD
HETATM   36  O   UNL     1      45.446 -13.679   6.900  1.00  0.00    -0.268 OA
BRANCH  34  37
HETATM   37  C   UNL     1      43.925 -12.037   8.829  1.00  0.00     0.035 A 
HETATM   38  C   UNL     1      45.138 -12.274   9.481  1.00  0.00     0.029 A 
HETATM   39  C   UNL     1      45.522 -11.492  10.576  1.00  0.00     0.002 A 
HETATM   40  C   UNL     1      44.702 -10.462  11.025  1.00  0.00     0.000 A 
HETATM   41  C   UNL     1      43.491 -10.215  10.383  1.00  0.00     0.002 A 
HETATM   42  C   UNL     1      43.102 -11.002   9.294  1.00  0.00     0.029 A 
ENDBRANCH  34  37
ENDBRANCH   9  33
TORSDOF 8
ENDMDL
MODEL 2
REMARK VINA RESULT:      -9.7      4.305      9.304
REMARK  8 active torsions:
REMARK  status: ('A' for Active; 'I' for Inactive)
REMARK    1  A    between atoms: C_4  and  S_5 
REMARK    2  A    between atoms: S_5  and  C_6 
REMARK    3  A    between atoms: C_6  and  C_7 
REMARK       I    between atoms: C_7  and  N_8 
REMARK    4  A    between atoms: N_8  and  C_9 
REMARK    5  A    between atoms: C_11  and  C_12 
REMARK    6  A    between atoms: C_23  and  C_24 
REMARK    7  A    between atoms: C_30  and  C_31 
REMARK       I    between atoms: C_31  and  N_32 
REMARK    8  A    between atoms: N_32  and  C_33 
ROOT
HETATM    1  C   UNL     1      43.686 -14.765   5.768  1.00  0.00     0.069 C 
HETATM    2  C   UNL     1      42.515 -14.221   4.993  1.00  0.00     0.019 C 
HETATM    3  N   UNL     1      42.289 -12.859   5.122  1.00  0.00    -0.353 N 
HETATM    4  C   UNL     1      41.223 -12.158   4.580  1.00  0.00     0.087 C 
HETATM    5  C   UNL     1      40.370 -12.816   3.762  1.00  0.00     0.055 C 
HETATM    6  C   UNL     1      39.071 -12.230   3.233  1.00  0.00     0.019 C 
HETATM    7  N   UNL     1      37.993 -11.744   2.794  1.00  0.00    -0.096 N 
HETATM    8  C   UNL     1      40.709 -14.225   3.267  1.00  0.00     0.104 C 
HETATM    9  C   UNL     1      41.737 -14.939   4.149  1.00  0.00     0.046 C 
HETATM   10  H   UNL     1      42.928 -12.310   5.693  1.00  0.00     0.166 HD
ENDROOT
BRANCH   4  11
HETATM   11  S   UNL     1      41.178 -10.423   4.777  1.00  0.00    -0.102 SA
BRANCH  11  12
HETATM   12  C   UNL     1      40.407 -10.144   6.399  1.00  0.00     0.184 C 
BRANCH  12  13
HETATM   13  C   UNL     1      41.461  -9.771   7.453  1.00  0.00     0.231 C 
HETATM   14  N   UNL     1      41.770 -10.793   8.335  1.00  0.00    -0.327 N 
HETATM   15  H   UNL     1      41.206 -11.631   8.229  1.00  0.00     0.169 HD
HETATM   16  O   UNL     1      41.982  -8.658   7.433  1.00  0.00    -0.272 OA
BRANCH  14  17
HETATM   17  C   UNL     1      42.665 -10.788   9.419  1.00  0.00     0.035 A 
HETATM   18  C   UNL     1      42.334 -10.368  10.708  1.00  0.00     0.045 A 
HETATM   19  C   UNL     1      43.290 -10.401  11.741  1.00  0.00     0.050 A 
HETATM   20  C   UNL     1      44.582 -10.877  11.466  1.00  0.00     0.016 A 
HETATM   21  C   UNL     1      44.918 -11.297  10.184  1.00  0.00     0.003 A 
HETATM   22  C   UNL     1      43.965 -11.247   9.166  1.00  0.00     0.029 A 
BRANCH  19  23
HETATM   23  C   UNL     1      42.943  -9.951  13.139  1.00  0.00     0.417 C 
HETATM   24  F   UNL     1      43.910  -9.202  13.736  1.00  0.00    -0.166 F 
HETATM   25  F   UNL     1      41.810  -9.195  13.171  1.00  0.00    -0.166 F 
HETATM   26  F   UNL     1      42.712 -10.998  13.980  1.00  0.00    -0.166 F 
ENDBRANCH  19  23
ENDBRANCH  14  17
ENDBRANCH  12  13
ENDBRANCH  11  12
ENDBRANCH   4  11
BRANCH   8  27
HETATM   27  C   UNL     1      41.180 -14.110   1.808  1.00  0.00    -0.042 A 
HETATM   28  C   UNL     1      41.891 -12.988   1.349  1.00  0.00     0.027 A 
HETATM   29  C   UNL     1      42.249 -12.920   0.013  1.00  0.00     0.116 A 
HETATM   30  N   UNL     1      41.945 -13.867  -0.895  1.00  0.00    -0.273 NA
HETATM   31  C   UNL     1      41.265 -14.942  -0.440  1.00  0.00     0.116 A 
HETATM   32  C   UNL     1      40.863 -15.107   0.878  1.00  0.00     0.027 A 
ENDBRANCH   8  27
BRANCH   9  33
HETATM   33  C   UNL     1      41.817 -16.419   3.928  1.00  0.00     0.255 C 
HETATM   34  N   UNL     1      43.046 -16.864   3.491  1.00  0.00    -0.323 N 
HETATM   35  H   UNL     1      43.773 -16.175   3.361  1.00  0.00     0.169 HD
HETATM   36  O   UNL     1      40.855 -17.120   4.218  1.00  0.00    -0.268 OA
BRANCH  34  37
HETATM   37  C   UNL     1      43.403 -18.196   3.178  1.00  0.00     0.035 A 
HETATM   38  C   UNL     1      43.029 -18.852   2.002  1.00  0.00     0.029 A 
HETATM   39  C   UNL     1      43.432 -20.171   1.764  1.00  0.00     0.002 A 
HETATM   40  C   UNL     1      44.218 -20.843   2.693  1.00  0.00     0.000 A 
HETATM   41  C   UNL     1      44.599 -20.200   3.868  1.00  0.00     0.002 A 
HETATM   42  C   UNL     1      44.189 -18.885   4.112  1.00  0.00     0.029 A 
ENDBRANCH  34  37
ENDBRANCH   9  33
TORSDOF 8
ENDMDL
MODEL 3
REMARK VINA RESULT:      -9.6      4.293      7.955
REMARK  8 active torsions:
REMARK  status: ('A' for Active; 'I' for Inactive)
REMARK    1  A    between atoms: C_4  and  S_5 
REMARK    2  A    between atoms: S_5  and  C_6 
REMARK    3  A    between atoms: C_6  and  C_7 
REMARK       I    between atoms: C_7  and  N_8 
REMARK    4  A    between atoms: N_8  and  C_9 
REMARK    5  A    between atoms: C_11  and  C_12 
REMARK    6  A    between atoms: C_23  and  C_24 
REMARK    7  A    between atoms: C_30  and  C_31 
REMARK       I    between atoms: C_31  and  N_32 
REMARK    8  A    between atoms: N_32  and  C_33 
ROOT
HETATM    1  C   UNL     1      40.969 -10.205   1.517  1.00  0.00     0.069 C 
HETATM    2  C   UNL     1      41.208 -11.644   1.144  1.00  0.00     0.019 C 
HETATM    3  N   UNL     1      40.696 -12.587   2.023  1.00  0.00    -0.353 N 
HETATM    4  C   UNL     1      40.872 -13.959   1.936  1.00  0.00     0.087 C 
HETATM    5  C   UNL     1      41.506 -14.458   0.851  1.00  0.00     0.055 C 
HETATM    6  C   UNL     1      41.920 -15.912   0.697  1.00  0.00     0.019 C 
HETATM    7  N   UNL     1      42.264 -17.119   0.569  1.00  0.00    -0.096 N 
HETATM    8  C   UNL     1      41.807 -13.555  -0.349  1.00  0.00     0.104 C 
HETATM    9  C   UNL     1      41.809 -12.066   0.006  1.00  0.00     0.046 C 
HETATM   10  H   UNL     1      40.173 -12.264   2.834  1.00  0.00     0.166 HD
ENDROOT
BRANCH   4  11
HETATM   11  S   UNL     1      40.056 -14.981   3.093  1.00  0.00    -0.102 SA
BRANCH  11  12
HETATM   12  C   UNL     1      41.226 -15.175   4.471  1.00  0.00     0.184 C 
BRANCH  12  13
HETATM   13  C   UNL     1      41.634 -16.646   4.644  1.00  0.00     0.231 C 
HETATM   14  N   UNL     1      42.857 -16.967   4.081  1.00  0.00    -0.327 N 
HETATM   15  H   UNL     1      43.294 -16.215   3.555  1.00  0.00     0.169 HD
HETATM   16  O   UNL     1      40.913 -17.413   5.280  1.00  0.00    -0.272 OA
BRANCH  14  17
HETATM   17  C   UNL     1      43.516 -18.208   4.038  1.00  0.00     0.035 A 
HETATM   18  C   UNL     1      43.328 -19.162   3.038  1.00  0.00     0.045 A 
HETATM   19  C   UNL     1      44.034 -20.381   3.066  1.00  0.00     0.050 A 
HETATM   20  C   UNL     1      44.944 -20.623   4.107  1.00  0.00     0.016 A 
HETATM   21  C   UNL     1      45.135 -19.676   5.108  1.00  0.00     0.003 A 
HETATM   22  C   UNL     1      44.420 -18.479   5.075  1.00  0.00     0.029 A 
BRANCH  19  23
HETATM   23  C   UNL     1      43.840 -21.419   1.988  1.00  0.00     0.417 C 
HETATM   24  F   UNL     1      42.538 -21.639   1.658  1.00  0.00    -0.166 F 
HETATM   25  F   UNL     1      44.470 -21.081   0.828  1.00  0.00    -0.166 F 
HETATM   26  F   UNL     1      44.345 -22.635   2.341  1.00  0.00    -0.166 F 
ENDBRANCH  19  23
ENDBRANCH  14  17
ENDBRANCH  12  13
ENDBRANCH  11  12
ENDBRANCH   4  11
BRANCH   8  27
HETATM   27  C   UNL     1      40.788 -13.884  -1.453  1.00  0.00    -0.042 A 
HETATM   28  C   UNL     1      39.410 -13.693  -1.264  1.00  0.00     0.027 A 
HETATM   29  C   UNL     1      38.536 -14.051  -2.277  1.00  0.00     0.116 A 
HETATM   30  N   UNL     1      38.926 -14.592  -3.448  1.00  0.00    -0.273 NA
HETATM   31  C   UNL     1      40.254 -14.766  -3.618  1.00  0.00     0.116 A 
HETATM   32  C   UNL     1      41.210 -14.438  -2.667  1.00  0.00     0.027 A 
ENDBRANCH   8  27
BRANCH   9  33
HETATM   33  C   UNL     1      42.453 -11.187  -1.023  1.00  0.00     0.255 C 
HETATM   34  N   UNL     1      41.587 -10.698  -1.977  1.00  0.00    -0.323 N 
HETATM   35  H   UNL     1      40.614 -10.964  -1.904  1.00  0.00     0.169 HD
HETATM   36  O   UNL     1      43.639 -10.902  -0.908  1.00  0.00    -0.268 OA
BRANCH  34  37
HETATM   37  C   UNL     1      41.914  -9.871  -3.075  1.00  0.00     0.035 A 
HETATM   38  C   UNL     1      42.041  -8.481  -3.000  1.00  0.00     0.029 A 
HETATM   39  C   UNL     1      42.377  -7.734  -4.135  1.00  0.00     0.002 A 
HETATM   40  C   UNL     1      42.597  -8.369  -5.352  1.00  0.00     0.000 A 
HETATM   41  C   UNL     1      42.475  -9.753  -5.441  1.00  0.00     0.002 A 
HETATM   42  C   UNL     1      42.130 -10.500  -4.309  1.00  0.00     0.029 A 
ENDBRANCH  34  37
ENDBRANCH   9  33
TORSDOF 8
ENDMDL
MODEL 4
REMARK VINA RESULT:      -9.6      3.514      8.692
REMARK  8 active torsions:
REMARK  status: ('A' for Active; 'I' for Inactive)
REMARK    1  A    between atoms: C_4  and  S_5 
REMARK    2  A    between atoms: S_5  and  C_6 
REMARK    3  A    between atoms: C_6  and  C_7 
REMARK       I    between atoms: C_7  and  N_8 
REMARK    4  A    between atoms: N_8  and  C_9 
REMARK    5  A    between atoms: C_11  and  C_12 
REMARK    6  A    between atoms: C_23  and  C_24 
REMARK    7  A    between atoms: C_30  and  C_31 
REMARK       I    between atoms: C_31  and  N_32 
REMARK    8  A    between atoms: N_32  and  C_33 
ROOT
HETATM    1  C   UNL     1      43.656 -13.880   5.456  1.00  0.00     0.069 C 
HETATM    2  C   UNL     1      42.445 -13.498   4.646  1.00  0.00     0.019 C 
HETATM    3  N   UNL     1      42.158 -12.142   4.594  1.00  0.00    -0.353 N 
HETATM    4  C   UNL     1      41.050 -11.569   3.992  1.00  0.00     0.087 C 
HETATM    5  C   UNL     1      40.211 -12.369   3.294  1.00  0.00     0.055 C 
HETATM    6  C   UNL     1      38.875 -11.917   2.726  1.00  0.00     0.019 C 
HETATM    7  N   UNL     1      37.767 -11.544   2.255  1.00  0.00    -0.096 N 
HETATM    8  C   UNL     1      40.605 -13.817   2.987  1.00  0.00     0.104 C 
HETATM    9  C   UNL     1      41.683 -14.358   3.929  1.00  0.00     0.046 C 
HETATM   10  H   UNL     1      42.783 -11.493   5.068  1.00  0.00     0.166 HD
ENDROOT
BRANCH   4  11
HETATM   11  S   UNL     1      40.928  -9.827   3.952  1.00  0.00    -0.102 SA
BRANCH  11  12
HETATM   12  C   UNL     1      40.131  -9.366   5.519  1.00  0.00     0.184 C 
BRANCH  12  13
HETATM   13  C   UNL     1      41.155  -9.313   6.663  1.00  0.00     0.231 C 
HETATM   14  N   UNL     1      41.079 -10.378   7.544  1.00  0.00    -0.327 N 
HETATM   15  H   UNL     1      40.307 -11.017   7.374  1.00  0.00     0.169 HD
HETATM   16  O   UNL     1      41.977  -8.400   6.711  1.00  0.00    -0.272 OA
BRANCH  14  17
HETATM   17  C   UNL     1      41.842 -10.632   8.698  1.00  0.00     0.035 A 
HETATM   18  C   UNL     1      43.173 -11.049   8.683  1.00  0.00     0.045 A 
HETATM   19  C   UNL     1      43.867 -11.277   9.886  1.00  0.00     0.050 A 
HETATM   20  C   UNL     1      43.210 -11.065  11.109  1.00  0.00     0.016 A 
HETATM   21  C   UNL     1      41.883 -10.651  11.130  1.00  0.00     0.003 A 
HETATM   22  C   UNL     1      41.202 -10.442   9.931  1.00  0.00     0.029 A 
BRANCH  19  23
HETATM   23  C   UNL     1      45.308 -11.725   9.882  1.00  0.00     0.417 C 
HETATM   24  F   UNL     1      45.672 -12.430  10.987  1.00  0.00    -0.166 F 
HETATM   25  F   UNL     1      45.597 -12.522   8.816  1.00  0.00    -0.166 F 
HETATM   26  F   UNL     1      46.178 -10.678   9.806  1.00  0.00    -0.166 F 
ENDBRANCH  19  23
ENDBRANCH  14  17
ENDBRANCH  12  13
ENDBRANCH  11  12
ENDBRANCH   4  11
BRANCH   8  27
HETATM   27  C   UNL     1      41.039 -13.883   1.513  1.00  0.00    -0.042 A 
HETATM   28  C   UNL     1      41.827 -12.875   0.931  1.00  0.00     0.027 A 
HETATM   29  C   UNL     1      42.149 -12.966  -0.413  1.00  0.00     0.116 A 
HETATM   30  N   UNL     1      41.739 -13.966  -1.217  1.00  0.00    -0.273 NA
HETATM   31  C   UNL     1      40.986 -14.929  -0.644  1.00  0.00     0.116 A 
HETATM   32  C   UNL     1      40.612 -14.933   0.692  1.00  0.00     0.027 A 
ENDBRANCH   8  27
BRANCH   9  33
HETATM   33  C   UNL     1      41.827 -15.850   3.909  1.00  0.00     0.255 C 
HETATM   34  N   UNL     1      43.007 -16.301   3.358  1.00  0.00    -0.323 N 
HETATM   35  H   UNL     1      43.661 -15.607   3.023  1.00  0.00     0.169 HD
HETATM   36  O   UNL     1      40.965 -16.541   4.437  1.00  0.00    -0.268 OA
BRANCH  34  37
HETATM   37  C   UNL     1      43.402 -17.647   3.185  1.00  0.00     0.035 A 
HETATM   38  C   UNL     1      44.082 -18.394   4.150  1.00  0.00     0.029 A 
HETATM   39  C   UNL     1      44.431 -19.727   3.904  1.00  0.00     0.002 A 
HETATM   40  C   UNL     1      44.097 -20.327   2.694  1.00  0.00     0.000 A 
HETATM   41  C   UNL     1      43.418 -19.594   1.725  1.00  0.00     0.002 A 
HETATM   42  C   UNL     1      43.077 -18.259   1.967  1.00  0.00     0.029 A 
ENDBRANCH  34  37
ENDBRANCH   9  33
TORSDOF 8
ENDMDL
MODEL 5
REMARK VINA RESULT:      -9.3      3.727      7.514
REMARK  8 active torsions:
REMARK  status: ('A' for Active; 'I' for Inactive)
REMARK    1  A    between atoms: C_4  and  S_5 
REMARK    2  A    between atoms: S_5  and  C_6 
REMARK    3  A    between atoms: C_6  and  C_7 
REMARK       I    between atoms: C_7  and  N_8 
REMARK    4  A    between atoms: N_8  and  C_9 
REMARK    5  A    between atoms: C_11  and  C_12 
REMARK    6  A    between atoms: C_23  and  C_24 
REMARK    7  A    between atoms: C_30  and  C_31 
REMARK       I    between atoms: C_31  and  N_32 
REMARK    8  A    between atoms: N_32  and  C_33 
ROOT
HETATM    1  C   UNL     1      41.061 -16.323   0.167  1.00  0.00     0.069 C 
HETATM    2  C   UNL     1      41.045 -15.106   1.055  1.00  0.00     0.019 C 
HETATM    3  N   UNL     1      42.086 -15.013   1.967  1.00  0.00    -0.353 N 
HETATM    4  C   UNL     1      42.228 -14.038   2.941  1.00  0.00     0.087 C 
HETATM    5  C   UNL     1      41.344 -13.014   2.959  1.00  0.00     0.055 C 
HETATM    6  C   UNL     1      41.269 -11.970   4.061  1.00  0.00     0.019 C 
HETATM    7  N   UNL     1      41.206 -11.103   4.975  1.00  0.00    -0.096 N 
HETATM    8  C   UNL     1      40.365 -12.821   1.797  1.00  0.00     0.104 C 
HETATM    9  C   UNL     1      40.149 -14.094   0.975  1.00  0.00     0.046 C 
HETATM   10  H   UNL     1      42.802 -15.737   1.965  1.00  0.00     0.166 HD
ENDROOT
BRANCH   4  11
HETATM   11  S   UNL     1      43.670 -14.044   3.926  1.00  0.00    -0.102 SA
BRANCH  11  12
HETATM   12  C   UNL     1      43.232 -14.997   5.411  1.00  0.00     0.184 C 
BRANCH  12  13
HETATM   13  C   UNL     1      42.964 -16.469   5.062  1.00  0.00     0.231 C 
HETATM   14  N   UNL     1      44.025 -17.109   4.446  1.00  0.00    -0.327 N 
HETATM   15  H   UNL     1      44.815 -16.509   4.227  1.00  0.00     0.169 HD
HETATM   16  O   UNL     1      41.894 -16.989   5.372  1.00  0.00    -0.272 OA
BRANCH  14  17
HETATM   17  C   UNL     1      44.114 -18.433   3.980  1.00  0.00     0.035 A 
HETATM   18  C   UNL     1      44.400 -19.533   4.789  1.00  0.00     0.045 A 
HETATM   19  C   UNL     1      44.464 -20.829   4.243  1.00  0.00     0.050 A 
HETATM   20  C   UNL     1      44.223 -21.009   2.872  1.00  0.00     0.016 A 
HETATM   21  C   UNL     1      43.939 -19.916   2.059  1.00  0.00     0.003 A 
HETATM   22  C   UNL     1      43.891 -18.636   2.611  1.00  0.00     0.029 A 
BRANCH  19  23
HETATM   23  C   UNL     1      44.770 -22.026   5.110  1.00  0.00     0.417 C 
HETATM   24  F   UNL     1      46.092 -22.343   5.169  1.00  0.00    -0.166 F 
HETATM   25  F   UNL     1      44.369 -21.845   6.399  1.00  0.00    -0.166 F 
HETATM   26  F   UNL     1      44.135 -23.153   4.681  1.00  0.00    -0.166 F 
ENDBRANCH  19  23
ENDBRANCH  14  17
ENDBRANCH  12  13
ENDBRANCH  11  12
ENDBRANCH   4  11
BRANCH   8  27
HETATM   27  C   UNL     1      40.883 -11.657   0.935  1.00  0.00    -0.042 A 
HETATM   28  C   UNL     1      42.103 -11.739   0.244  1.00  0.00     0.027 A 
HETATM   29  C   UNL     1      42.541 -10.642  -0.479  1.00  0.00     0.116 A 
HETATM   30  N   UNL     1      41.869  -9.476  -0.555  1.00  0.00    -0.273 NA
HETATM   31  C   UNL     1      40.696  -9.413   0.111  1.00  0.00     0.116 A 
HETATM   32  C   UNL     1      40.169 -10.456   0.860  1.00  0.00     0.027 A 
ENDBRANCH   8  27
BRANCH   9  33
HETATM   33  C   UNL     1      38.946 -14.056   0.082  1.00  0.00     0.255 C 
HETATM   34  N   UNL     1      39.233 -13.859  -1.251  1.00  0.00    -0.323 N 
HETATM   35  H   UNL     1      40.205 -13.762  -1.511  1.00  0.00     0.169 HD
HETATM   36  O   UNL     1      37.840 -14.277   0.560  1.00  0.00    -0.268 OA
BRANCH  34  37
HETATM   37  C   UNL     1      38.304 -13.755  -2.312  1.00  0.00     0.035 A 
HETATM   38  C   UNL     1      37.870 -14.837  -3.083  1.00  0.00     0.029 A 
HETATM   39  C   UNL     1      36.940 -14.651  -4.112  1.00  0.00     0.002 A 
HETATM   40  C   UNL     1      36.429 -13.384  -4.374  1.00  0.00     0.000 A 
HETATM   41  C   UNL     1      36.852 -12.298  -3.612  1.00  0.00     0.002 A 
HETATM   42  C   UNL     1      37.789 -12.482  -2.590  1.00  0.00     0.029 A 
ENDBRANCH  34  37
ENDBRANCH   9  33
TORSDOF 8
ENDMDL
MODEL 6
REMARK VINA RESULT:      -9.2      4.907      8.824
REMARK  8 active torsions:
REMARK  status: ('A' for Active; 'I' for Inactive)
REMARK    1  A    between atoms: C_4  and  S_5 
REMARK    2  A    between atoms: S_5  and  C_6 
REMARK    3  A    between atoms: C_6  and  C_7 
REMARK       I    between atoms: C_7  and  N_8 
REMARK    4  A    between atoms: N_8  and  C_9 
REMARK    5  A    between atoms: C_11  and  C_12 
REMARK    6  A    between atoms: C_23  and  C_24 
REMARK    7  A    between atoms: C_30  and  C_31 
REMARK       I    between atoms: C_31  and  N_32 
REMARK    8  A    between atoms: N_32  and  C_33 
ROOT
HETATM    1  C   UNL     1      40.883 -15.898  -2.673  1.00  0.00     0.069 C 
HETATM    2  C   UNL     1      40.751 -14.842  -1.607  1.00  0.00     0.019 C 
HETATM    3  N   UNL     1      41.425 -15.097  -0.421  1.00  0.00    -0.353 N 
HETATM    4  C   UNL     1      41.374 -14.319   0.725  1.00  0.00     0.087 C 
HETATM    5  C   UNL     1      40.700 -13.147   0.677  1.00  0.00     0.055 C 
HETATM    6  C   UNL     1      40.415 -12.275   1.889  1.00  0.00     0.019 C 
HETATM    7  N   UNL     1      40.178 -11.552   2.895  1.00  0.00    -0.096 N 
HETATM    8  C   UNL     1      40.212 -12.593  -0.665  1.00  0.00     0.104 C 
HETATM    9  C   UNL     1      40.098 -13.665  -1.752  1.00  0.00     0.046 C 
HETATM   10  H   UNL     1      41.982 -15.945  -0.349  1.00  0.00     0.166 HD
ENDROOT
BRANCH   4  11
HETATM   11  S   UNL     1      42.380 -14.763   2.081  1.00  0.00    -0.102 SA
BRANCH  11  12
HETATM   12  C   UNL     1      41.229 -15.349   3.360  1.00  0.00     0.184 C 
BRANCH  12  13
HETATM   13  C   UNL     1      41.682 -16.702   3.931  1.00  0.00     0.231 C 
HETATM   14  N   UNL     1      42.896 -17.148   3.438  1.00  0.00    -0.327 N 
HETATM   15  H   UNL     1      43.296 -16.571   2.704  1.00  0.00     0.169 HD
HETATM   16  O   UNL     1      41.002 -17.268   4.785  1.00  0.00    -0.272 OA
BRANCH  14  17
HETATM   17  C   UNL     1      43.588 -18.338   3.726  1.00  0.00     0.035 A 
HETATM   18  C   UNL     1      43.577 -19.470   2.911  1.00  0.00     0.045 A 
HETATM   19  C   UNL     1      44.303 -20.621   3.271  1.00  0.00     0.050 A 
HETATM   20  C   UNL     1      45.054 -20.617   4.457  1.00  0.00     0.016 A 
HETATM   21  C   UNL     1      45.068 -19.491   5.274  1.00  0.00     0.003 A 
HETATM   22  C   UNL     1      44.334 -18.362   4.913  1.00  0.00     0.029 A 
BRANCH  19  23
HETATM   23  C   UNL     1      44.300 -21.850   2.395  1.00  0.00     0.417 C 
HETATM   24  F   UNL     1      44.548 -23.008   3.065  1.00  0.00    -0.166 F 
HETATM   25  F   UNL     1      43.107 -22.030   1.762  1.00  0.00    -0.166 F 
HETATM   26  F   UNL     1      45.236 -21.785   1.406  1.00  0.00    -0.166 F 
ENDBRANCH  19  23
ENDBRANCH  14  17
ENDBRANCH  12  13
ENDBRANCH  11  12
ENDBRANCH   4  11
BRANCH   8  27
HETATM   27  C   UNL     1      41.159 -11.452  -1.075  1.00  0.00    -0.042 A 
HETATM   28  C   UNL     1      40.692 -10.142  -1.272  1.00  0.00     0.027 A 
HETATM   29  C   UNL     1      41.584  -9.166  -1.686  1.00  0.00     0.116 A 
HETATM   30  N   UNL     1      42.889  -9.396  -1.928  1.00  0.00    -0.273 NA
HETATM   31  C   UNL     1      43.325 -10.660  -1.731  1.00  0.00     0.116 A 
HETATM   32  C   UNL     1      42.514 -11.706  -1.316  1.00  0.00     0.027 A 
ENDBRANCH   8  27
BRANCH   9  33
HETATM   33  C   UNL     1      39.287 -13.253  -2.943  1.00  0.00     0.255 C 
HETATM   34  N   UNL     1      37.925 -13.376  -2.775  1.00  0.00    -0.323 N 
HETATM   35  H   UNL     1      37.594 -13.723  -1.885  1.00  0.00     0.169 HD
HETATM   36  O   UNL     1      39.856 -12.774  -3.916  1.00  0.00    -0.268 OA
BRANCH  34  37
HETATM   37  C   UNL     1      36.923 -13.088  -3.729  1.00  0.00     0.035 A 
HETATM   38  C   UNL     1      36.374 -11.819  -3.931  1.00  0.00     0.029 A 
HETATM   39  C   UNL     1      35.389 -11.616  -4.904  1.00  0.00     0.002 A 
HETATM   40  C   UNL     1      34.950 -12.676  -5.690  1.00  0.00     0.000 A 
HETATM   41  C   UNL     1      35.491 -13.945  -5.501  1.00  0.00     0.002 A 
HETATM   42  C   UNL     1      36.468 -14.151  -4.522  1.00  0.00     0.029 A 
ENDBRANCH  34  37
ENDBRANCH   9  33
TORSDOF 8
ENDMDL
MODEL 7
REMARK VINA RESULT:      -9.2      1.586      1.968
REMARK  8 active torsions:
REMARK  status: ('A' for Active; 'I' for Inactive)
REMARK    1  A    between atoms: C_4  and  S_5 
REMARK    2  A    between atoms: S_5  and  C_6 
REMARK    3  A    between atoms: C_6  and  C_7 
REMARK       I    between atoms: C_7  and  N_8 
REMARK    4  A    between atoms: N_8  and  C_9 
REMARK    5  A    between atoms: C_11  and  C_12 
REMARK    6  A    between atoms: C_23  and  C_24 
REMARK    7  A    between atoms: C_30  and  C_31 
REMARK       I    between atoms: C_31  and  N_32 
REMARK    8  A    between atoms: N_32  and  C_33 
ROOT
HETATM    1  C   UNL     1      42.913 -16.180   6.404  1.00  0.00     0.069 C 
HETATM    2  C   UNL     1      42.543 -15.020   5.517  1.00  0.00     0.019 C 
HETATM    3  N   UNL     1      41.695 -15.318   4.460  1.00  0.00    -0.353 N 
HETATM    4  C   UNL     1      41.295 -14.438   3.467  1.00  0.00     0.087 C 
HETATM    5  C   UNL     1      41.666 -13.141   3.569  1.00  0.00     0.055 C 
HETATM    6  C   UNL     1      41.451 -12.103   2.480  1.00  0.00     0.019 C 
HETATM    7  N   UNL     1      41.272 -11.241   1.577  1.00  0.00    -0.096 N 
HETATM    8  C   UNL     1      42.305 -12.622   4.861  1.00  0.00     0.104 C 
HETATM    9  C   UNL     1      42.916 -13.734   5.718  1.00  0.00     0.046 C 
HETATM   10  H   UNL     1      41.352 -16.271   4.364  1.00  0.00     0.166 HD
ENDROOT
BRANCH   4  11
HETATM   11  S   UNL     1      40.138 -14.987   2.280  1.00  0.00    -0.102 SA
BRANCH  11  12
HETATM   12  C   UNL     1      41.120 -15.845   1.013  1.00  0.00     0.184 C 
BRANCH  12  13
HETATM   13  C   UNL     1      41.536 -17.244   1.492  1.00  0.00     0.231 C 
HETATM   14  N   UNL     1      42.730 -17.273   2.194  1.00  0.00    -0.327 N 
HETATM   15  H   UNL     1      43.221 -16.385   2.234  1.00  0.00     0.169 HD
HETATM   16  O   UNL     1      40.805 -18.209   1.280  1.00  0.00    -0.272 OA
BRANCH  14  17
HETATM   17  C   UNL     1      43.406 -18.373   2.751  1.00  0.00     0.035 A 
HETATM   18  C   UNL     1      43.529 -19.615   2.129  1.00  0.00     0.045 A 
HETATM   19  C   UNL     1      44.229 -20.665   2.754  1.00  0.00     0.050 A 
HETATM   20  C   UNL     1      44.817 -20.446   4.010  1.00  0.00     0.016 A 
HETATM   21  C   UNL     1      44.696 -19.209   4.636  1.00  0.00     0.003 A 
HETATM   22  C   UNL     1      43.989 -18.182   4.011  1.00  0.00     0.029 A 
BRANCH  19  23
HETATM   23  C   UNL     1      44.372 -22.012   2.089  1.00  0.00     0.417 C 
HETATM   24  F   UNL     1      43.337 -22.336   1.267  1.00  0.00    -0.166 F 
HETATM   25  F   UNL     1      45.497 -22.094   1.326  1.00  0.00    -0.166 F 
HETATM   26  F   UNL     1      44.463 -23.030   2.991  1.00  0.00    -0.166 F 
ENDBRANCH  19  23
ENDBRANCH  14  17
ENDBRANCH  12  13
ENDBRANCH  11  12
ENDBRANCH   4  11
BRANCH   8  27
HETATM   27  C   UNL     1      41.236 -11.824   5.626  1.00  0.00    -0.042 A 
HETATM   28  C   UNL     1      41.332 -10.431   5.786  1.00  0.00     0.027 A 
HETATM   29  C   UNL     1      40.362  -9.772   6.525  1.00  0.00     0.116 A 
HETATM   30  N   UNL     1      39.324 -10.389   7.120  1.00  0.00    -0.273 NA
HETATM   31  C   UNL     1      39.243 -11.727   6.955  1.00  0.00     0.116 A 
HETATM   32  C   UNL     1      40.159 -12.479   6.232  1.00  0.00     0.027 A 
ENDBRANCH   8  27
BRANCH   9  33
HETATM   33  C   UNL     1      43.858 -13.250   6.777  1.00  0.00     0.255 C 
HETATM   34  N   UNL     1      43.280 -12.429   7.722  1.00  0.00    -0.323 N 
HETATM   35  H   UNL     1      42.294 -12.229   7.626  1.00  0.00     0.169 HD
HETATM   36  O   UNL     1      45.011 -13.662   6.786  1.00  0.00    -0.268 OA
BRANCH  34  37
HETATM   37  C   UNL     1      43.926 -11.808   8.815  1.00  0.00     0.035 A 
HETATM   38  C   UNL     1      45.272 -11.996   9.140  1.00  0.00     0.029 A 
HETATM   39  C   UNL     1      45.838 -11.337  10.237  1.00  0.00     0.002 A 
HETATM   40  C   UNL     1      45.068 -10.478  11.014  1.00  0.00     0.000 A 
HETATM   41  C   UNL     1      43.726 -10.281  10.699  1.00  0.00     0.002 A 
HETATM   42  C   UNL     1      43.156 -10.947   9.609  1.00  0.00     0.029 A 
ENDBRANCH  34  37
ENDBRANCH   9  33
TORSDOF 8
ENDMDL
MODEL 8
REMARK VINA RESULT:      -9.1      2.260      2.937
REMARK  8 active torsions:
REMARK  status: ('A' for Active; 'I' for Inactive)
REMARK    1  A    between atoms: C_4  and  S_5 
REMARK    2  A    between atoms: S_5  and  C_6 
REMARK    3  A    between atoms: C_6  and  C_7 
REMARK       I    between atoms: C_7  and  N_8 
REMARK    4  A    between atoms: N_8  and  C_9 
REMARK    5  A    between atoms: C_11  and  C_12 
REMARK    6  A    between atoms: C_23  and  C_24 
REMARK    7  A    between atoms: C_30  and  C_31 
REMARK       I    between atoms: C_31  and  N_32 
REMARK    8  A    between atoms: N_32  and  C_33 
ROOT
HETATM    1  C   UNL     1      40.146 -15.029   5.929  1.00  0.00     0.069 C 
HETATM    2  C   UNL     1      40.524 -14.062   4.837  1.00  0.00     0.019 C 
HETATM    3  N   UNL     1      40.215 -14.463   3.545  1.00  0.00    -0.353 N 
HETATM    4  C   UNL     1      40.548 -13.785   2.384  1.00  0.00     0.087 C 
HETATM    5  C   UNL     1      41.135 -12.572   2.493  1.00  0.00     0.055 C 
HETATM    6  C   UNL     1      41.708 -11.791   1.321  1.00  0.00     0.019 C 
HETATM    7  N   UNL     1      42.184 -11.143   0.349  1.00  0.00    -0.096 N 
HETATM    8  C   UNL     1      41.211 -11.872   3.853  1.00  0.00     0.104 C 
HETATM    9  C   UNL     1      41.064 -12.836   5.033  1.00  0.00     0.046 C 
HETATM   10  H   UNL     1      39.734 -15.350   3.412  1.00  0.00     0.166 HD
ENDROOT
BRANCH   4  11
HETATM   11  S   UNL     1      39.975 -14.411   0.858  1.00  0.00    -0.102 SA
BRANCH  11  12
HETATM   12  C   UNL     1      41.282 -15.533   0.277  1.00  0.00     0.184 C 
BRANCH  12  13
HETATM   13  C   UNL     1      41.471 -16.708   1.248  1.00  0.00     0.231 C 
HETATM   14  N   UNL     1      42.792 -17.070   1.451  1.00  0.00    -0.327 N 
HETATM   15  H   UNL     1      43.464 -16.573   0.873  1.00  0.00     0.169 HD
HETATM   16  O   UNL     1      40.496 -17.210   1.803  1.00  0.00    -0.272 OA
BRANCH  14  17
HETATM   17  C   UNL     1      43.317 -18.101   2.250  1.00  0.00     0.035 A 
HETATM   18  C   UNL     1      43.455 -19.425   1.832  1.00  0.00     0.045 A 
HETATM   19  C   UNL     1      43.997 -20.397   2.695  1.00  0.00     0.050 A 
HETATM   20  C   UNL     1      44.413 -20.018   3.982  1.00  0.00     0.016 A 
HETATM   21  C   UNL     1      44.277 -18.700   4.404  1.00  0.00     0.003 A 
HETATM   22  C   UNL     1      43.727 -17.750   3.544  1.00  0.00     0.029 A 
BRANCH  19  23
HETATM   23  C   UNL     1      44.154 -21.831   2.254  1.00  0.00     0.417 C 
HETATM   24  F   UNL     1      44.271 -22.717   3.280  1.00  0.00    -0.166 F 
HETATM   25  F   UNL     1      43.098 -22.259   1.507  1.00  0.00    -0.166 F 
HETATM   26  F   UNL     1      45.256 -22.018   1.474  1.00  0.00    -0.166 F 
ENDBRANCH  19  23
ENDBRANCH  14  17
ENDBRANCH  12  13
ENDBRANCH  11  12
ENDBRANCH   4  11
BRANCH   8  27
HETATM   27  C   UNL     1      40.142 -10.766   3.873  1.00  0.00    -0.042 A 
HETATM   28  C   UNL     1      40.485  -9.414   4.041  1.00  0.00     0.027 A 
HETATM   29  C   UNL     1      39.475  -8.467   4.097  1.00  0.00     0.116 A 
HETATM   30  N   UNL     1      38.163  -8.763   4.013  1.00  0.00    -0.273 NA
HETATM   31  C   UNL     1      37.849 -10.067   3.849  1.00  0.00     0.116 A 
HETATM   32  C   UNL     1      38.784 -11.089   3.777  1.00  0.00     0.027 A 
ENDBRANCH   8  27
BRANCH   9  33
HETATM   33  C   UNL     1      41.497 -12.270   6.351  1.00  0.00     0.255 C 
HETATM   34  N   UNL     1      42.818 -12.508   6.667  1.00  0.00    -0.323 N 
HETATM   35  H   UNL     1      43.370 -13.030   6.000  1.00  0.00     0.169 HD
HETATM   36  O   UNL     1      40.711 -11.588   6.997  1.00  0.00    -0.268 OA
BRANCH  34  37
HETATM   37  C   UNL     1      43.491 -12.118   7.847  1.00  0.00     0.035 A 
HETATM   38  C   UNL     1      43.038 -11.122   8.715  1.00  0.00     0.029 A 
HETATM   39  C   UNL     1      43.760 -10.800   9.869  1.00  0.00     0.002 A 
HETATM   40  C   UNL     1      44.938 -11.476  10.171  1.00  0.00     0.000 A 
HETATM   41  C   UNL     1      45.400 -12.472   9.315  1.00  0.00     0.002 A 
HETATM   42  C   UNL     1      44.683 -12.788   8.156  1.00  0.00     0.029 A 
ENDBRANCH  34  37
ENDBRANCH   9  33
TORSDOF 8
ENDMDL
MODEL 9
REMARK VINA RESULT:      -9.1      3.829      7.893
REMARK  8 active torsions:
REMARK  status: ('A' for Active; 'I' for Inactive)
REMARK    1  A    between atoms: C_4  and  S_5 
REMARK    2  A    between atoms: S_5  and  C_6 
REMARK    3  A    between atoms: C_6  and  C_7 
REMARK       I    between atoms: C_7  and  N_8 
REMARK    4  A    between atoms: N_8  and  C_9 
REMARK    5  A    between atoms: C_11  and  C_12 
REMARK    6  A    between atoms: C_23  and  C_24 
REMARK    7  A    between atoms: C_30  and  C_31 
REMARK       I    between atoms: C_31  and  N_32 
REMARK    8  A    between atoms: N_32  and  C_33 
ROOT
HETATM    1  C   UNL     1      38.016 -11.495   2.369  1.00  0.00     0.069 C 
HETATM    2  C   UNL     1      39.373 -12.135   2.496  1.00  0.00     0.019 C 
HETATM    3  N   UNL     1      39.846 -12.291   3.791  1.00  0.00    -0.353 N 
HETATM    4  C   UNL     1      41.098 -12.767   4.146  1.00  0.00     0.087 C 
HETATM    5  C   UNL     1      41.913 -13.226   3.169  1.00  0.00     0.055 C 
HETATM    6  C   UNL     1      43.366 -13.617   3.381  1.00  0.00     0.019 C 
HETATM    7  N   UNL     1      44.572 -13.942   3.557  1.00  0.00    -0.096 N 
HETATM    8  C   UNL     1      41.375 -13.428   1.749  1.00  0.00     0.104 C 
HETATM    9  C   UNL     1      40.107 -12.619   1.466  1.00  0.00     0.046 C 
HETATM   10  H   UNL     1      39.253 -12.001   4.565  1.00  0.00     0.166 HD
ENDROOT
BRANCH   4  11
HETATM   11  S   UNL     1      41.460 -12.981   5.841  1.00  0.00    -0.102 SA
BRANCH  11  12
HETATM   12  C   UNL     1      40.324 -14.279   6.414  1.00  0.00     0.184 C 
BRANCH  12  13
HETATM   13  C   UNL     1      40.911 -15.676   6.161  1.00  0.00     0.231 C 
HETATM   14  N   UNL     1      42.241 -15.673   5.778  1.00  0.00    -0.327 N 
HETATM   15  H   UNL     1      42.640 -14.750   5.633  1.00  0.00     0.169 HD
HETATM   16  O   UNL     1      40.220 -16.676   6.345  1.00  0.00    -0.272 OA
BRANCH  14  17
HETATM   17  C   UNL     1      43.074 -16.759   5.453  1.00  0.00     0.035 A 
HETATM   18  C   UNL     1      43.116 -17.367   4.198  1.00  0.00     0.045 A 
HETATM   19  C   UNL     1      43.984 -18.448   3.953  1.00  0.00     0.050 A 
HETATM   20  C   UNL     1      44.823 -18.902   4.984  1.00  0.00     0.016 A 
HETATM   21  C   UNL     1      44.785 -18.300   6.237  1.00  0.00     0.003 A 
HETATM   22  C   UNL     1      43.911 -17.239   6.470  1.00  0.00     0.029 A 
BRANCH  19  23
HETATM   23  C   UNL     1      44.040 -19.112   2.600  1.00  0.00     0.417 C 
HETATM   24  F   UNL     1      44.345 -18.265   1.579  1.00  0.00    -0.166 F 
HETATM   25  F   UNL     1      44.969 -20.107   2.551  1.00  0.00    -0.166 F 
HETATM   26  F   UNL     1      42.857 -19.696   2.258  1.00  0.00    -0.166 F 
ENDBRANCH  19  23
ENDBRANCH  14  17
ENDBRANCH  12  13
ENDBRANCH  11  12
ENDBRANCH   4  11
BRANCH   8  27
HETATM   27  C   UNL     1      41.156 -14.937   1.540  1.00  0.00    -0.042 A 
HETATM   28  C   UNL     1      41.788 -15.636   0.499  1.00  0.00     0.027 A 
HETATM   29  C   UNL     1      41.517 -16.984   0.333  1.00  0.00     0.116 A 
HETATM   30  N   UNL     1      40.661 -17.679   1.108  1.00  0.00    -0.273 NA
HETATM   31  C   UNL     1      40.063 -16.994   2.107  1.00  0.00     0.116 A 
HETATM   32  C   UNL     1      40.270 -15.646   2.359  1.00  0.00     0.027 A 
ENDBRANCH   8  27
BRANCH   9  33
HETATM   33  C   UNL     1      39.766 -12.494   0.012  1.00  0.00     0.255 C 
HETATM   34  N   UNL     1      38.599 -13.129  -0.355  1.00  0.00    -0.323 N 
HETATM   35  H   UNL     1      38.083 -13.612   0.367  1.00  0.00     0.169 HD
HETATM   36  O   UNL     1      40.468 -11.796  -0.709  1.00  0.00    -0.268 OA
BRANCH  34  37
HETATM   37  C   UNL     1      38.046 -13.202  -1.654  1.00  0.00     0.035 A 
HETATM   38  C   UNL     1      37.348 -12.158  -2.268  1.00  0.00     0.029 A 
HETATM   39  C   UNL     1      36.837 -12.307  -3.562  1.00  0.00     0.002 A 
HETATM   40  C   UNL     1      37.027 -13.496  -4.258  1.00  0.00     0.000 A 
HETATM   41  C   UNL     1      37.722 -14.543  -3.659  1.00  0.00     0.002 A 
HETATM   42  C   UNL     1      38.225 -14.398  -2.361  1.00  0.00     0.029 A 
ENDBRANCH  34  37
ENDBRANCH   9  33
TORSDOF 8
ENDMDL
MODEL 10
REMARK VINA RESULT:      -9.1      4.103      9.647
REMARK  8 active torsions:
REMARK  status: ('A' for Active; 'I' for Inactive)
REMARK    1  A    between atoms: C_4  and  S_5 
REMARK    2  A    between atoms: S_5  and  C_6 
REMARK    3  A    between atoms: C_6  and  C_7 
REMARK       I    between atoms: C_7  and  N_8 
REMARK    4  A    between atoms: N_8  and  C_9 
REMARK    5  A    between atoms: C_11  and  C_12 
REMARK    6  A    between atoms: C_23  and  C_24 
REMARK    7  A    between atoms: C_30  and  C_31 
REMARK       I    between atoms: C_31  and  N_32 
REMARK    8  A    between atoms: N_32  and  C_33 
ROOT
HETATM    1  C   UNL     1      41.796 -14.868   1.003  1.00  0.00     0.069 C 
HETATM    2  C   UNL     1      42.337 -14.607   2.385  1.00  0.00     0.019 C 
HETATM    3  N   UNL     1      41.935 -13.417   2.973  1.00  0.00    -0.353 N 
HETATM    4  C   UNL     1      42.375 -12.924   4.192  1.00  0.00     0.087 C 
HETATM    5  C   UNL     1      43.188 -13.701   4.943  1.00  0.00     0.055 C 
HETATM    6  C   UNL     1      43.882 -13.233   6.212  1.00  0.00     0.019 C 
HETATM    7  N   UNL     1      44.459 -12.846   7.265  1.00  0.00    -0.096 N 
HETATM    8  C   UNL     1      43.421 -15.167   4.564  1.00  0.00     0.104 C 
HETATM    9  C   UNL     1      43.108 -15.464   3.095  1.00  0.00     0.046 C 
HETATM   10  H   UNL     1      41.289 -12.816   2.466  1.00  0.00     0.166 HD
ENDROOT
BRANCH   4  11
HETATM   11  S   UNL     1      41.666 -11.450   4.802  1.00  0.00    -0.102 SA
BRANCH  11  12
HETATM   12  C   UNL     1      40.793 -11.931   6.323  1.00  0.00     0.184 C 
BRANCH  12  13
HETATM   13  C   UNL     1      41.178 -11.012   7.492  1.00  0.00     0.231 C 
HETATM   14  N   UNL     1      40.542 -11.314   8.684  1.00  0.00    -0.327 N 
HETATM   15  H   UNL     1      39.842 -12.047   8.620  1.00  0.00     0.169 HD
HETATM   16  O   UNL     1      42.022 -10.133   7.332  1.00  0.00    -0.272 OA
BRANCH  14  17
HETATM   17  C   UNL     1      40.644 -10.673   9.932  1.00  0.00     0.035 A 
HETATM   18  C   UNL     1      41.780 -10.709  10.742  1.00  0.00     0.045 A 
HETATM   19  C   UNL     1      41.802 -10.034  11.977  1.00  0.00     0.050 A 
HETATM   20  C   UNL     1      40.671  -9.308  12.384  1.00  0.00     0.016 A 
HETATM   21  C   UNL     1      39.536  -9.270  11.581  1.00  0.00     0.003 A 
HETATM   22  C   UNL     1      39.522  -9.953  10.366  1.00  0.00     0.029 A 
BRANCH  19  23
HETATM   23  C   UNL     1      43.026 -10.063  12.860  1.00  0.00     0.417 C 
HETATM   24  F   UNL     1      42.925 -10.912  13.919  1.00  0.00    -0.166 F 
HETATM   25  F   UNL     1      44.143 -10.443  12.180  1.00  0.00    -0.166 F 
HETATM   26  F   UNL     1      43.314  -8.840  13.389  1.00  0.00    -0.166 F 
ENDBRANCH  19  23
ENDBRANCH  14  17
ENDBRANCH  12  13
ENDBRANCH  11  12
ENDBRANCH   4  11
BRANCH   8  27
HETATM   27  C   UNL     1      42.587 -16.037   5.520  1.00  0.00    -0.042 A 
HETATM   28  C   UNL     1      43.193 -16.870   6.475  1.00  0.00     0.027 A 
HETATM   29  C   UNL     1      42.393 -17.666   7.278  1.00  0.00     0.116 A 
HETATM   30  N   UNL     1      41.049 -17.705   7.193  1.00  0.00    -0.273 NA
HETATM   31  C   UNL     1      40.480 -16.897   6.273  1.00  0.00     0.116 A 
HETATM   32  C   UNL     1      41.192 -16.061   5.425  1.00  0.00     0.027 A 
ENDBRANCH   8  27
BRANCH   9  33
HETATM   33  C   UNL     1      43.664 -16.762   2.597  1.00  0.00     0.255 C 
HETATM   34  N   UNL     1      43.200 -17.875   3.265  1.00  0.00    -0.323 N 
HETATM   35  H   UNL     1      42.538 -17.727   4.014  1.00  0.00     0.169 HD
HETATM   36  O   UNL     1      44.398 -16.761   1.616  1.00  0.00    -0.268 OA
BRANCH  34  37
HETATM   37  C   UNL     1      43.567 -19.220   3.030  1.00  0.00     0.035 A 
HETATM   38  C   UNL     1      43.195 -19.947   1.896  1.00  0.00     0.029 A 
HETATM   39  C   UNL     1      43.608 -21.275   1.735  1.00  0.00     0.002 A 
HETATM   40  C   UNL     1      44.402 -21.885   2.700  1.00  0.00     0.000 A 
HETATM   41  C   UNL     1      44.780 -21.170   3.834  1.00  0.00     0.002 A 
HETATM   42  C   UNL     1      44.361 -19.846   4.000  1.00  0.00     0.029 A 
ENDBRANCH  34  37
ENDBRANCH   9  33
TORSDOF 8
ENDMDL
