MODEL 1
REMARK VINA RESULT:      -8.9      0.000      0.000
REMARK  7 active torsions:
REMARK  status: ('A' for Active; 'I' for Inactive)
REMARK    1  A    between atoms: O_2  and  C_3 
REMARK    2  A    between atoms: C_5  and  C_6 
REMARK    3  A    between atoms: C_6  and  N_7 
REMARK    4  A    between atoms: C_6  and  C_13 
REMARK    5  A    between atoms: C_13  and  N_14 
REMARK       I    between atoms: N_14  and  C_15 
REMARK       I    between atoms: C_15  and  N_16 
REMARK    6  A    between atoms: N_16  and  C_17 
REMARK    7  A    between atoms: C_18  and  O_19 
ROOT
HETATM    1  N   UNL     1      40.926 -16.187   1.815  1.00  0.00    -0.341 N 
HETATM    2  C   UNL     1      42.213 -16.443   2.216  1.00  0.00     0.316 C 
HETATM    3  N   UNL     1      42.353 -17.689   2.740  1.00  0.00    -0.332 N 
HETATM    4  O   UNL     1      43.138 -15.671   2.004  1.00  0.00    -0.247 OA
HETATM    5  H   UNL     1      40.218 -16.695   2.330  1.00  0.00     0.164 HD
HETATM    6  H   UNL     1      41.595 -18.036   3.311  1.00  0.00     0.165 HD
ENDROOT
BRANCH   1   7
HETATM    7  C   UNL     1      40.569 -14.867   1.311  1.00  0.00     0.162 C 
BRANCH   7   8
HETATM    8  C   UNL     1      40.092 -14.790  -0.180  1.00  0.00     0.238 C 
BRANCH   8   9
HETATM    9  C   UNL     1      41.015 -13.947  -1.053  1.00  0.00    -0.023 A 
HETATM   10  C   UNL     1      41.754 -12.912  -0.451  1.00  0.00     0.046 A 
HETATM   11  C   UNL     1      42.614 -12.099  -1.196  1.00  0.00     0.068 A 
HETATM   12  C   UNL     1      42.768 -12.335  -2.559  1.00  0.00     0.037 A 
HETATM   13  C   UNL     1      42.054 -13.368  -3.170  1.00  0.00     0.003 A 
HETATM   14  C   UNL     1      41.184 -14.168  -2.427  1.00  0.00     0.009 A 
BRANCH  11  15
HETATM   15  O   UNL     1      43.243 -11.126  -0.472  1.00  0.00    -0.356 OA
HETATM   16  C   UNL     1      43.650  -9.961  -1.184  1.00  0.00     0.210 C 
ENDBRANCH  11  15
ENDBRANCH   8   9
BRANCH   8  17
HETATM   17  N   UNL     1      38.638 -14.334  -0.358  1.00  0.00    -0.061 N 
HETATM   18  H   UNL     1      38.180 -15.158  -0.769  1.00  0.00     0.280 HD
HETATM   19  C   UNL     1      38.360 -13.190  -1.295  1.00  0.00     0.236 C 
HETATM   20  C   UNL     1      37.931 -12.058  -0.387  1.00  0.00     0.029 C 
HETATM   21  C   UNL     1      37.137 -12.764   0.691  1.00  0.00     0.029 C 
HETATM   22  C   UNL     1      37.892 -14.059   0.935  1.00  0.00     0.236 C 
ENDBRANCH   8  17
ENDBRANCH   7   8
ENDBRANCH   1   7
BRANCH   3  23
HETATM   23  C   UNL     1      43.658 -18.128   3.205  1.00  0.00     0.149 C 
HETATM   24  C   UNL     1      43.837 -17.988   4.746  1.00  0.00     0.149 C 
HETATM   25  C   UNL     1      44.713 -19.172   5.196  1.00  0.00     0.073 C 
HETATM   26  C   UNL     1      44.454 -20.186   4.121  1.00  0.00    -0.047 A 
HETATM   27  C   UNL     1      43.862 -19.602   2.996  1.00  0.00    -0.026 A 
HETATM   28  C   UNL     1      44.784 -21.532   4.139  1.00  0.00     0.008 A 
HETATM   29  C   UNL     1      43.594 -20.357   1.863  1.00  0.00     0.010 A 
HETATM   30  C   UNL     1      43.911 -21.717   1.877  1.00  0.00     0.001 A 
HETATM   31  C   UNL     1      44.502 -22.299   3.008  1.00  0.00     0.001 A 
BRANCH  24  32
HETATM   32  O   UNL     1      42.564 -18.059   5.419  1.00  0.00    -0.393 OA
HETATM   33  H   UNL     1      42.136 -18.877   5.110  1.00  0.00     0.210 HD
ENDBRANCH  24  32
ENDBRANCH   3  23
TORSDOF 7
ENDMDL
MODEL 2
REMARK VINA RESULT:      -8.7      1.866      3.465
REMARK  7 active torsions:
REMARK  status: ('A' for Active; 'I' for Inactive)
REMARK    1  A    between atoms: O_2  and  C_3 
REMARK    2  A    between atoms: C_5  and  C_6 
REMARK    3  A    between atoms: C_6  and  N_7 
REMARK    4  A    between atoms: C_6  and  C_13 
REMARK    5  A    between atoms: C_13  and  N_14 
REMARK       I    between atoms: N_14  and  C_15 
REMARK       I    between atoms: C_15  and  N_16 
REMARK    6  A    between atoms: N_16  and  C_17 
REMARK    7  A    between atoms: C_18  and  O_19 
ROOT
HETATM    1  N   UNL     1      41.555 -16.991   1.190  1.00  0.00    -0.341 N 
HETATM    2  C   UNL     1      42.799 -17.355   1.640  1.00  0.00     0.316 C 
HETATM    3  N   UNL     1      42.752 -17.968   2.852  1.00  0.00    -0.332 N 
HETATM    4  O   UNL     1      43.808 -17.242   0.958  1.00  0.00    -0.247 OA
HETATM    5  H   UNL     1      40.884 -16.801   1.923  1.00  0.00     0.164 HD
HETATM    6  H   UNL     1      42.084 -17.612   3.523  1.00  0.00     0.165 HD
ENDROOT
BRANCH   1   7
HETATM    7  C   UNL     1      41.421 -16.240  -0.052  1.00  0.00     0.162 C 
BRANCH   7   8
HETATM    8  C   UNL     1      41.689 -14.699   0.027  1.00  0.00     0.238 C 
BRANCH   8   9
HETATM    9  C   UNL     1      41.303 -14.101   1.375  1.00  0.00    -0.023 A 
HETATM   10  C   UNL     1      42.324 -13.763   2.282  1.00  0.00     0.046 A 
HETATM   11  C   UNL     1      42.038 -13.217   3.537  1.00  0.00     0.068 A 
HETATM   12  C   UNL     1      40.713 -12.973   3.889  1.00  0.00     0.037 A 
HETATM   13  C   UNL     1      39.687 -13.288   2.997  1.00  0.00     0.003 A 
HETATM   14  C   UNL     1      39.975 -13.849   1.750  1.00  0.00     0.009 A 
BRANCH  11  15
HETATM   15  O   UNL     1      43.135 -12.962   4.309  1.00  0.00    -0.356 OA
HETATM   16  C   UNL     1      43.615 -14.036   5.112  1.00  0.00     0.210 C 
ENDBRANCH  11  15
ENDBRANCH   8   9
BRANCH   8  17
HETATM   17  N   UNL     1      41.059 -13.885  -1.111  1.00  0.00    -0.061 N 
HETATM   18  H   UNL     1      40.389 -13.275  -0.624  1.00  0.00     0.280 HD
HETATM   19  C   UNL     1      40.267 -14.621  -2.158  1.00  0.00     0.236 C 
HETATM   20  C   UNL     1      41.112 -14.515  -3.409  1.00  0.00     0.029 C 
HETATM   21  C   UNL     1      41.704 -13.125  -3.307  1.00  0.00     0.029 C 
HETATM   22  C   UNL     1      42.012 -12.949  -1.831  1.00  0.00     0.236 C 
ENDBRANCH   8  17
ENDBRANCH   7   8
ENDBRANCH   1   7
BRANCH   3  23
HETATM   23  C   UNL     1      43.982 -18.429   3.471  1.00  0.00     0.149 C 
HETATM   24  C   UNL     1      44.004 -18.227   5.016  1.00  0.00     0.149 C 
HETATM   25  C   UNL     1      44.784 -19.418   5.603  1.00  0.00     0.073 C 
HETATM   26  C   UNL     1      44.601 -20.470   4.549  1.00  0.00    -0.047 A 
HETATM   27  C   UNL     1      44.152 -19.917   3.345  1.00  0.00    -0.026 A 
HETATM   28  C   UNL     1      44.876 -21.823   4.657  1.00  0.00     0.008 A 
HETATM   29  C   UNL     1      43.977 -20.712   2.221  1.00  0.00     0.010 A 
HETATM   30  C   UNL     1      44.239 -22.080   2.324  1.00  0.00     0.001 A 
HETATM   31  C   UNL     1      44.686 -22.631   3.534  1.00  0.00     0.001 A 
BRANCH  24  32
HETATM   32  O   UNL     1      42.666 -18.226   5.551  1.00  0.00    -0.393 OA
HETATM   33  H   UNL     1      42.158 -17.589   5.019  1.00  0.00     0.210 HD
ENDBRANCH  24  32
ENDBRANCH   3  23
TORSDOF 7
ENDMDL
MODEL 3
REMARK VINA RESULT:      -8.6      2.127      3.137
REMARK  7 active torsions:
REMARK  status: ('A' for Active; 'I' for Inactive)
REMARK    1  A    between atoms: O_2  and  C_3 
REMARK    2  A    between atoms: C_5  and  C_6 
REMARK    3  A    between atoms: C_6  and  N_7 
REMARK    4  A    between atoms: C_6  and  C_13 
REMARK    5  A    between atoms: C_13  and  N_14 
REMARK       I    between atoms: N_14  and  C_15 
REMARK       I    between atoms: C_15  and  N_16 
REMARK    6  A    between atoms: N_16  and  C_17 
REMARK    7  A    between atoms: C_18  and  O_19 
ROOT
HETATM    1  N   UNL     1      41.682 -16.738   1.496  1.00  0.00    -0.341 N 
HETATM    2  C   UNL     1      42.903 -17.111   1.998  1.00  0.00     0.316 C 
HETATM    3  N   UNL     1      42.791 -17.937   3.071  1.00  0.00    -0.332 N 
HETATM    4  O   UNL     1      43.958 -16.823   1.450  1.00  0.00    -0.247 OA
HETATM    5  H   UNL     1      40.936 -16.720   2.181  1.00  0.00     0.164 HD
HETATM    6  H   UNL     1      42.044 -17.744   3.725  1.00  0.00     0.165 HD
ENDROOT
BRANCH   1   7
HETATM    7  C   UNL     1      41.606 -15.782   0.399  1.00  0.00     0.162 C 
BRANCH   7   8
HETATM    8  C   UNL     1      40.491 -14.685   0.499  1.00  0.00     0.238 C 
BRANCH   8   9
HETATM    9  C   UNL     1      40.161 -14.055  -0.849  1.00  0.00    -0.023 A 
HETATM   10  C   UNL     1      40.171 -14.870  -1.996  1.00  0.00     0.046 A 
HETATM   11  C   UNL     1      39.883 -14.354  -3.263  1.00  0.00     0.068 A 
HETATM   12  C   UNL     1      39.549 -13.008  -3.393  1.00  0.00     0.037 A 
HETATM   13  C   UNL     1      39.520 -12.187  -2.264  1.00  0.00     0.003 A 
HETATM   14  C   UNL     1      39.824 -12.702  -1.002  1.00  0.00     0.009 A 
BRANCH  11  15
HETATM   15  O   UNL     1      39.954 -15.266  -4.277  1.00  0.00    -0.356 OA
HETATM   16  C   UNL     1      38.914 -16.238  -4.338  1.00  0.00     0.210 C 
ENDBRANCH  11  15
ENDBRANCH   8   9
BRANCH   8  17
HETATM   17  N   UNL     1      40.768 -13.592   1.539  1.00  0.00    -0.061 N 
HETATM   18  H   UNL     1      40.219 -12.793   1.195  1.00  0.00     0.280 HD
HETATM   19  C   UNL     1      42.180 -13.094   1.690  1.00  0.00     0.236 C 
HETATM   20  C   UNL     1      42.614 -13.601   3.048  1.00  0.00     0.029 C 
HETATM   21  C   UNL     1      41.352 -13.483   3.877  1.00  0.00     0.029 C 
HETATM   22  C   UNL     1      40.234 -13.882   2.930  1.00  0.00     0.236 C 
ENDBRANCH   8  17
ENDBRANCH   7   8
ENDBRANCH   1   7
BRANCH   3  23
HETATM   23  C   UNL     1      43.992 -18.437   3.719  1.00  0.00     0.149 C 
HETATM   24  C   UNL     1      43.935 -18.338   5.273  1.00  0.00     0.149 C 
HETATM   25  C   UNL     1      44.690 -19.565   5.819  1.00  0.00     0.073 C 
HETATM   26  C   UNL     1      44.564 -20.544   4.689  1.00  0.00    -0.047 A 
HETATM   27  C   UNL     1      44.173 -19.913   3.504  1.00  0.00    -0.026 A 
HETATM   28  C   UNL     1      44.839 -21.902   4.720  1.00  0.00     0.008 A 
HETATM   29  C   UNL     1      44.058 -20.632   2.322  1.00  0.00     0.010 A 
HETATM   30  C   UNL     1      44.321 -22.003   2.347  1.00  0.00     0.001 A 
HETATM   31  C   UNL     1      44.709 -22.633   3.538  1.00  0.00     0.001 A 
BRANCH  24  32
HETATM   32  O   UNL     1      42.572 -18.374   5.740  1.00  0.00    -0.393 OA
HETATM   33  H   UNL     1      42.014 -18.146   4.975  1.00  0.00     0.210 HD
ENDBRANCH  24  32
ENDBRANCH   3  23
TORSDOF 7
ENDMDL
MODEL 4
REMARK VINA RESULT:      -8.6      2.060      8.597
REMARK  7 active torsions:
REMARK  status: ('A' for Active; 'I' for Inactive)
REMARK    1  A    between atoms: O_2  and  C_3 
REMARK    2  A    between atoms: C_5  and  C_6 
REMARK    3  A    between atoms: C_6  and  N_7 
REMARK    4  A    between atoms: C_6  and  C_13 
REMARK    5  A    between atoms: C_13  and  N_14 
REMARK       I    between atoms: N_14  and  C_15 
REMARK       I    between atoms: C_15  and  N_16 
REMARK    6  A    between atoms: N_16  and  C_17 
REMARK    7  A    between atoms: C_18  and  O_19 
ROOT
HETATM    1  N   UNL     1      41.130 -16.768   0.498  1.00  0.00    -0.341 N 
HETATM    2  C   UNL     1      41.229 -15.426   0.228  1.00  0.00     0.316 C 
HETATM    3  N   UNL     1      41.267 -15.169  -1.105  1.00  0.00    -0.332 N 
HETATM    4  O   UNL     1      41.163 -14.571   1.099  1.00  0.00    -0.247 OA
HETATM    5  H   UNL     1      41.536 -17.368  -0.209  1.00  0.00     0.164 HD
HETATM    6  H   UNL     1      41.788 -15.814  -1.685  1.00  0.00     0.165 HD
ENDROOT
BRANCH   1   7
HETATM    7  C   UNL     1      41.168 -17.239   1.877  1.00  0.00     0.162 C 
BRANCH   7   8
HETATM    8  C   UNL     1      42.539 -17.115   2.624  1.00  0.00     0.238 C 
BRANCH   8   9
HETATM    9  C   UNL     1      43.229 -18.460   2.819  1.00  0.00    -0.023 A 
HETATM   10  C   UNL     1      43.682 -18.807   4.105  1.00  0.00     0.046 A 
HETATM   11  C   UNL     1      44.327 -20.023   4.350  1.00  0.00     0.068 A 
HETATM   12  C   UNL     1      44.503 -20.926   3.305  1.00  0.00     0.037 A 
HETATM   13  C   UNL     1      44.048 -20.605   2.025  1.00  0.00     0.003 A 
HETATM   14  C   UNL     1      43.417 -19.383   1.780  1.00  0.00     0.009 A 
BRANCH  11  15
HETATM   15  O   UNL     1      44.724 -20.204   5.644  1.00  0.00    -0.356 OA
HETATM   16  C   UNL     1      43.897 -19.631   6.653  1.00  0.00     0.210 C 
ENDBRANCH  11  15
ENDBRANCH   8   9
BRANCH   8  17
HETATM   17  N   UNL     1      42.470 -16.360   3.958  1.00  0.00    -0.061 N 
HETATM   18  H   UNL     1      42.993 -16.968   4.602  1.00  0.00     0.280 HD
HETATM   19  C   UNL     1      41.119 -16.150   4.588  1.00  0.00     0.236 C 
HETATM   20  C   UNL     1      40.876 -14.661   4.466  1.00  0.00     0.029 C 
HETATM   21  C   UNL     1      42.253 -14.070   4.683  1.00  0.00     0.029 C 
HETATM   22  C   UNL     1      43.196 -15.027   3.977  1.00  0.00     0.236 C 
ENDBRANCH   8  17
ENDBRANCH   7   8
ENDBRANCH   1   7
BRANCH   3  23
HETATM   23  C   UNL     1      41.359 -13.795  -1.568  1.00  0.00     0.149 C 
HETATM   24  C   UNL     1      42.222 -13.639  -2.856  1.00  0.00     0.149 C 
HETATM   25  C   UNL     1      41.576 -12.511  -3.682  1.00  0.00     0.073 C 
HETATM   26  C   UNL     1      40.154 -12.540  -3.205  1.00  0.00    -0.047 A 
HETATM   27  C   UNL     1      40.027 -13.261  -2.013  1.00  0.00    -0.026 A 
HETATM   28  C   UNL     1      39.062 -11.911  -3.782  1.00  0.00     0.008 A 
HETATM   29  C   UNL     1      38.801 -13.358  -1.370  1.00  0.00     0.010 A 
HETATM   30  C   UNL     1      37.692 -12.738  -1.951  1.00  0.00     0.001 A 
HETATM   31  C   UNL     1      37.823 -12.020  -3.148  1.00  0.00     0.001 A 
BRANCH  24  32
HETATM   32  O   UNL     1      42.214 -14.856  -3.628  1.00  0.00    -0.393 OA
HETATM   33  H   UNL     1      41.448 -15.371  -3.320  1.00  0.00     0.210 HD
ENDBRANCH  24  32
ENDBRANCH   3  23
TORSDOF 7
ENDMDL
MODEL 5
REMARK VINA RESULT:      -8.5      2.366      8.376
REMARK  7 active torsions:
REMARK  status: ('A' for Active; 'I' for Inactive)
REMARK    1  A    between atoms: O_2  and  C_3 
REMARK    2  A    between atoms: C_5  and  C_6 
REMARK    3  A    between atoms: C_6  and  N_7 
REMARK    4  A    between atoms: C_6  and  C_13 
REMARK    5  A    between atoms: C_13  and  N_14 
REMARK       I    between atoms: N_14  and  C_15 
REMARK       I    between atoms: C_15  and  N_16 
REMARK    6  A    between atoms: N_16  and  C_17 
REMARK    7  A    between atoms: C_18  and  O_19 
ROOT
HETATM    1  N   UNL     1      40.702 -16.045   1.966  1.00  0.00    -0.341 N 
HETATM    2  C   UNL     1      41.189 -16.077   0.683  1.00  0.00     0.316 C 
HETATM    3  N   UNL     1      40.609 -15.142  -0.114  1.00  0.00    -0.332 N 
HETATM    4  O   UNL     1      42.126 -16.788   0.350  1.00  0.00    -0.247 OA
HETATM    5  H   UNL     1      39.750 -15.710   2.044  1.00  0.00     0.164 HD
HETATM    6  H   UNL     1      39.621 -14.972   0.020  1.00  0.00     0.165 HD
ENDROOT
BRANCH   1   7
HETATM    7  C   UNL     1      41.145 -17.036   2.938  1.00  0.00     0.162 C 
BRANCH   7   8
HETATM    8  C   UNL     1      42.423 -16.679   3.771  1.00  0.00     0.238 C 
BRANCH   8   9
HETATM    9  C   UNL     1      43.271 -17.902   4.104  1.00  0.00    -0.023 A 
HETATM   10  C   UNL     1      43.645 -18.768   3.060  1.00  0.00     0.046 A 
HETATM   11  C   UNL     1      44.416 -19.910   3.297  1.00  0.00     0.068 A 
HETATM   12  C   UNL     1      44.851 -20.184   4.591  1.00  0.00     0.037 A 
HETATM   13  C   UNL     1      44.501 -19.328   5.637  1.00  0.00     0.003 A 
HETATM   14  C   UNL     1      43.717 -18.197   5.400  1.00  0.00     0.009 A 
BRANCH  11  15
HETATM   15  O   UNL     1      44.679 -20.659   2.185  1.00  0.00    -0.356 OA
HETATM   16  C   UNL     1      43.747 -21.690   1.873  1.00  0.00     0.210 C 
ENDBRANCH  11  15
ENDBRANCH   8   9
BRANCH   8  17
HETATM   17  N   UNL     1      42.146 -15.869   5.044  1.00  0.00    -0.061 N 
HETATM   18  H   UNL     1      42.786 -16.284   5.734  1.00  0.00     0.280 HD
HETATM   19  C   UNL     1      40.771 -15.944   5.651  1.00  0.00     0.236 C 
HETATM   20  C   UNL     1      40.182 -14.570   5.415  1.00  0.00     0.029 C 
HETATM   21  C   UNL     1      41.372 -13.651   5.592  1.00  0.00     0.029 C 
HETATM   22  C   UNL     1      42.532 -14.402   4.964  1.00  0.00     0.236 C 
ENDBRANCH   8  17
ENDBRANCH   7   8
ENDBRANCH   1   7
BRANCH   3  23
HETATM   23  C   UNL     1      41.018 -15.031  -1.503  1.00  0.00     0.149 C 
HETATM   24  C   UNL     1      39.827 -15.136  -2.502  1.00  0.00     0.149 C 
HETATM   25  C   UNL     1      40.156 -14.197  -3.678  1.00  0.00     0.073 C 
HETATM   26  C   UNL     1      41.085 -13.205  -3.043  1.00  0.00    -0.047 A 
HETATM   27  C   UNL     1      41.575 -13.671  -1.819  1.00  0.00    -0.026 A 
HETATM   28  C   UNL     1      41.501 -11.991  -3.564  1.00  0.00     0.008 A 
HETATM   29  C   UNL     1      42.499 -12.930  -1.095  1.00  0.00     0.010 A 
HETATM   30  C   UNL     1      42.914 -11.699  -1.607  1.00  0.00     0.001 A 
HETATM   31  C   UNL     1      42.418 -11.233  -2.833  1.00  0.00     0.001 A 
BRANCH  24  32
HETATM   32  O   UNL     1      38.599 -14.706  -1.882  1.00  0.00    -0.393 OA
HETATM   33  H   UNL     1      38.286 -13.939  -2.395  1.00  0.00     0.210 HD
ENDBRANCH  24  32
ENDBRANCH   3  23
TORSDOF 7
ENDMDL
MODEL 6
REMARK VINA RESULT:      -8.4      1.728      3.216
REMARK  7 active torsions:
REMARK  status: ('A' for Active; 'I' for Inactive)
REMARK    1  A    between atoms: O_2  and  C_3 
REMARK    2  A    between atoms: C_5  and  C_6 
REMARK    3  A    between atoms: C_6  and  N_7 
REMARK    4  A    between atoms: C_6  and  C_13 
REMARK    5  A    between atoms: C_13  and  N_14 
REMARK       I    between atoms: N_14  and  C_15 
REMARK       I    between atoms: C_15  and  N_16 
REMARK    6  A    between atoms: N_16  and  C_17 
REMARK    7  A    between atoms: C_18  and  O_19 
ROOT
HETATM    1  N   UNL     1      41.474 -16.938   1.093  1.00  0.00    -0.341 N 
HETATM    2  C   UNL     1      42.725 -17.311   1.517  1.00  0.00     0.316 C 
HETATM    3  N   UNL     1      42.706 -17.866   2.758  1.00  0.00    -0.332 N 
HETATM    4  O   UNL     1      43.711 -17.256   0.797  1.00  0.00    -0.247 OA
HETATM    5  H   UNL     1      40.833 -16.698   1.839  1.00  0.00     0.164 HD
HETATM    6  H   UNL     1      42.071 -17.462   3.433  1.00  0.00     0.165 HD
ENDROOT
BRANCH   1   7
HETATM    7  C   UNL     1      41.313 -16.244  -0.178  1.00  0.00     0.162 C 
BRANCH   7   8
HETATM    8  C   UNL     1      41.452 -14.684  -0.148  1.00  0.00     0.238 C 
BRANCH   8   9
HETATM    9  C   UNL     1      40.170 -13.985   0.291  1.00  0.00    -0.023 A 
HETATM   10  C   UNL     1      40.235 -13.051   1.341  1.00  0.00     0.046 A 
HETATM   11  C   UNL     1      39.096 -12.380   1.795  1.00  0.00     0.068 A 
HETATM   12  C   UNL     1      37.871 -12.619   1.179  1.00  0.00     0.037 A 
HETATM   13  C   UNL     1      37.789 -13.532   0.126  1.00  0.00     0.003 A 
HETATM   14  C   UNL     1      38.926 -14.213  -0.315  1.00  0.00     0.009 A 
BRANCH  11  15
HETATM   15  O   UNL     1      39.320 -11.521   2.833  1.00  0.00    -0.356 OA
HETATM   16  C   UNL     1      39.127 -12.038   4.146  1.00  0.00     0.210 C 
ENDBRANCH  11  15
ENDBRANCH   8   9
BRANCH   8  17
HETATM   17  N   UNL     1      41.967 -14.067  -1.455  1.00  0.00    -0.061 N 
HETATM   18  H   UNL     1      42.923 -14.437  -1.532  1.00  0.00     0.280 HD
HETATM   19  C   UNL     1      42.092 -12.569  -1.534  1.00  0.00     0.236 C 
HETATM   20  C   UNL     1      41.014 -12.154  -2.511  1.00  0.00     0.029 C 
HETATM   21  C   UNL     1      41.022 -13.276  -3.528  1.00  0.00     0.029 C 
HETATM   22  C   UNL     1      41.249 -14.533  -2.708  1.00  0.00     0.236 C 
ENDBRANCH   8  17
ENDBRANCH   7   8
ENDBRANCH   1   7
BRANCH   3  23
HETATM   23  C   UNL     1      43.947 -18.327   3.356  1.00  0.00     0.149 C 
HETATM   24  C   UNL     1      44.001 -18.110   4.898  1.00  0.00     0.149 C 
HETATM   25  C   UNL     1      44.787 -19.299   5.481  1.00  0.00     0.073 C 
HETATM   26  C   UNL     1      44.577 -20.360   4.441  1.00  0.00    -0.047 A 
HETATM   27  C   UNL     1      44.106 -19.817   3.241  1.00  0.00    -0.026 A 
HETATM   28  C   UNL     1      44.847 -21.714   4.556  1.00  0.00     0.008 A 
HETATM   29  C   UNL     1      43.903 -20.622   2.129  1.00  0.00     0.010 A 
HETATM   30  C   UNL     1      44.161 -21.990   2.240  1.00  0.00     0.001 A 
HETATM   31  C   UNL     1      44.630 -22.531   3.446  1.00  0.00     0.001 A 
BRANCH  24  32
HETATM   32  O   UNL     1      42.674 -18.097   5.460  1.00  0.00    -0.393 OA
HETATM   33  H   UNL     1      42.096 -17.693   4.790  1.00  0.00     0.210 HD
ENDBRANCH  24  32
ENDBRANCH   3  23
TORSDOF 7
ENDMDL
MODEL 7
REMARK VINA RESULT:      -8.4      1.402      2.187
REMARK  7 active torsions:
REMARK  status: ('A' for Active; 'I' for Inactive)
REMARK    1  A    between atoms: O_2  and  C_3 
REMARK    2  A    between atoms: C_5  and  C_6 
REMARK    3  A    between atoms: C_6  and  N_7 
REMARK    4  A    between atoms: C_6  and  C_13 
REMARK    5  A    between atoms: C_13  and  N_14 
REMARK       I    between atoms: N_14  and  C_15 
REMARK       I    between atoms: C_15  and  N_16 
REMARK    6  A    between atoms: N_16  and  C_17 
REMARK    7  A    between atoms: C_18  and  O_19 
ROOT
HETATM    1  N   UNL     1      41.201 -15.904   2.666  1.00  0.00    -0.341 N 
HETATM    2  C   UNL     1      42.493 -16.317   2.878  1.00  0.00     0.316 C 
HETATM    3  N   UNL     1      42.556 -17.548   3.449  1.00  0.00    -0.332 N 
HETATM    4  O   UNL     1      43.462 -15.688   2.477  1.00  0.00    -0.247 OA
HETATM    5  H   UNL     1      40.527 -16.291   3.315  1.00  0.00     0.164 HD
HETATM    6  H   UNL     1      41.862 -17.766   4.152  1.00  0.00     0.165 HD
ENDROOT
BRANCH   1   7
HETATM    7  C   UNL     1      40.939 -14.570   2.143  1.00  0.00     0.162 C 
BRANCH   7   8
HETATM    8  C   UNL     1      40.021 -14.480   0.877  1.00  0.00     0.238 C 
BRANCH   8   9
HETATM    9  C   UNL     1      40.781 -14.058  -0.376  1.00  0.00    -0.023 A 
HETATM   10  C   UNL     1      40.448 -14.659  -1.603  1.00  0.00     0.046 A 
HETATM   11  C   UNL     1      41.110 -14.321  -2.787  1.00  0.00     0.068 A 
HETATM   12  C   UNL     1      42.104 -13.347  -2.760  1.00  0.00     0.037 A 
HETATM   13  C   UNL     1      42.439 -12.729  -1.553  1.00  0.00     0.003 A 
HETATM   14  C   UNL     1      41.786 -13.080  -0.369  1.00  0.00     0.009 A 
BRANCH  11  15
HETATM   15  O   UNL     1      40.686 -15.007  -3.890  1.00  0.00    -0.356 OA
HETATM   16  C   UNL     1      39.611 -15.922  -3.700  1.00  0.00     0.210 C 
ENDBRANCH  11  15
ENDBRANCH   8   9
BRANCH   8  17
HETATM   17  N   UNL     1      38.775 -13.604   1.057  1.00  0.00    -0.061 N 
HETATM   18  H   UNL     1      38.452 -13.841   2.004  1.00  0.00     0.280 HD
HETATM   19  C   UNL     1      37.601 -13.838   0.145  1.00  0.00     0.236 C 
HETATM   20  C   UNL     1      37.556 -12.606  -0.733  1.00  0.00     0.029 C 
HETATM   21  C   UNL     1      37.960 -11.496   0.214  1.00  0.00     0.029 C 
HETATM   22  C   UNL     1      39.043 -12.109   1.083  1.00  0.00     0.236 C 
ENDBRANCH   8  17
ENDBRANCH   7   8
ENDBRANCH   1   7
BRANCH   3  23
HETATM   23  C   UNL     1      43.851 -18.142   3.733  1.00  0.00     0.149 C 
HETATM   24  C   UNL     1      44.127 -18.311   5.257  1.00  0.00     0.149 C 
HETATM   25  C   UNL     1      44.944 -19.606   5.414  1.00  0.00     0.073 C 
HETATM   26  C   UNL     1      44.555 -20.379   4.188  1.00  0.00    -0.047 A 
HETATM   27  C   UNL     1      43.941 -19.557   3.237  1.00  0.00    -0.026 A 
HETATM   28  C   UNL     1      44.792 -21.719   3.930  1.00  0.00     0.008 A 
HETATM   29  C   UNL     1      43.558 -20.064   2.002  1.00  0.00     0.010 A 
HETATM   30  C   UNL     1      43.782 -21.417   1.739  1.00  0.00     0.001 A 
HETATM   31  C   UNL     1      44.395 -22.238   2.696  1.00  0.00     0.001 A 
BRANCH  24  32
HETATM   32  O   UNL     1      42.892 -18.437   5.990  1.00  0.00    -0.393 OA
HETATM   33  H   UNL     1      42.833 -17.655   6.566  1.00  0.00     0.210 HD
ENDBRANCH  24  32
ENDBRANCH   3  23
TORSDOF 7
ENDMDL
MODEL 8
REMARK VINA RESULT:      -8.3      6.628      9.313
REMARK  7 active torsions:
REMARK  status: ('A' for Active; 'I' for Inactive)
REMARK    1  A    between atoms: O_2  and  C_3 
REMARK    2  A    between atoms: C_5  and  C_6 
REMARK    3  A    between atoms: C_6  and  N_7 
REMARK    4  A    between atoms: C_6  and  C_13 
REMARK    5  A    between atoms: C_13  and  N_14 
REMARK       I    between atoms: N_14  and  C_15 
REMARK       I    between atoms: C_15  and  N_16 
REMARK    6  A    between atoms: N_16  and  C_17 
REMARK    7  A    between atoms: C_18  and  O_19 
ROOT
HETATM    1  N   UNL     1      40.028 -12.793   6.741  1.00  0.00    -0.341 N 
HETATM    2  C   UNL     1      40.631 -11.626   7.138  1.00  0.00     0.316 C 
HETATM    3  N   UNL     1      40.521 -11.416   8.476  1.00  0.00    -0.332 N 
HETATM    4  O   UNL     1      41.293 -10.932   6.379  1.00  0.00    -0.247 OA
HETATM    5  H   UNL     1      39.253 -13.082   7.323  1.00  0.00     0.164 HD
HETATM    6  H   UNL     1      39.647 -11.677   8.913  1.00  0.00     0.165 HD
ENDROOT
BRANCH   1   7
HETATM    7  C   UNL     1      39.969 -13.137   5.326  1.00  0.00     0.162 C 
BRANCH   7   8
HETATM    8  C   UNL     1      40.554 -14.532   4.918  1.00  0.00     0.238 C 
BRANCH   8   9
HETATM    9  C   UNL     1      41.839 -14.875   5.665  1.00  0.00    -0.023 A 
HETATM   10  C   UNL     1      41.867 -16.032   6.463  1.00  0.00     0.046 A 
HETATM   11  C   UNL     1      43.011 -16.400   7.178  1.00  0.00     0.068 A 
HETATM   12  C   UNL     1      44.160 -15.620   7.078  1.00  0.00     0.037 A 
HETATM   13  C   UNL     1      44.154 -14.475   6.279  1.00  0.00     0.003 A 
HETATM   14  C   UNL     1      43.005 -14.102   5.578  1.00  0.00     0.009 A 
BRANCH  11  15
HETATM   15  O   UNL     1      42.874 -17.538   7.922  1.00  0.00    -0.356 OA
HETATM   16  C   UNL     1      43.778 -18.601   7.638  1.00  0.00     0.210 C 
ENDBRANCH  11  15
ENDBRANCH   8   9
BRANCH   8  17
HETATM   17  N   UNL     1      40.756 -14.719   3.409  1.00  0.00    -0.061 N 
HETATM   18  H   UNL     1      41.671 -14.283   3.235  1.00  0.00     0.280 HD
HETATM   19  C   UNL     1      39.789 -14.047   2.472  1.00  0.00     0.236 C 
HETATM   20  C   UNL     1      39.004 -15.187   1.861  1.00  0.00     0.029 C 
HETATM   21  C   UNL     1      40.044 -16.277   1.711  1.00  0.00     0.029 C 
HETATM   22  C   UNL     1      40.903 -16.161   2.957  1.00  0.00     0.236 C 
ENDBRANCH   8  17
ENDBRANCH   7   8
ENDBRANCH   1   7
BRANCH   3  23
HETATM   23  C   UNL     1      41.115 -10.229   9.067  1.00  0.00     0.149 C 
HETATM   24  C   UNL     1      40.297  -9.668  10.268  1.00  0.00     0.149 C 
HETATM   25  C   UNL     1      41.320  -9.101  11.270  1.00  0.00     0.073 C 
HETATM   26  C   UNL     1      42.556  -9.887  10.942  1.00  0.00    -0.047 A 
HETATM   27  C   UNL     1      42.446 -10.522   9.701  1.00  0.00    -0.026 A 
HETATM   28  C   UNL     1      43.718  -9.974  11.690  1.00  0.00     0.008 A 
HETATM   29  C   UNL     1      43.505 -11.253   9.181  1.00  0.00     0.010 A 
HETATM   30  C   UNL     1      44.677 -11.357   9.935  1.00  0.00     0.001 A 
HETATM   31  C   UNL     1      44.781 -10.721  11.181  1.00  0.00     0.001 A 
BRANCH  24  32
HETATM   32  O   UNL     1      39.540 -10.716  10.906  1.00  0.00    -0.393 OA
HETATM   33  H   UNL     1      38.601 -10.482  10.796  1.00  0.00     0.210 HD
ENDBRANCH  24  32
ENDBRANCH   3  23
TORSDOF 7
ENDMDL
MODEL 9
REMARK VINA RESULT:      -8.3      1.686      2.611
REMARK  7 active torsions:
REMARK  status: ('A' for Active; 'I' for Inactive)
REMARK    1  A    between atoms: O_2  and  C_3 
REMARK    2  A    between atoms: C_5  and  C_6 
REMARK    3  A    between atoms: C_6  and  N_7 
REMARK    4  A    between atoms: C_6  and  C_13 
REMARK    5  A    between atoms: C_13  and  N_14 
REMARK       I    between atoms: N_14  and  C_15 
REMARK       I    between atoms: C_15  and  N_16 
REMARK    6  A    between atoms: N_16  and  C_17 
REMARK    7  A    between atoms: C_18  and  O_19 
ROOT
HETATM    1  N   UNL     1      40.693 -15.916   0.607  1.00  0.00    -0.341 N 
HETATM    2  C   UNL     1      41.612 -15.813   1.621  1.00  0.00     0.316 C 
HETATM    3  N   UNL     1      41.779 -16.985   2.289  1.00  0.00    -0.332 N 
HETATM    4  O   UNL     1      42.282 -14.807   1.806  1.00  0.00    -0.247 OA
HETATM    5  H   UNL     1      39.979 -16.618   0.760  1.00  0.00     0.164 HD
HETATM    6  H   UNL     1      40.953 -17.548   2.446  1.00  0.00     0.165 HD
ENDROOT
BRANCH   1   7
HETATM    7  C   UNL     1      40.319 -14.735  -0.159  1.00  0.00     0.162 C 
BRANCH   7   8
HETATM    8  C   UNL     1      41.314 -14.282  -1.282  1.00  0.00     0.238 C 
BRANCH   8   9
HETATM    9  C   UNL     1      41.832 -12.863  -1.074  1.00  0.00    -0.023 A 
HETATM   10  C   UNL     1      41.311 -12.103  -0.011  1.00  0.00     0.046 A 
HETATM   11  C   UNL     1      41.738 -10.794   0.231  1.00  0.00     0.068 A 
HETATM   12  C   UNL     1      42.723 -10.236  -0.580  1.00  0.00     0.037 A 
HETATM   13  C   UNL     1      43.261 -10.981  -1.631  1.00  0.00     0.003 A 
HETATM   14  C   UNL     1      42.821 -12.282  -1.880  1.00  0.00     0.009 A 
BRANCH  11  15
HETATM   15  O   UNL     1      41.124 -10.182   1.287  1.00  0.00    -0.356 OA
HETATM   16  C   UNL     1      39.773 -10.554   1.544  1.00  0.00     0.210 C 
ENDBRANCH  11  15
ENDBRANCH   8   9
BRANCH   8  17
HETATM   17  N   UNL     1      40.776 -14.444  -2.709  1.00  0.00    -0.061 N 
HETATM   18  H   UNL     1      41.557 -14.119  -3.295  1.00  0.00     0.280 HD
HETATM   19  C   UNL     1      39.581 -13.626  -3.117  1.00  0.00     0.236 C 
HETATM   20  C   UNL     1      38.467 -14.640  -3.268  1.00  0.00     0.029 C 
HETATM   21  C   UNL     1      39.177 -15.845  -3.847  1.00  0.00     0.029 C 
HETATM   22  C   UNL     1      40.518 -15.877  -3.137  1.00  0.00     0.236 C 
ENDBRANCH   8  17
ENDBRANCH   7   8
ENDBRANCH   1   7
BRANCH   3  23
HETATM   23  C   UNL     1      42.727 -17.055   3.388  1.00  0.00     0.149 C 
HETATM   24  C   UNL     1      42.044 -17.012   4.788  1.00  0.00     0.149 C 
HETATM   25  C   UNL     1      42.882 -17.916   5.712  1.00  0.00     0.073 C 
HETATM   26  C   UNL     1      43.529 -18.856   4.738  1.00  0.00    -0.047 A 
HETATM   27  C   UNL     1      43.446 -18.373   3.427  1.00  0.00    -0.026 A 
HETATM   28  C   UNL     1      44.195 -20.036   5.025  1.00  0.00     0.008 A 
HETATM   29  C   UNL     1      44.037 -19.064   2.378  1.00  0.00     0.010 A 
HETATM   30  C   UNL     1      44.699 -20.262   2.657  1.00  0.00     0.001 A 
HETATM   31  C   UNL     1      44.777 -20.743   3.972  1.00  0.00     0.001 A 
BRANCH  24  32
HETATM   32  O   UNL     1      40.699 -17.524   4.718  1.00  0.00    -0.393 OA
HETATM   33  H   UNL     1      40.176 -17.012   5.361  1.00  0.00     0.210 HD
ENDBRANCH  24  32
ENDBRANCH   3  23
TORSDOF 7
ENDMDL
MODEL 10
REMARK VINA RESULT:      -8.3      6.179      9.153
REMARK  7 active torsions:
REMARK  status: ('A' for Active; 'I' for Inactive)
REMARK    1  A    between atoms: O_2  and  C_3 
REMARK    2  A    between atoms: C_5  and  C_6 
REMARK    3  A    between atoms: C_6  and  N_7 
REMARK    4  A    between atoms: C_6  and  C_13 
REMARK    5  A    between atoms: C_13  and  N_14 
REMARK       I    between atoms: N_14  and  C_15 
REMARK       I    between atoms: C_15  and  N_16 
REMARK    6  A    between atoms: N_16  and  C_17 
REMARK    7  A    between atoms: C_18  and  O_19 
ROOT
HETATM    1  N   UNL     1      43.625 -13.397   6.091  1.00  0.00    -0.341 N 
HETATM    2  C   UNL     1      44.041 -13.491   7.395  1.00  0.00     0.316 C 
HETATM    3  N   UNL     1      43.738 -12.379   8.116  1.00  0.00    -0.332 N 
HETATM    4  O   UNL     1      44.517 -14.514   7.865  1.00  0.00    -0.247 OA
HETATM    5  H   UNL     1      43.585 -12.451   5.731  1.00  0.00     0.164 HD
HETATM    6  H   UNL     1      43.827 -11.488   7.647  1.00  0.00     0.165 HD
ENDROOT
BRANCH   1   7
HETATM    7  C   UNL     1      43.945 -14.459   5.146  1.00  0.00     0.162 C 
BRANCH   7   8
HETATM    8  C   UNL     1      42.820 -15.515   4.870  1.00  0.00     0.238 C 
BRANCH   8   9
HETATM    9  C   UNL     1      43.365 -16.932   4.722  1.00  0.00    -0.023 A 
HETATM   10  C   UNL     1      43.089 -17.641   3.539  1.00  0.00     0.046 A 
HETATM   11  C   UNL     1      43.553 -18.945   3.342  1.00  0.00     0.068 A 
HETATM   12  C   UNL     1      44.330 -19.549   4.326  1.00  0.00     0.037 A 
HETATM   13  C   UNL     1      44.626 -18.855   5.501  1.00  0.00     0.003 A 
HETATM   14  C   UNL     1      44.148 -17.559   5.702  1.00  0.00     0.009 A 
BRANCH  11  15
HETATM   15  O   UNL     1      43.185 -19.505   2.152  1.00  0.00    -0.356 OA
HETATM   16  C   UNL     1      43.628 -20.836   1.906  1.00  0.00     0.210 C 
ENDBRANCH  11  15
ENDBRANCH   8   9
BRANCH   8  17
HETATM   17  N   UNL     1      41.906 -15.175   3.686  1.00  0.00    -0.061 N 
HETATM   18  H   UNL     1      41.887 -16.048   3.143  1.00  0.00     0.280 HD
HETATM   19  C   UNL     1      42.348 -14.099   2.732  1.00  0.00     0.236 C 
HETATM   20  C   UNL     1      41.382 -12.960   2.979  1.00  0.00     0.029 C 
HETATM   21  C   UNL     1      40.073 -13.672   3.245  1.00  0.00     0.029 C 
HETATM   22  C   UNL     1      40.460 -14.896   4.055  1.00  0.00     0.236 C 
ENDBRANCH   8  17
ENDBRANCH   7   8
ENDBRANCH   1   7
BRANCH   3  23
HETATM   23  C   UNL     1      44.099 -12.316   9.522  1.00  0.00     0.149 C 
HETATM   24  C   UNL     1      45.561 -11.832   9.758  1.00  0.00     0.149 C 
HETATM   25  C   UNL     1      45.545 -11.005  11.056  1.00  0.00     0.073 C 
HETATM   26  C   UNL     1      44.119 -10.543  11.122  1.00  0.00    -0.047 A 
HETATM   27  C   UNL     1      43.300 -11.280  10.261  1.00  0.00    -0.026 A 
HETATM   28  C   UNL     1      43.592  -9.561  11.946  1.00  0.00     0.008 A 
HETATM   29  C   UNL     1      41.932 -11.052  10.214  1.00  0.00     0.010 A 
HETATM   30  C   UNL     1      41.393 -10.056  11.032  1.00  0.00     0.001 A 
HETATM   31  C   UNL     1      42.219  -9.316  11.891  1.00  0.00     0.001 A 
BRANCH  24  32
HETATM   32  O   UNL     1      46.006 -10.998   8.670  1.00  0.00    -0.393 OA
HETATM   33  H   UNL     1      45.256 -10.421   8.442  1.00  0.00     0.210 HD
ENDBRANCH  24  32
ENDBRANCH   3  23
TORSDOF 7
ENDMDL
