MODEL 1
REMARK VINA RESULT:      -8.1      0.000      0.000
REMARK  4 active torsions:
REMARK  status: ('A' for Active; 'I' for Inactive)
REMARK    1  A    between atoms: C_2  and  C_3 
REMARK    2  A    between atoms: C_5  and  C_6 
REMARK       I    between atoms: C_6  and  N_7 
REMARK    3  A    between atoms: N_7  and  C_8 
REMARK    4  A    between atoms: C_10  and  C_11 
ROOT
HETATM    1  C   UNL     1      43.914 -15.199   6.462  1.00  0.00     0.035 A 
HETATM    2  C   UNL     1      44.144 -16.575   6.545  1.00  0.00     0.042 A 
HETATM    3  C   UNL     1      43.817 -17.432   5.479  1.00  0.00    -0.021 A 
HETATM    4  C   UNL     1      43.233 -16.887   4.329  1.00  0.00     0.012 A 
HETATM    5  C   UNL     1      42.994 -15.516   4.239  1.00  0.00     0.003 A 
HETATM    6  C   UNL     1      43.337 -14.676   5.299  1.00  0.00     0.029 A 
ENDROOT
BRANCH   1   7
HETATM    7  N   UNL     1      44.243 -14.282   7.478  1.00  0.00    -0.321 N 
HETATM    8  C   UNL     1      45.301 -13.391   7.528  1.00  0.00     0.279 C 
HETATM    9  O   UNL     1      46.184 -13.284   6.684  1.00  0.00    -0.265 OA
HETATM   10  H   UNL     1      43.635 -14.254   8.290  1.00  0.00     0.169 HD
BRANCH   8  11
HETATM   11  C   UNL     1      45.276 -12.564   8.722  1.00  0.00     0.143 A 
HETATM   12  O   UNL     1      44.423 -12.888   9.748  1.00  0.00    -0.310 OA
HETATM   13  C   UNL     1      44.579 -11.942  10.717  1.00  0.00     0.053 A 
HETATM   14  C   UNL     1      45.536 -11.026  10.336  1.00  0.00     0.036 A 
HETATM   15  C   UNL     1      45.980 -11.423   9.053  1.00  0.00     0.045 A 
BRANCH  13  16
HETATM   16  C   UNL     1      43.721 -12.077  11.919  1.00  0.00     0.060 C 
HETATM   17  C   UNL     1      43.302 -10.717  12.455  1.00  0.00     0.012 C 
ENDBRANCH  13  16
ENDBRANCH   8  11
ENDBRANCH   1   7
BRANCH   3  18
HETATM   18  C   UNL     1      44.078 -18.861   5.554  1.00  0.00     0.010 A 
HETATM   19  C   UNL     1      44.714 -19.740   4.644  1.00  0.00     0.152 A 
HETATM   20  N   UNL     1      44.782 -20.997   5.094  1.00  0.00    -0.187 NA
HETATM   21  N   UNL     1      44.186 -20.931   6.295  1.00  0.00    -0.289 N 
HETATM   22  H   UNL     1      44.114 -21.780   6.844  1.00  0.00     0.188 HD
HETATM   23  C   UNL     1      43.754 -19.678   6.619  1.00  0.00     0.123 A 
ENDBRANCH   3  18
TORSDOF 4
ENDMDL
MODEL 2
REMARK VINA RESULT:      -8.0      2.363      3.237
REMARK  4 active torsions:
REMARK  status: ('A' for Active; 'I' for Inactive)
REMARK    1  A    between atoms: C_2  and  C_3 
REMARK    2  A    between atoms: C_5  and  C_6 
REMARK       I    between atoms: C_6  and  N_7 
REMARK    3  A    between atoms: N_7  and  C_8 
REMARK    4  A    between atoms: C_10  and  C_11 
ROOT
HETATM    1  C   UNL     1      43.833 -15.516   6.648  1.00  0.00     0.035 A 
HETATM    2  C   UNL     1      42.830 -15.349   5.688  1.00  0.00     0.042 A 
HETATM    3  C   UNL     1      42.499 -16.385   4.796  1.00  0.00    -0.021 A 
HETATM    4  C   UNL     1      43.206 -17.591   4.869  1.00  0.00     0.012 A 
HETATM    5  C   UNL     1      44.212 -17.765   5.820  1.00  0.00     0.003 A 
HETATM    6  C   UNL     1      44.520 -16.733   6.707  1.00  0.00     0.029 A 
ENDROOT
BRANCH   1   7
HETATM    7  N   UNL     1      44.196 -14.532   7.587  1.00  0.00    -0.321 N 
HETATM    8  C   UNL     1      45.159 -13.545   7.474  1.00  0.00     0.279 C 
HETATM    9  O   UNL     1      45.915 -13.390   6.520  1.00  0.00    -0.265 OA
HETATM   10  H   UNL     1      43.695 -14.528   8.469  1.00  0.00     0.169 HD
BRANCH   8  11
HETATM   11  C   UNL     1      45.203 -12.675   8.637  1.00  0.00     0.143 A 
HETATM   12  O   UNL     1      44.385 -12.940   9.707  1.00  0.00    -0.310 OA
HETATM   13  C   UNL     1      44.605 -11.964  10.634  1.00  0.00     0.053 A 
HETATM   14  C   UNL     1      45.568 -11.088  10.183  1.00  0.00     0.036 A 
HETATM   15  C   UNL     1      45.950 -11.543   8.898  1.00  0.00     0.045 A 
BRANCH  13  16
HETATM   16  C   UNL     1      43.793 -12.034  11.873  1.00  0.00     0.060 C 
HETATM   17  C   UNL     1      43.359 -10.649  12.328  1.00  0.00     0.012 C 
ENDBRANCH  13  16
ENDBRANCH   8  11
ENDBRANCH   1   7
BRANCH   3  18
HETATM   18  C   UNL     1      41.439 -16.222   3.813  1.00  0.00     0.010 A 
HETATM   19  C   UNL     1      41.093 -16.997   2.680  1.00  0.00     0.152 A 
HETATM   20  N   UNL     1      40.023 -16.526   2.032  1.00  0.00    -0.187 NA
HETATM   21  N   UNL     1      39.679 -15.442   2.746  1.00  0.00    -0.289 N 
HETATM   22  H   UNL     1      38.876 -14.902   2.444  1.00  0.00     0.188 HD
HETATM   23  C   UNL     1      40.488 -15.221   3.822  1.00  0.00     0.123 A 
ENDBRANCH   3  18
TORSDOF 4
ENDMDL
MODEL 3
REMARK VINA RESULT:      -7.7      6.095      8.761
REMARK  4 active torsions:
REMARK  status: ('A' for Active; 'I' for Inactive)
REMARK    1  A    between atoms: C_2  and  C_3 
REMARK    2  A    between atoms: C_5  and  C_6 
REMARK       I    between atoms: C_6  and  N_7 
REMARK    3  A    between atoms: N_7  and  C_8 
REMARK    4  A    between atoms: C_10  and  C_11 
ROOT
HETATM    1  C   UNL     1      43.047 -17.027   1.492  1.00  0.00     0.035 A 
HETATM    2  C   UNL     1      43.388 -18.382   1.535  1.00  0.00     0.042 A 
HETATM    3  C   UNL     1      43.779 -18.994   2.740  1.00  0.00    -0.021 A 
HETATM    4  C   UNL     1      43.843 -18.217   3.903  1.00  0.00     0.012 A 
HETATM    5  C   UNL     1      43.510 -16.863   3.868  1.00  0.00     0.003 A 
HETATM    6  C   UNL     1      43.110 -16.273   2.669  1.00  0.00     0.029 A 
ENDROOT
BRANCH   1   7
HETATM    7  N   UNL     1      42.622 -16.359   0.329  1.00  0.00    -0.321 N 
HETATM    8  C   UNL     1      41.414 -15.725   0.090  1.00  0.00     0.279 C 
HETATM    9  O   UNL     1      40.465 -15.682   0.865  1.00  0.00    -0.265 OA
HETATM   10  H   UNL     1      43.272 -16.324  -0.449  1.00  0.00     0.169 HD
BRANCH   8  11
HETATM   11  C   UNL     1      41.366 -15.095  -1.219  1.00  0.00     0.143 A 
HETATM   12  O   UNL     1      41.935 -13.858  -1.391  1.00  0.00    -0.310 OA
HETATM   13  C   UNL     1      41.723 -13.494  -2.688  1.00  0.00     0.053 A 
HETATM   14  C   UNL     1      41.043 -14.489  -3.356  1.00  0.00     0.036 A 
HETATM   15  C   UNL     1      40.811 -15.516  -2.411  1.00  0.00     0.045 A 
BRANCH  13  16
HETATM   16  C   UNL     1      42.230 -12.160  -3.093  1.00  0.00     0.060 C 
HETATM   17  C   UNL     1      42.862 -11.429  -1.918  1.00  0.00     0.012 C 
ENDBRANCH  13  16
ENDBRANCH   8  11
ENDBRANCH   1   7
BRANCH   3  18
HETATM   18  C   UNL     1      44.110 -20.410   2.792  1.00  0.00     0.010 A 
HETATM   19  C   UNL     1      44.028 -21.421   1.804  1.00  0.00     0.152 A 
HETATM   20  N   UNL     1      44.455 -22.611   2.240  1.00  0.00    -0.187 NA
HETATM   21  N   UNL     1      44.810 -22.369   3.512  1.00  0.00    -0.289 N 
HETATM   22  H   UNL     1      45.174 -23.136   4.064  1.00  0.00     0.188 HD
HETATM   23  C   UNL     1      44.630 -21.069   3.887  1.00  0.00     0.123 A 
ENDBRANCH   3  18
TORSDOF 4
ENDMDL
MODEL 4
REMARK VINA RESULT:      -7.6      4.962      8.551
REMARK  4 active torsions:
REMARK  status: ('A' for Active; 'I' for Inactive)
REMARK    1  A    between atoms: C_2  and  C_3 
REMARK    2  A    between atoms: C_5  and  C_6 
REMARK       I    between atoms: C_6  and  N_7 
REMARK    3  A    between atoms: N_7  and  C_8 
REMARK    4  A    between atoms: C_10  and  C_11 
ROOT
HETATM    1  C   UNL     1      43.317 -17.713   2.726  1.00  0.00     0.035 A 
HETATM    2  C   UNL     1      43.263 -17.435   4.096  1.00  0.00     0.042 A 
HETATM    3  C   UNL     1      43.766 -18.346   5.042  1.00  0.00    -0.021 A 
HETATM    4  C   UNL     1      44.309 -19.556   4.593  1.00  0.00     0.012 A 
HETATM    5  C   UNL     1      44.361 -19.845   3.229  1.00  0.00     0.003 A 
HETATM    6  C   UNL     1      43.872 -18.926   2.301  1.00  0.00     0.029 A 
ENDROOT
BRANCH   1   7
HETATM    7  N   UNL     1      42.858 -16.836   1.726  1.00  0.00    -0.321 N 
HETATM    8  C   UNL     1      41.589 -16.735   1.183  1.00  0.00     0.279 C 
HETATM    9  O   UNL     1      40.633 -17.452   1.462  1.00  0.00    -0.265 OA
HETATM   10  H   UNL     1      43.530 -16.181   1.340  1.00  0.00     0.169 HD
BRANCH   8  11
HETATM   11  C   UNL     1      41.485 -15.663   0.207  1.00  0.00     0.143 A 
HETATM   12  O   UNL     1      41.175 -15.967  -1.096  1.00  0.00    -0.310 OA
HETATM   13  C   UNL     1      41.174 -14.794  -1.793  1.00  0.00     0.053 A 
HETATM   14  C   UNL     1      41.457 -13.741  -0.952  1.00  0.00     0.036 A 
HETATM   15  C   UNL     1      41.661 -14.299   0.332  1.00  0.00     0.045 A 
BRANCH  13  16
HETATM   16  C   UNL     1      40.893 -14.889  -3.246  1.00  0.00     0.060 C 
HETATM   17  C   UNL     1      39.838 -15.945  -3.538  1.00  0.00     0.012 C 
ENDBRANCH  13  16
ENDBRANCH   8  11
ENDBRANCH   1   7
BRANCH   3  18
HETATM   18  C   UNL     1      43.733 -18.048   6.466  1.00  0.00     0.010 A 
HETATM   19  C   UNL     1      43.475 -16.840   7.157  1.00  0.00     0.152 A 
HETATM   20  N   UNL     1      43.515 -16.980   8.486  1.00  0.00    -0.187 NA
HETATM   21  N   UNL     1      43.803 -18.281   8.653  1.00  0.00    -0.289 N 
HETATM   22  H   UNL     1      43.887 -18.638   9.598  1.00  0.00     0.188 HD
HETATM   23  C   UNL     1      43.937 -18.963   7.478  1.00  0.00     0.123 A 
ENDBRANCH   3  18
TORSDOF 4
ENDMDL
MODEL 5
REMARK VINA RESULT:      -7.6      1.731      2.414
REMARK  4 active torsions:
REMARK  status: ('A' for Active; 'I' for Inactive)
REMARK    1  A    between atoms: C_2  and  C_3 
REMARK    2  A    between atoms: C_5  and  C_6 
REMARK       I    between atoms: C_6  and  N_7 
REMARK    3  A    between atoms: N_7  and  C_8 
REMARK    4  A    between atoms: C_10  and  C_11 
ROOT
HETATM    1  C   UNL     1      43.161 -15.714   4.900  1.00  0.00     0.035 A 
HETATM    2  C   UNL     1      43.650 -16.959   4.495  1.00  0.00     0.042 A 
HETATM    3  C   UNL     1      42.910 -17.782   3.627  1.00  0.00    -0.021 A 
HETATM    4  C   UNL     1      41.656 -17.344   3.186  1.00  0.00     0.012 A 
HETATM    5  C   UNL     1      41.157 -16.106   3.590  1.00  0.00     0.003 A 
HETATM    6  C   UNL     1      41.908 -15.294   4.439  1.00  0.00     0.029 A 
ENDROOT
BRANCH   1   7
HETATM    7  N   UNL     1      43.860 -14.829   5.743  1.00  0.00    -0.321 N 
HETATM    8  C   UNL     1      44.174 -14.981   7.082  1.00  0.00     0.279 C 
HETATM    9  O   UNL     1      43.841 -15.924   7.792  1.00  0.00    -0.265 OA
HETATM   10  H   UNL     1      44.187 -13.960   5.333  1.00  0.00     0.169 HD
BRANCH   8  11
HETATM   11  C   UNL     1      44.961 -13.873   7.598  1.00  0.00     0.143 A 
HETATM   12  O   UNL     1      44.643 -13.331   8.818  1.00  0.00    -0.310 OA
HETATM   13  C   UNL     1      45.509 -12.302   9.041  1.00  0.00     0.053 A 
HETATM   14  C   UNL     1      46.393 -12.189   7.990  1.00  0.00     0.036 A 
HETATM   15  C   UNL     1      46.038 -13.195   7.061  1.00  0.00     0.045 A 
BRANCH  13  16
HETATM   16  C   UNL     1      45.326 -11.544  10.302  1.00  0.00     0.060 C 
HETATM   17  C   UNL     1      44.386 -12.269  11.252  1.00  0.00     0.012 C 
ENDBRANCH  13  16
ENDBRANCH   8  11
ENDBRANCH   1   7
BRANCH   3  18
HETATM   18  C   UNL     1      43.429 -19.067   3.184  1.00  0.00     0.010 A 
HETATM   19  C   UNL     1      43.160 -19.828   2.021  1.00  0.00     0.152 A 
HETATM   20  N   UNL     1      43.865 -20.962   1.965  1.00  0.00    -0.187 NA
HETATM   21  N   UNL     1      44.589 -20.936   3.096  1.00  0.00    -0.289 N 
HETATM   22  H   UNL     1      45.217 -21.709   3.283  1.00  0.00     0.188 HD
HETATM   23  C   UNL     1      44.370 -19.823   3.855  1.00  0.00     0.123 A 
ENDBRANCH   3  18
TORSDOF 4
ENDMDL
MODEL 6
REMARK VINA RESULT:      -7.6      6.076      9.135
REMARK  4 active torsions:
REMARK  status: ('A' for Active; 'I' for Inactive)
REMARK    1  A    between atoms: C_2  and  C_3 
REMARK    2  A    between atoms: C_5  and  C_6 
REMARK       I    between atoms: C_6  and  N_7 
REMARK    3  A    between atoms: N_7  and  C_8 
REMARK    4  A    between atoms: C_10  and  C_11 
ROOT
HETATM    1  C   UNL     1      41.571 -16.646   1.703  1.00  0.00     0.035 A 
HETATM    2  C   UNL     1      41.745 -16.254   0.372  1.00  0.00     0.042 A 
HETATM    3  C   UNL     1      40.919 -15.275  -0.211  1.00  0.00    -0.021 A 
HETATM    4  C   UNL     1      39.898 -14.707   0.560  1.00  0.00     0.012 A 
HETATM    5  C   UNL     1      39.714 -15.095   1.887  1.00  0.00     0.003 A 
HETATM    6  C   UNL     1      40.549 -16.057   2.456  1.00  0.00     0.029 A 
ENDROOT
BRANCH   1   7
HETATM    7  N   UNL     1      42.377 -17.598   2.355  1.00  0.00    -0.321 N 
HETATM    8  C   UNL     1      43.262 -17.406   3.402  1.00  0.00     0.279 C 
HETATM    9  O   UNL     1      43.532 -16.329   3.921  1.00  0.00    -0.265 OA
HETATM   10  H   UNL     1      42.315 -18.557   2.030  1.00  0.00     0.169 HD
BRANCH   8  11
HETATM   11  C   UNL     1      43.872 -18.648   3.848  1.00  0.00     0.143 A 
HETATM   12  O   UNL     1      43.895 -19.728   3.001  1.00  0.00    -0.310 OA
HETATM   13  C   UNL     1      44.490 -20.754   3.674  1.00  0.00     0.053 A 
HETATM   14  C   UNL     1      44.868 -20.342   4.932  1.00  0.00     0.036 A 
HETATM   15  C   UNL     1      44.468 -18.990   5.046  1.00  0.00     0.045 A 
BRANCH  13  16
HETATM   16  C   UNL     1      44.593 -22.047   2.953  1.00  0.00     0.060 C 
HETATM   17  C   UNL     1      44.035 -21.939   1.542  1.00  0.00     0.012 C 
ENDBRANCH  13  16
ENDBRANCH   8  11
ENDBRANCH   1   7
BRANCH   3  18
HETATM   18  C   UNL     1      41.115 -14.849  -1.588  1.00  0.00     0.010 A 
HETATM   19  C   UNL     1      40.710 -15.437  -2.810  1.00  0.00     0.152 A 
HETATM   20  N   UNL     1      41.065 -14.716  -3.879  1.00  0.00    -0.187 NA
HETATM   21  N   UNL     1      41.704 -13.662  -3.346  1.00  0.00    -0.289 N 
HETATM   22  H   UNL     1      42.076 -12.958  -3.972  1.00  0.00     0.188 HD
HETATM   23  C   UNL     1      41.755 -13.691  -1.982  1.00  0.00     0.123 A 
ENDBRANCH   3  18
TORSDOF 4
ENDMDL
MODEL 7
REMARK VINA RESULT:      -7.6      5.575      8.380
REMARK  4 active torsions:
REMARK  status: ('A' for Active; 'I' for Inactive)
REMARK    1  A    between atoms: C_2  and  C_3 
REMARK    2  A    between atoms: C_5  and  C_6 
REMARK       I    between atoms: C_6  and  N_7 
REMARK    3  A    between atoms: N_7  and  C_8 
REMARK    4  A    between atoms: C_10  and  C_11 
ROOT
HETATM    1  C   UNL     1      43.301 -17.413   2.937  1.00  0.00     0.035 A 
HETATM    2  C   UNL     1      43.636 -18.767   2.834  1.00  0.00     0.042 A 
HETATM    3  C   UNL     1      44.094 -19.489   3.951  1.00  0.00    -0.021 A 
HETATM    4  C   UNL     1      44.230 -18.824   5.176  1.00  0.00     0.012 A 
HETATM    5  C   UNL     1      43.904 -17.472   5.287  1.00  0.00     0.003 A 
HETATM    6  C   UNL     1      43.438 -16.772   4.174  1.00  0.00     0.029 A 
ENDROOT
BRANCH   1   7
HETATM    7  N   UNL     1      42.812 -16.640   1.868  1.00  0.00    -0.321 N 
HETATM    8  C   UNL     1      41.504 -16.483   1.444  1.00  0.00     0.279 C 
HETATM    9  O   UNL     1      40.526 -17.051   1.919  1.00  0.00    -0.265 OA
HETATM   10  H   UNL     1      43.492 -16.118   1.325  1.00  0.00     0.169 HD
BRANCH   8  11
HETATM   11  C   UNL     1      41.387 -15.552   0.335  1.00  0.00     0.143 A 
HETATM   12  O   UNL     1      41.187 -16.037  -0.934  1.00  0.00    -0.310 OA
HETATM   13  C   UNL     1      41.145 -14.964  -1.774  1.00  0.00     0.053 A 
HETATM   14  C   UNL     1      41.294 -13.795  -1.060  1.00  0.00     0.036 A 
HETATM   15  C   UNL     1      41.453 -14.173   0.294  1.00  0.00     0.045 A 
BRANCH  13  16
HETATM   16  C   UNL     1      40.969 -15.259  -3.217  1.00  0.00     0.060 C 
HETATM   17  C   UNL     1      39.522 -15.069  -3.647  1.00  0.00     0.012 C 
ENDBRANCH  13  16
ENDBRANCH   8  11
ENDBRANCH   1   7
BRANCH   3  18
HETATM   18  C   UNL     1      44.419 -20.903   3.852  1.00  0.00     0.010 A 
HETATM   19  C   UNL     1      44.419 -21.782   2.742  1.00  0.00     0.152 A 
HETATM   20  N   UNL     1      44.807 -23.021   3.057  1.00  0.00    -0.187 NA
HETATM   21  N   UNL     1      45.056 -22.944   4.375  1.00  0.00    -0.289 N 
HETATM   22  H   UNL     1      45.372 -23.779   4.855  1.00  0.00     0.188 HD
HETATM   23  C   UNL     1      44.845 -21.700   4.895  1.00  0.00     0.123 A 
ENDBRANCH   3  18
TORSDOF 4
ENDMDL
MODEL 8
REMARK VINA RESULT:      -7.3      6.343      9.586
REMARK  4 active torsions:
REMARK  status: ('A' for Active; 'I' for Inactive)
REMARK    1  A    between atoms: C_2  and  C_3 
REMARK    2  A    between atoms: C_5  and  C_6 
REMARK       I    between atoms: C_6  and  N_7 
REMARK    3  A    between atoms: N_7  and  C_8 
REMARK    4  A    between atoms: C_10  and  C_11 
ROOT
HETATM    1  C   UNL     1      41.282 -16.857   1.499  1.00  0.00     0.035 A 
HETATM    2  C   UNL     1      42.205 -17.897   1.644  1.00  0.00     0.042 A 
HETATM    3  C   UNL     1      42.600 -18.343   2.918  1.00  0.00    -0.021 A 
HETATM    4  C   UNL     1      42.068 -17.713   4.050  1.00  0.00     0.012 A 
HETATM    5  C   UNL     1      41.152 -16.671   3.914  1.00  0.00     0.003 A 
HETATM    6  C   UNL     1      40.758 -16.248   2.645  1.00  0.00     0.029 A 
ENDROOT
BRANCH   1   7
HETATM    7  N   UNL     1      40.823 -16.380   0.256  1.00  0.00    -0.321 N 
HETATM    8  C   UNL     1      41.186 -15.223  -0.412  1.00  0.00     0.279 C 
HETATM    9  O   UNL     1      41.962 -14.371   0.006  1.00  0.00    -0.265 OA
HETATM   10  H   UNL     1      40.135 -16.945  -0.231  1.00  0.00     0.169 HD
BRANCH   8  11
HETATM   11  C   UNL     1      40.535 -15.101  -1.705  1.00  0.00     0.143 A 
HETATM   12  O   UNL     1      39.401 -14.335  -1.819  1.00  0.00    -0.310 OA
HETATM   13  C   UNL     1      38.987 -14.418  -3.115  1.00  0.00     0.053 A 
HETATM   14  C   UNL     1      39.851 -15.209  -3.841  1.00  0.00     0.036 A 
HETATM   15  C   UNL     1      40.843 -15.651  -2.934  1.00  0.00     0.045 A 
BRANCH  13  16
HETATM   16  C   UNL     1      37.745 -13.685  -3.461  1.00  0.00     0.060 C 
HETATM   17  C   UNL     1      36.757 -14.584  -4.189  1.00  0.00     0.012 C 
ENDBRANCH  13  16
ENDBRANCH   8  11
ENDBRANCH   1   7
BRANCH   3  18
HETATM   18  C   UNL     1      43.541 -19.443   3.072  1.00  0.00     0.010 A 
HETATM   19  C   UNL     1      44.388 -19.798   4.149  1.00  0.00     0.152 A 
HETATM   20  N   UNL     1      45.096 -20.907   3.912  1.00  0.00    -0.187 NA
HETATM   21  N   UNL     1      44.708 -21.266   2.678  1.00  0.00    -0.289 N 
HETATM   22  H   UNL     1      45.116 -22.099   2.268  1.00  0.00     0.188 HD
HETATM   23  C   UNL     1      43.777 -20.429   2.136  1.00  0.00     0.123 A 
ENDBRANCH   3  18
TORSDOF 4
ENDMDL
MODEL 9
REMARK VINA RESULT:      -7.2      5.104      8.753
REMARK  4 active torsions:
REMARK  status: ('A' for Active; 'I' for Inactive)
REMARK    1  A    between atoms: C_2  and  C_3 
REMARK    2  A    between atoms: C_5  and  C_6 
REMARK       I    between atoms: C_6  and  N_7 
REMARK    3  A    between atoms: N_7  and  C_8 
REMARK    4  A    between atoms: C_10  and  C_11 
ROOT
HETATM    1  C   UNL     1      43.096 -17.316   1.869  1.00  0.00     0.035 A 
HETATM    2  C   UNL     1      43.016 -16.865   3.190  1.00  0.00     0.042 A 
HETATM    3  C   UNL     1      43.490 -17.651   4.256  1.00  0.00    -0.021 A 
HETATM    4  C   UNL     1      44.030 -18.913   3.977  1.00  0.00     0.012 A 
HETATM    5  C   UNL     1      44.108 -19.374   2.663  1.00  0.00     0.003 A 
HETATM    6  C   UNL     1      43.647 -18.577   1.615  1.00  0.00     0.029 A 
ENDROOT
BRANCH   1   7
HETATM    7  N   UNL     1      42.667 -16.571   0.755  1.00  0.00    -0.321 N 
HETATM    8  C   UNL     1      41.409 -16.056   0.493  1.00  0.00     0.279 C 
HETATM    9  O   UNL     1      40.414 -16.212   1.194  1.00  0.00    -0.265 OA
HETATM   10  H   UNL     1      43.357 -16.372   0.038  1.00  0.00     0.169 HD
BRANCH   8  11
HETATM   11  C   UNL     1      41.368 -15.288  -0.740  1.00  0.00     0.143 A 
HETATM   12  O   UNL     1      41.799 -13.984  -0.735  1.00  0.00    -0.310 OA
HETATM   13  C   UNL     1      41.624 -13.498  -1.997  1.00  0.00     0.053 A 
HETATM   14  C   UNL     1      41.108 -14.478  -2.817  1.00  0.00     0.036 A 
HETATM   15  C   UNL     1      40.940 -15.627  -2.008  1.00  0.00     0.045 A 
BRANCH  13  16
HETATM   16  C   UNL     1      41.997 -12.080  -2.217  1.00  0.00     0.060 C 
HETATM   17  C   UNL     1      42.416 -11.835  -3.659  1.00  0.00     0.012 C 
ENDBRANCH  13  16
ENDBRANCH   8  11
ENDBRANCH   1   7
BRANCH   3  18
HETATM   18  C   UNL     1      43.431 -17.172   5.629  1.00  0.00     0.010 A 
HETATM   19  C   UNL     1      43.263 -17.868   6.850  1.00  0.00     0.152 A 
HETATM   20  N   UNL     1      43.286 -17.062   7.917  1.00  0.00    -0.187 NA
HETATM   21  N   UNL     1      43.466 -15.844   7.383  1.00  0.00    -0.289 N 
HETATM   22  H   UNL     1      43.518 -15.047   8.008  1.00  0.00     0.188 HD
HETATM   23  C   UNL     1      43.565 -15.856   6.022  1.00  0.00     0.123 A 
ENDBRANCH   3  18
TORSDOF 4
ENDMDL
MODEL 10
REMARK VINA RESULT:      -7.0      5.500      8.279
REMARK  4 active torsions:
REMARK  status: ('A' for Active; 'I' for Inactive)
REMARK    1  A    between atoms: C_2  and  C_3 
REMARK    2  A    between atoms: C_5  and  C_6 
REMARK       I    between atoms: C_6  and  N_7 
REMARK    3  A    between atoms: N_7  and  C_8 
REMARK    4  A    between atoms: C_10  and  C_11 
ROOT
HETATM    1  C   UNL     1      41.471 -16.138   1.980  1.00  0.00     0.035 A 
HETATM    2  C   UNL     1      41.723 -15.866   0.632  1.00  0.00     0.042 A 
HETATM    3  C   UNL     1      40.875 -15.023  -0.109  1.00  0.00    -0.021 A 
HETATM    4  C   UNL     1      39.753 -14.471   0.520  1.00  0.00     0.012 A 
HETATM    5  C   UNL     1      39.490 -14.742   1.863  1.00  0.00     0.003 A 
HETATM    6  C   UNL     1      40.348 -15.567   2.590  1.00  0.00     0.029 A 
ENDROOT
BRANCH   1   7
HETATM    7  N   UNL     1      42.293 -16.948   2.787  1.00  0.00    -0.321 N 
HETATM    8  C   UNL     1      42.670 -18.265   2.586  1.00  0.00     0.279 C 
HETATM    9  O   UNL     1      42.298 -18.981   1.663  1.00  0.00    -0.265 OA
HETATM   10  H   UNL     1      42.670 -16.530   3.631  1.00  0.00     0.169 HD
BRANCH   8  11
HETATM   11  C   UNL     1      43.579 -18.745   3.613  1.00  0.00     0.143 A 
HETATM   12  O   UNL     1      43.777 -17.991   4.743  1.00  0.00    -0.310 OA
HETATM   13  C   UNL     1      44.687 -18.652   5.514  1.00  0.00     0.053 A 
HETATM   14  C   UNL     1      45.060 -19.830   4.905  1.00  0.00     0.036 A 
HETATM   15  C   UNL     1      44.351 -19.888   3.682  1.00  0.00     0.045 A 
BRANCH  13  16
HETATM   16  C   UNL     1      45.081 -17.994   6.784  1.00  0.00     0.060 C 
HETATM   17  C   UNL     1      43.895 -17.859   7.727  1.00  0.00     0.012 C 
ENDBRANCH  13  16
ENDBRANCH   8  11
ENDBRANCH   1   7
BRANCH   3  18
HETATM   18  C   UNL     1      41.149 -14.719  -1.505  1.00  0.00     0.010 A 
HETATM   19  C   UNL     1      40.777 -15.392  -2.694  1.00  0.00     0.152 A 
HETATM   20  N   UNL     1      41.209 -14.775  -3.799  1.00  0.00    -0.187 NA
HETATM   21  N   UNL     1      41.864 -13.704  -3.322  1.00  0.00    -0.289 N 
HETATM   22  H   UNL     1      42.292 -13.068  -3.985  1.00  0.00     0.188 HD
HETATM   23  C   UNL     1      41.852 -13.622  -1.960  1.00  0.00     0.123 A 
ENDBRANCH   3  18
TORSDOF 4
ENDMDL
