MODEL 1
REMARK VINA RESULT:      -8.3      0.000      0.000
REMARK  8 active torsions:
REMARK  status: ('A' for Active; 'I' for Inactive)
REMARK    1  A    between atoms: C_2  and  C_3 
REMARK    2  A    between atoms: C_3  and  C_4 
REMARK       I    between atoms: C_4  and  N_5 
REMARK    3  A    between atoms: N_8  and  C_9 
REMARK    4  A    between atoms: C_13  and  N_14 
REMARK    5  A    between atoms: N_14  and  C_15 
REMARK    6  A    between atoms: C_15  and  N_16 
REMARK       I    between atoms: N_16  and  C_17 
REMARK    7  A    between atoms: C_17  and  C_18 
REMARK    8  A    between atoms: C_21  and  O_22 
ROOT
HETATM    1  C   UNL     1      41.234 -14.277   2.332  1.00  0.00     0.052 A 
HETATM    2  C   UNL     1      41.153 -15.359   3.230  1.00  0.00     0.062 A 
HETATM    3 CL   UNL     1      40.516 -16.920   2.822  1.00  0.00    -0.082 Cl
HETATM    4  C   UNL     1      41.672 -15.263   4.536  1.00  0.00     0.055 A 
HETATM    5  C   UNL     1      42.299 -14.100   4.993  1.00  0.00     0.036 A 
HETATM    6  C   UNL     1      42.420 -13.034   4.114  1.00  0.00     0.032 A 
HETATM    7  C   UNL     1      41.882 -13.121   2.821  1.00  0.00     0.033 A 
ENDROOT
BRANCH   5   8
HETATM    8  N   UNL     1      42.843 -14.144   6.295  1.00  0.00    -0.333 N 
HETATM    9  H   UNL     1      42.166 -13.977   7.033  1.00  0.00     0.168 HD
BRANCH   8  10
HETATM   10  C   UNL     1      44.008 -14.623   6.772  1.00  0.00     0.179 C 
HETATM   11  S   UNL     1      45.062 -13.544   7.508  1.00  0.00    -0.040 SA
BRANCH  10  12
HETATM   12  N   UNL     1      44.406 -15.914   6.677  1.00  0.00    -0.299 N 
HETATM   13  C   UNL     1      43.585 -17.018   6.878  1.00  0.00     0.257 C 
HETATM   14  O   UNL     1      42.741 -17.174   7.747  1.00  0.00    -0.267 OA
HETATM   15  H   UNL     1      45.039 -16.024   5.894  1.00  0.00     0.171 HD
BRANCH  13  16
HETATM   16  C   UNL     1      43.891 -18.152   5.971  1.00  0.00     0.032 A 
HETATM   17  C   UNL     1      44.114 -19.419   6.511  1.00  0.00     0.020 A 
HETATM   18  C   UNL     1      44.421 -20.483   5.662  1.00  0.00     0.038 A 
HETATM   19  C   UNL     1      44.468 -20.297   4.276  1.00  0.00     0.068 A 
HETATM   20  C   UNL     1      44.242 -19.027   3.740  1.00  0.00     0.038 A 
HETATM   21  C   UNL     1      43.952 -17.952   4.587  1.00  0.00     0.020 A 
BRANCH  19  22
HETATM   22  O   UNL     1      44.771 -21.414   3.548  1.00  0.00    -0.356 OA
HETATM   23  C   UNL     1      44.622 -22.655   4.230  1.00  0.00     0.210 C 
ENDBRANCH  19  22
ENDBRANCH  13  16
ENDBRANCH  10  12
ENDBRANCH   8  10
ENDBRANCH   5   8
BRANCH   1  24
HETATM   24  N   UNL     1      40.730 -14.206   1.027  1.00  0.00    -0.376 N 
HETATM   25  C   UNL     1      39.286 -14.084   0.771  1.00  0.00     0.143 C 
HETATM   26  C   UNL     1      39.039 -13.540  -0.650  1.00  0.00     0.145 C 
HETATM   27  N   UNL     1      39.760 -14.293  -1.689  1.00  0.00    -0.349 N 
HETATM   28  C   UNL     1      39.395 -14.276  -3.034  1.00  0.00     0.219 C 
HETATM   29  C   UNL     1      41.169 -14.575  -1.382  1.00  0.00     0.145 C 
HETATM   30  O   UNL     1      40.175 -14.622  -3.922  1.00  0.00    -0.273 OA
HETATM   31  C   UNL     1      41.398 -15.095   0.050  1.00  0.00     0.143 C 
BRANCH  28  32
HETATM   32  C   UNL     1      37.974 -13.825  -3.351  1.00  0.00     0.103 C 
BRANCH  32  33
HETATM   33  C   UNL     1      37.149 -14.865  -4.109  1.00  0.00     0.005 C 
HETATM   34  C   UNL     1      35.926 -14.269  -4.793  1.00  0.00     0.005 C 
ENDBRANCH  32  33
ENDBRANCH  28  32
ENDBRANCH   1  24
TORSDOF 8
ENDMDL
MODEL 2
REMARK VINA RESULT:      -7.7      2.590      8.630
REMARK  8 active torsions:
REMARK  status: ('A' for Active; 'I' for Inactive)
REMARK    1  A    between atoms: C_2  and  C_3 
REMARK    2  A    between atoms: C_3  and  C_4 
REMARK       I    between atoms: C_4  and  N_5 
REMARK    3  A    between atoms: N_8  and  C_9 
REMARK    4  A    between atoms: C_13  and  N_14 
REMARK    5  A    between atoms: N_14  and  C_15 
REMARK    6  A    between atoms: C_15  and  N_16 
REMARK       I    between atoms: N_16  and  C_17 
REMARK    7  A    between atoms: C_17  and  C_18 
REMARK    8  A    between atoms: C_21  and  O_22 
ROOT
HETATM    1  C   UNL     1      42.037 -15.407   3.632  1.00  0.00     0.052 A 
HETATM    2  C   UNL     1      40.940 -15.235   2.765  1.00  0.00     0.062 A 
HETATM    3 CL   UNL     1      40.012 -16.538   2.094  1.00  0.00    -0.082 Cl
HETATM    4  C   UNL     1      40.464 -13.950   2.439  1.00  0.00     0.055 A 
HETATM    5  C   UNL     1      41.047 -12.795   2.967  1.00  0.00     0.036 A 
HETATM    6  C   UNL     1      42.107 -12.943   3.849  1.00  0.00     0.032 A 
HETATM    7  C   UNL     1      42.597 -14.222   4.156  1.00  0.00     0.033 A 
ENDROOT
BRANCH   5   8
HETATM    8  N   UNL     1      40.442 -11.567   2.625  1.00  0.00    -0.333 N 
HETATM    9  H   UNL     1      39.920 -11.136   3.382  1.00  0.00     0.168 HD
BRANCH   8  10
HETATM   10  C   UNL     1      40.636 -10.720   1.595  1.00  0.00     0.179 C 
HETATM   11  S   UNL     1      40.808  -9.087   1.938  1.00  0.00    -0.040 SA
BRANCH  10  12
HETATM   12  N   UNL     1      40.676 -11.090   0.293  1.00  0.00    -0.299 N 
HETATM   13  C   UNL     1      41.751 -11.720  -0.325  1.00  0.00     0.257 C 
HETATM   14  O   UNL     1      42.940 -11.472  -0.192  1.00  0.00    -0.267 OA
HETATM   15  H   UNL     1      39.779 -11.466   0.012  1.00  0.00     0.171 HD
BRANCH  13  16
HETATM   16  C   UNL     1      41.343 -12.728  -1.335  1.00  0.00     0.032 A 
HETATM   17  C   UNL     1      40.107 -13.362  -1.205  1.00  0.00     0.020 A 
HETATM   18  C   UNL     1      39.728 -14.324  -2.143  1.00  0.00     0.038 A 
HETATM   19  C   UNL     1      40.558 -14.629  -3.226  1.00  0.00     0.068 A 
HETATM   20  C   UNL     1      41.794 -13.990  -3.352  1.00  0.00     0.038 A 
HETATM   21  C   UNL     1      42.189 -13.037  -2.407  1.00  0.00     0.020 A 
BRANCH  19  22
HETATM   22  O   UNL     1      40.077 -15.581  -4.080  1.00  0.00    -0.356 OA
HETATM   23  C   UNL     1      38.663 -15.755  -4.078  1.00  0.00     0.210 C 
ENDBRANCH  19  22
ENDBRANCH  13  16
ENDBRANCH  10  12
ENDBRANCH   8  10
ENDBRANCH   5   8
BRANCH   1  24
HETATM   24  N   UNL     1      42.648 -16.609   4.013  1.00  0.00    -0.376 N 
HETATM   25  C   UNL     1      43.296 -17.485   3.024  1.00  0.00     0.143 C 
HETATM   26  C   UNL     1      44.284 -18.440   3.722  1.00  0.00     0.145 C 
HETATM   27  N   UNL     1      43.682 -19.170   4.850  1.00  0.00    -0.349 N 
HETATM   28  C   UNL     1      44.212 -20.353   5.362  1.00  0.00     0.219 C 
HETATM   29  C   UNL     1      42.887 -18.341   5.767  1.00  0.00     0.145 C 
HETATM   30  O   UNL     1      43.913 -20.765   6.483  1.00  0.00    -0.273 OA
HETATM   31  C   UNL     1      41.922 -17.377   5.050  1.00  0.00     0.143 C 
BRANCH  28  32
HETATM   32  C   UNL     1      45.166 -21.122   4.456  1.00  0.00     0.103 C 
BRANCH  32  33
HETATM   33  C   UNL     1      44.496 -22.243   3.661  1.00  0.00     0.005 C 
HETATM   34  C   UNL     1      44.277 -21.884   2.197  1.00  0.00     0.005 C 
ENDBRANCH  32  33
ENDBRANCH  28  32
ENDBRANCH   1  24
TORSDOF 8
ENDMDL
MODEL 3
REMARK VINA RESULT:      -7.7      1.663      2.225
REMARK  8 active torsions:
REMARK  status: ('A' for Active; 'I' for Inactive)
REMARK    1  A    between atoms: C_2  and  C_3 
REMARK    2  A    between atoms: C_3  and  C_4 
REMARK       I    between atoms: C_4  and  N_5 
REMARK    3  A    between atoms: N_8  and  C_9 
REMARK    4  A    between atoms: C_13  and  N_14 
REMARK    5  A    between atoms: N_14  and  C_15 
REMARK    6  A    between atoms: C_15  and  N_16 
REMARK       I    between atoms: N_16  and  C_17 
REMARK    7  A    between atoms: C_17  and  C_18 
REMARK    8  A    between atoms: C_21  and  O_22 
ROOT
HETATM    1  C   UNL     1      41.312 -13.827   2.076  1.00  0.00     0.052 A 
HETATM    2  C   UNL     1      41.076 -15.020   2.786  1.00  0.00     0.062 A 
HETATM    3 CL   UNL     1      40.359 -16.441   2.098  1.00  0.00    -0.082 Cl
HETATM    4  C   UNL     1      41.493 -15.165   4.124  1.00  0.00     0.055 A 
HETATM    5  C   UNL     1      42.166 -14.143   4.799  1.00  0.00     0.036 A 
HETATM    6  C   UNL     1      42.437 -12.972   4.107  1.00  0.00     0.032 A 
HETATM    7  C   UNL     1      42.002 -12.817   2.781  1.00  0.00     0.033 A 
ENDROOT
BRANCH   5   8
HETATM    8  N   UNL     1      42.597 -14.427   6.113  1.00  0.00    -0.333 N 
HETATM    9  H   UNL     1      41.846 -14.474   6.794  1.00  0.00     0.168 HD
BRANCH   8  10
HETATM   10  C   UNL     1      43.756 -14.912   6.598  1.00  0.00     0.179 C 
HETATM   11  S   UNL     1      44.772 -13.856   7.416  1.00  0.00    -0.040 SA
BRANCH  10  12
HETATM   12  N   UNL     1      44.177 -16.191   6.451  1.00  0.00    -0.299 N 
HETATM   13  C   UNL     1      43.354 -17.311   6.486  1.00  0.00     0.257 C 
HETATM   14  O   UNL     1      42.426 -17.534   7.249  1.00  0.00    -0.267 OA
HETATM   15  H   UNL     1      44.888 -16.241   5.732  1.00  0.00     0.171 HD
BRANCH  13  16
HETATM   16  C   UNL     1      43.764 -18.373   5.535  1.00  0.00     0.032 A 
HETATM   17  C   UNL     1      43.653 -18.142   4.163  1.00  0.00     0.020 A 
HETATM   18  C   UNL     1      44.020 -19.146   3.266  1.00  0.00     0.038 A 
HETATM   19  C   UNL     1      44.531 -20.363   3.729  1.00  0.00     0.068 A 
HETATM   20  C   UNL     1      44.641 -20.589   5.104  1.00  0.00     0.038 A 
HETATM   21  C   UNL     1      44.259 -19.594   6.009  1.00  0.00     0.020 A 
BRANCH  19  22
HETATM   22  O   UNL     1      44.862 -21.265   2.757  1.00  0.00    -0.356 OA
HETATM   23  C   UNL     1      43.830 -21.577   1.826  1.00  0.00     0.210 C 
ENDBRANCH  19  22
ENDBRANCH  13  16
ENDBRANCH  10  12
ENDBRANCH   8  10
ENDBRANCH   5   8
BRANCH   1  24
HETATM   24  N   UNL     1      40.922 -13.518   0.765  1.00  0.00    -0.376 N 
HETATM   25  C   UNL     1      41.718 -12.609  -0.074  1.00  0.00     0.143 C 
HETATM   26  C   UNL     1      41.376 -12.819  -1.563  1.00  0.00     0.145 C 
HETATM   27  N   UNL     1      39.931 -12.759  -1.836  1.00  0.00    -0.349 N 
HETATM   28  C   UNL     1      39.404 -12.507  -3.102  1.00  0.00     0.219 C 
HETATM   29  C   UNL     1      39.094 -13.529  -0.905  1.00  0.00     0.145 C 
HETATM   30  O   UNL     1      38.239 -12.785  -3.386  1.00  0.00    -0.273 OA
HETATM   31  C   UNL     1      39.467 -13.324   0.576  1.00  0.00     0.143 C 
BRANCH  28  32
HETATM   32  C   UNL     1      40.338 -11.852  -4.112  1.00  0.00     0.103 C 
BRANCH  32  33
HETATM   33  C   UNL     1      39.756 -10.603  -4.774  1.00  0.00     0.005 C 
HETATM   34  C   UNL     1      40.811  -9.756  -5.474  1.00  0.00     0.005 C 
ENDBRANCH  32  33
ENDBRANCH  28  32
ENDBRANCH   1  24
TORSDOF 8
ENDMDL
MODEL 4
REMARK VINA RESULT:      -7.5      4.672      8.619
REMARK  8 active torsions:
REMARK  status: ('A' for Active; 'I' for Inactive)
REMARK    1  A    between atoms: C_2  and  C_3 
REMARK    2  A    between atoms: C_3  and  C_4 
REMARK       I    between atoms: C_4  and  N_5 
REMARK    3  A    between atoms: N_8  and  C_9 
REMARK    4  A    between atoms: C_13  and  N_14 
REMARK    5  A    between atoms: N_14  and  C_15 
REMARK    6  A    between atoms: C_15  and  N_16 
REMARK       I    between atoms: N_16  and  C_17 
REMARK    7  A    between atoms: C_17  and  C_18 
REMARK    8  A    between atoms: C_21  and  O_22 
ROOT
HETATM    1  C   UNL     1      41.995 -14.981   4.612  1.00  0.00     0.052 A 
HETATM    2  C   UNL     1      40.856 -14.496   3.939  1.00  0.00     0.062 A 
HETATM    3 CL   UNL     1      39.930 -15.420   2.800  1.00  0.00    -0.082 Cl
HETATM    4  C   UNL     1      40.336 -13.217   4.214  1.00  0.00     0.055 A 
HETATM    5  C   UNL     1      40.915 -12.380   5.172  1.00  0.00     0.036 A 
HETATM    6  C   UNL     1      42.016 -12.850   5.871  1.00  0.00     0.032 A 
HETATM    7  C   UNL     1      42.550 -14.116   5.580  1.00  0.00     0.033 A 
ENDROOT
BRANCH   5   8
HETATM    8  N   UNL     1      40.266 -11.149   5.413  1.00  0.00    -0.333 N 
HETATM    9  H   UNL     1      39.260 -11.179   5.286  1.00  0.00     0.168 HD
BRANCH   8  10
HETATM   10  C   UNL     1      40.668 -10.023   6.033  1.00  0.00     0.179 C 
HETATM   11  S   UNL     1      41.308  -8.790   5.092  1.00  0.00    -0.040 SA
BRANCH  10  12
HETATM   12  N   UNL     1      40.617  -9.821   7.371  1.00  0.00    -0.299 N 
HETATM   13  C   UNL     1      40.129 -10.736   8.299  1.00  0.00     0.257 C 
HETATM   14  O   UNL     1      39.133 -11.437   8.204  1.00  0.00    -0.267 OA
HETATM   15  H   UNL     1      41.456  -9.348   7.683  1.00  0.00     0.171 HD
BRANCH  13  16
HETATM   16  C   UNL     1      40.883 -10.738   9.577  1.00  0.00     0.032 A 
HETATM   17  C   UNL     1      40.184 -10.812  10.782  1.00  0.00     0.020 A 
HETATM   18  C   UNL     1      40.890 -10.795  11.986  1.00  0.00     0.038 A 
HETATM   19  C   UNL     1      42.287 -10.743  11.992  1.00  0.00     0.068 A 
HETATM   20  C   UNL     1      42.982 -10.671  10.782  1.00  0.00     0.038 A 
HETATM   21  C   UNL     1      42.281 -10.670   9.572  1.00  0.00     0.020 A 
BRANCH  19  22
HETATM   22  O   UNL     1      42.866 -10.739  13.231  1.00  0.00    -0.356 OA
HETATM   23  C   UNL     1      43.273  -9.465  13.719  1.00  0.00     0.210 C 
ENDBRANCH  19  22
ENDBRANCH  13  16
ENDBRANCH  10  12
ENDBRANCH   8  10
ENDBRANCH   5   8
BRANCH   1  24
HETATM   24  N   UNL     1      42.651 -16.204   4.418  1.00  0.00    -0.376 N 
HETATM   25  C   UNL     1      42.919 -16.721   3.067  1.00  0.00     0.143 C 
HETATM   26  C   UNL     1      44.042 -17.777   3.112  1.00  0.00     0.145 C 
HETATM   27  N   UNL     1      43.801 -18.832   4.110  1.00  0.00    -0.349 N 
HETATM   28  C   UNL     1      44.422 -20.079   4.066  1.00  0.00     0.219 C 
HETATM   29  C   UNL     1      43.369 -18.348   5.429  1.00  0.00     0.145 C 
HETATM   30  O   UNL     1      44.479 -20.811   5.054  1.00  0.00    -0.273 OA
HETATM   31  C   UNL     1      42.263 -17.277   5.362  1.00  0.00     0.143 C 
BRANCH  28  32
HETATM   32  C   UNL     1      45.012 -20.500   2.725  1.00  0.00     0.103 C 
BRANCH  32  33
HETATM   33  C   UNL     1      44.408 -21.787   2.160  1.00  0.00     0.005 C 
HETATM   34  C   UNL     1      42.969 -21.613   1.693  1.00  0.00     0.005 C 
ENDBRANCH  32  33
ENDBRANCH  28  32
ENDBRANCH   1  24
TORSDOF 8
ENDMDL
MODEL 5
REMARK VINA RESULT:      -7.4      4.673      8.784
REMARK  8 active torsions:
REMARK  status: ('A' for Active; 'I' for Inactive)
REMARK    1  A    between atoms: C_2  and  C_3 
REMARK    2  A    between atoms: C_3  and  C_4 
REMARK       I    between atoms: C_4  and  N_5 
REMARK    3  A    between atoms: N_8  and  C_9 
REMARK    4  A    between atoms: C_13  and  N_14 
REMARK    5  A    between atoms: N_14  and  C_15 
REMARK    6  A    between atoms: C_15  and  N_16 
REMARK       I    between atoms: N_16  and  C_17 
REMARK    7  A    between atoms: C_17  and  C_18 
REMARK    8  A    between atoms: C_21  and  O_22 
ROOT
HETATM    1  C   UNL     1      40.110 -12.131   5.820  1.00  0.00     0.052 A 
HETATM    2  C   UNL     1      39.770 -11.608   4.557  1.00  0.00     0.062 A 
HETATM    3 CL   UNL     1      39.722  -9.915   4.183  1.00  0.00    -0.082 Cl
HETATM    4  C   UNL     1      39.516 -12.456   3.462  1.00  0.00     0.055 A 
HETATM    5  C   UNL     1      39.601 -13.847   3.575  1.00  0.00     0.036 A 
HETATM    6  C   UNL     1      39.966 -14.382   4.801  1.00  0.00     0.032 A 
HETATM    7  C   UNL     1      40.197 -13.538   5.899  1.00  0.00     0.033 A 
ENDROOT
BRANCH   5   8
HETATM    8  N   UNL     1      39.393 -14.592   2.394  1.00  0.00    -0.333 N 
HETATM    9  H   UNL     1      38.427 -14.858   2.236  1.00  0.00     0.168 HD
BRANCH   8  10
HETATM   10  C   UNL     1      40.161 -14.792   1.306  1.00  0.00     0.179 C 
HETATM   11  S   UNL     1      39.749 -13.988  -0.108  1.00  0.00    -0.040 SA
BRANCH  10  12
HETATM   12  N   UNL     1      41.233 -15.618   1.261  1.00  0.00    -0.299 N 
HETATM   13  C   UNL     1      42.341 -15.535   2.098  1.00  0.00     0.257 C 
HETATM   14  O   UNL     1      42.930 -14.528   2.460  1.00  0.00    -0.267 OA
HETATM   15  H   UNL     1      40.929 -16.570   1.095  1.00  0.00     0.171 HD
BRANCH  13  16
HETATM   16  C   UNL     1      42.895 -16.859   2.475  1.00  0.00     0.032 A 
HETATM   17  C   UNL     1      43.342 -17.723   1.475  1.00  0.00     0.020 A 
HETATM   18  C   UNL     1      43.845 -18.977   1.826  1.00  0.00     0.038 A 
HETATM   19  C   UNL     1      43.938 -19.356   3.169  1.00  0.00     0.068 A 
HETATM   20  C   UNL     1      43.490 -18.487   4.166  1.00  0.00     0.038 A 
HETATM   21  C   UNL     1      42.969 -17.236   3.822  1.00  0.00     0.020 A 
BRANCH  19  22
HETATM   22  O   UNL     1      44.454 -20.603   3.388  1.00  0.00    -0.356 OA
HETATM   23  C   UNL     1      44.997 -20.829   4.685  1.00  0.00     0.210 C 
ENDBRANCH  19  22
ENDBRANCH  13  16
ENDBRANCH  10  12
ENDBRANCH   8  10
ENDBRANCH   5   8
BRANCH   1  24
HETATM   24  N   UNL     1      40.347 -11.423   7.006  1.00  0.00    -0.376 N 
HETATM   25  C   UNL     1      41.714 -11.089   7.436  1.00  0.00     0.143 C 
HETATM   26  C   UNL     1      41.686  -9.929   8.452  1.00  0.00     0.145 C 
HETATM   27  N   UNL     1      40.757 -10.164   9.570  1.00  0.00    -0.349 N 
HETATM   28  C   UNL     1      40.848  -9.495  10.790  1.00  0.00     0.219 C 
HETATM   29  C   UNL     1      39.431 -10.661   9.177  1.00  0.00     0.145 C 
HETATM   30  O   UNL     1      39.901  -9.446  11.574  1.00  0.00    -0.273 OA
HETATM   31  C   UNL     1      39.480 -11.803   8.145  1.00  0.00     0.143 C 
BRANCH  28  32
HETATM   32  C   UNL     1      42.188  -8.844  11.113  1.00  0.00     0.103 C 
BRANCH  32  33
HETATM   33  C   UNL     1      43.215  -9.806  11.712  1.00  0.00     0.005 C 
HETATM   34  C   UNL     1      43.281  -9.732  13.231  1.00  0.00     0.005 C 
ENDBRANCH  32  33
ENDBRANCH  28  32
ENDBRANCH   1  24
TORSDOF 8
ENDMDL
MODEL 6
REMARK VINA RESULT:      -7.4      3.227     10.742
REMARK  8 active torsions:
REMARK  status: ('A' for Active; 'I' for Inactive)
REMARK    1  A    between atoms: C_2  and  C_3 
REMARK    2  A    between atoms: C_3  and  C_4 
REMARK       I    between atoms: C_4  and  N_5 
REMARK    3  A    between atoms: N_8  and  C_9 
REMARK    4  A    between atoms: C_13  and  N_14 
REMARK    5  A    between atoms: N_14  and  C_15 
REMARK    6  A    between atoms: C_15  and  N_16 
REMARK       I    between atoms: N_16  and  C_17 
REMARK    7  A    between atoms: C_17  and  C_18 
REMARK    8  A    between atoms: C_21  and  O_22 
ROOT
HETATM    1  C   UNL     1      42.161 -15.626   1.117  1.00  0.00     0.052 A 
HETATM    2  C   UNL     1      42.048 -14.249   1.388  1.00  0.00     0.062 A 
HETATM    3 CL   UNL     1      42.748 -13.464   2.767  1.00  0.00    -0.082 Cl
HETATM    4  C   UNL     1      41.403 -13.380   0.486  1.00  0.00     0.055 A 
HETATM    5  C   UNL     1      40.861 -13.840  -0.717  1.00  0.00     0.036 A 
HETATM    6  C   UNL     1      40.991 -15.188  -1.019  1.00  0.00     0.032 A 
HETATM    7  C   UNL     1      41.613 -16.058  -0.110  1.00  0.00     0.033 A 
ENDROOT
BRANCH   5   8
HETATM    8  N   UNL     1      40.302 -12.868  -1.574  1.00  0.00    -0.333 N 
HETATM    9  H   UNL     1      39.999 -12.023  -1.100  1.00  0.00     0.168 HD
BRANCH   8  10
HETATM   10  C   UNL     1      40.332 -12.718  -2.912  1.00  0.00     0.179 C 
HETATM   11  S   UNL     1      41.756 -12.170  -3.612  1.00  0.00    -0.040 SA
BRANCH  10  12
HETATM   12  N   UNL     1      39.285 -12.954  -3.737  1.00  0.00    -0.299 N 
HETATM   13  C   UNL     1      38.313 -13.928  -3.534  1.00  0.00     0.257 C 
HETATM   14  O   UNL     1      38.473 -15.075  -3.145  1.00  0.00    -0.267 OA
HETATM   15  H   UNL     1      38.907 -12.078  -4.076  1.00  0.00     0.171 HD
BRANCH  13  16
HETATM   16  C   UNL     1      36.956 -13.503  -3.958  1.00  0.00     0.032 A 
HETATM   17  C   UNL     1      36.138 -14.407  -4.637  1.00  0.00     0.020 A 
HETATM   18  C   UNL     1      34.868 -14.004  -5.054  1.00  0.00     0.038 A 
HETATM   19  C   UNL     1      34.398 -12.718  -4.765  1.00  0.00     0.068 A 
HETATM   20  C   UNL     1      35.221 -11.818  -4.083  1.00  0.00     0.038 A 
HETATM   21  C   UNL     1      36.501 -12.209  -3.677  1.00  0.00     0.020 A 
BRANCH  19  22
HETATM   22  O   UNL     1      33.138 -12.442  -5.218  1.00  0.00    -0.356 OA
HETATM   23  C   UNL     1      32.254 -11.857  -4.267  1.00  0.00     0.210 C 
ENDBRANCH  19  22
ENDBRANCH  13  16
ENDBRANCH  10  12
ENDBRANCH   8  10
ENDBRANCH   5   8
BRANCH   1  24
HETATM   24  N   UNL     1      42.731 -16.616   1.930  1.00  0.00    -0.376 N 
HETATM   25  C   UNL     1      43.403 -17.789   1.348  1.00  0.00     0.143 C 
HETATM   26  C   UNL     1      44.340 -18.437   2.386  1.00  0.00     0.145 C 
HETATM   27  N   UNL     1      43.675 -18.715   3.670  1.00  0.00    -0.349 N 
HETATM   28  C   UNL     1      44.158 -19.640   4.594  1.00  0.00     0.219 C 
HETATM   29  C   UNL     1      42.858 -17.611   4.194  1.00  0.00     0.145 C 
HETATM   30  O   UNL     1      43.803 -19.626   5.772  1.00  0.00    -0.273 OA
HETATM   31  C   UNL     1      41.945 -16.962   3.136  1.00  0.00     0.143 C 
BRANCH  28  32
HETATM   32  C   UNL     1      45.135 -20.685   4.067  1.00  0.00     0.103 C 
BRANCH  32  33
HETATM   33  C   UNL     1      44.460 -21.939   3.510  1.00  0.00     0.005 C 
HETATM   34  C   UNL     1      44.438 -21.976   1.988  1.00  0.00     0.005 C 
ENDBRANCH  32  33
ENDBRANCH  28  32
ENDBRANCH   1  24
TORSDOF 8
ENDMDL
MODEL 7
REMARK VINA RESULT:      -7.4      4.604      8.998
REMARK  8 active torsions:
REMARK  status: ('A' for Active; 'I' for Inactive)
REMARK    1  A    between atoms: C_2  and  C_3 
REMARK    2  A    between atoms: C_3  and  C_4 
REMARK       I    between atoms: C_4  and  N_5 
REMARK    3  A    between atoms: N_8  and  C_9 
REMARK    4  A    between atoms: C_13  and  N_14 
REMARK    5  A    between atoms: N_14  and  C_15 
REMARK    6  A    between atoms: C_15  and  N_16 
REMARK       I    between atoms: N_16  and  C_17 
REMARK    7  A    between atoms: C_17  and  C_18 
REMARK    8  A    between atoms: C_21  and  O_22 
ROOT
HETATM    1  C   UNL     1      40.323 -11.649   5.763  1.00  0.00     0.052 A 
HETATM    2  C   UNL     1      41.164 -12.591   5.138  1.00  0.00     0.062 A 
HETATM    3 CL   UNL     1      42.486 -13.392   5.924  1.00  0.00    -0.082 Cl
HETATM    4  C   UNL     1      40.928 -13.012   3.815  1.00  0.00     0.055 A 
HETATM    5  C   UNL     1      39.849 -12.527   3.071  1.00  0.00     0.036 A 
HETATM    6  C   UNL     1      38.990 -11.625   3.679  1.00  0.00     0.032 A 
HETATM    7  C   UNL     1      39.237 -11.186   4.990  1.00  0.00     0.033 A 
ENDROOT
BRANCH   5   8
HETATM    8  N   UNL     1      39.672 -13.073   1.782  1.00  0.00    -0.333 N 
HETATM    9  H   UNL     1      40.258 -12.651   1.068  1.00  0.00     0.168 HD
BRANCH   8  10
HETATM   10  C   UNL     1      39.089 -14.210   1.354  1.00  0.00     0.179 C 
HETATM   11  S   UNL     1      37.525 -14.117   0.753  1.00  0.00    -0.040 SA
BRANCH  10  12
HETATM   12  N   UNL     1      39.667 -15.434   1.398  1.00  0.00    -0.299 N 
HETATM   13  C   UNL     1      40.879 -15.767   0.802  1.00  0.00     0.257 C 
HETATM   14  O   UNL     1      41.284 -15.438  -0.303  1.00  0.00    -0.267 OA
HETATM   15  H   UNL     1      39.551 -15.839   2.319  1.00  0.00     0.171 HD
BRANCH  13  16
HETATM   16  C   UNL     1      41.685 -16.723   1.601  1.00  0.00     0.032 A 
HETATM   17  C   UNL     1      42.773 -17.363   1.005  1.00  0.00     0.020 A 
HETATM   18  C   UNL     1      43.522 -18.277   1.749  1.00  0.00     0.038 A 
HETATM   19  C   UNL     1      43.213 -18.527   3.089  1.00  0.00     0.068 A 
HETATM   20  C   UNL     1      42.123 -17.883   3.681  1.00  0.00     0.038 A 
HETATM   21  C   UNL     1      41.358 -16.978   2.937  1.00  0.00     0.020 A 
BRANCH  19  22
HETATM   22  O   UNL     1      44.021 -19.435   3.714  1.00  0.00    -0.356 OA
HETATM   23  C   UNL     1      44.683 -20.364   2.860  1.00  0.00     0.210 C 
ENDBRANCH  19  22
ENDBRANCH  13  16
ENDBRANCH  10  12
ENDBRANCH   8  10
ENDBRANCH   5   8
BRANCH   1  24
HETATM   24  N   UNL     1      40.453 -11.103   7.048  1.00  0.00    -0.376 N 
HETATM   25  C   UNL     1      41.769 -10.739   7.594  1.00  0.00     0.143 C 
HETATM   26  C   UNL     1      41.606  -9.742   8.759  1.00  0.00     0.145 C 
HETATM   27  N   UNL     1      40.651 -10.200   9.780  1.00  0.00    -0.349 N 
HETATM   28  C   UNL     1      40.636  -9.708  11.085  1.00  0.00     0.219 C 
HETATM   29  C   UNL     1      39.385 -10.727   9.251  1.00  0.00     0.145 C 
HETATM   30  O   UNL     1      39.654  -9.838  11.816  1.00  0.00    -0.273 OA
HETATM   31  C   UNL     1      39.568 -11.703   8.073  1.00  0.00     0.143 C 
BRANCH  28  32
HETATM   32  C   UNL     1      41.905  -9.017  11.569  1.00  0.00     0.103 C 
BRANCH  32  33
HETATM   33  C   UNL     1      42.813  -9.912  12.414  1.00  0.00     0.005 C 
HETATM   34  C   UNL     1      44.063 -10.362  11.669  1.00  0.00     0.005 C 
ENDBRANCH  32  33
ENDBRANCH  28  32
ENDBRANCH   1  24
TORSDOF 8
ENDMDL
MODEL 8
REMARK VINA RESULT:      -7.3      4.775      8.583
REMARK  8 active torsions:
REMARK  status: ('A' for Active; 'I' for Inactive)
REMARK    1  A    between atoms: C_2  and  C_3 
REMARK    2  A    between atoms: C_3  and  C_4 
REMARK       I    between atoms: C_4  and  N_5 
REMARK    3  A    between atoms: N_8  and  C_9 
REMARK    4  A    between atoms: C_13  and  N_14 
REMARK    5  A    between atoms: N_14  and  C_15 
REMARK    6  A    between atoms: C_15  and  N_16 
REMARK       I    between atoms: N_16  and  C_17 
REMARK    7  A    between atoms: C_17  and  C_18 
REMARK    8  A    between atoms: C_21  and  O_22 
ROOT
HETATM    1  C   UNL     1      41.667 -15.162   4.504  1.00  0.00     0.052 A 
HETATM    2  C   UNL     1      42.149 -13.868   4.226  1.00  0.00     0.062 A 
HETATM    3 CL   UNL     1      43.657 -13.537   3.436  1.00  0.00    -0.082 Cl
HETATM    4  C   UNL     1      41.376 -12.726   4.511  1.00  0.00     0.055 A 
HETATM    5  C   UNL     1      40.098 -12.824   5.068  1.00  0.00     0.036 A 
HETATM    6  C   UNL     1      39.590 -14.090   5.319  1.00  0.00     0.032 A 
HETATM    7  C   UNL     1      40.370 -15.228   5.057  1.00  0.00     0.033 A 
ENDROOT
BRANCH   5   8
HETATM    8  N   UNL     1      39.389 -11.617   5.245  1.00  0.00    -0.333 N 
HETATM    9  H   UNL     1      38.392 -11.739   5.393  1.00  0.00     0.168 HD
BRANCH   8  10
HETATM   10  C   UNL     1      39.795 -10.364   5.526  1.00  0.00     0.179 C 
HETATM   11  S   UNL     1      39.705  -9.213   4.308  1.00  0.00    -0.040 SA
BRANCH  10  12
HETATM   12  N   UNL     1      40.299  -9.968   6.719  1.00  0.00    -0.299 N 
HETATM   13  C   UNL     1      39.921 -10.480   7.955  1.00  0.00     0.257 C 
HETATM   14  O   UNL     1      38.793 -10.750   8.339  1.00  0.00    -0.267 OA
HETATM   15  H   UNL     1      41.297  -9.813   6.640  1.00  0.00     0.171 HD
BRANCH  13  16
HETATM   16  C   UNL     1      41.045 -10.588   8.917  1.00  0.00     0.032 A 
HETATM   17  C   UNL     1      42.349 -10.703   8.433  1.00  0.00     0.020 A 
HETATM   18  C   UNL     1      43.408 -10.824   9.335  1.00  0.00     0.038 A 
HETATM   19  C   UNL     1      43.175 -10.795  10.714  1.00  0.00     0.068 A 
HETATM   20  C   UNL     1      41.867 -10.679  11.193  1.00  0.00     0.038 A 
HETATM   21  C   UNL     1      40.800 -10.574  10.295  1.00  0.00     0.020 A 
BRANCH  19  22
HETATM   22  O   UNL     1      44.290 -10.915  11.496  1.00  0.00    -0.356 OA
HETATM   23  C   UNL     1      45.482 -11.300  10.818  1.00  0.00     0.210 C 
ENDBRANCH  19  22
ENDBRANCH  13  16
ENDBRANCH  10  12
ENDBRANCH   8  10
ENDBRANCH   5   8
BRANCH   1  24
HETATM   24  N   UNL     1      42.330 -16.383   4.319  1.00  0.00    -0.376 N 
HETATM   25  C   UNL     1      43.553 -16.709   5.069  1.00  0.00     0.143 C 
HETATM   26  C   UNL     1      43.792 -18.232   5.064  1.00  0.00     0.145 C 
HETATM   27  N   UNL     1      43.756 -18.816   3.713  1.00  0.00    -0.349 N 
HETATM   28  C   UNL     1      44.335 -20.045   3.399  1.00  0.00     0.219 C 
HETATM   29  C   UNL     1      42.629 -18.375   2.879  1.00  0.00     0.145 C 
HETATM   30  O   UNL     1      44.020 -20.670   2.385  1.00  0.00    -0.273 OA
HETATM   31  C   UNL     1      42.392 -16.854   2.916  1.00  0.00     0.143 C 
BRANCH  28  32
HETATM   32  C   UNL     1      45.391 -20.569   4.364  1.00  0.00     0.103 C 
BRANCH  32  33
HETATM   33  C   UNL     1      44.979 -21.845   5.100  1.00  0.00     0.005 C 
HETATM   34  C   UNL     1      43.988 -21.587   6.227  1.00  0.00     0.005 C 
ENDBRANCH  32  33
ENDBRANCH  28  32
ENDBRANCH   1  24
TORSDOF 8
ENDMDL
MODEL 9
REMARK VINA RESULT:      -7.2      4.942      9.020
REMARK  8 active torsions:
REMARK  status: ('A' for Active; 'I' for Inactive)
REMARK    1  A    between atoms: C_2  and  C_3 
REMARK    2  A    between atoms: C_3  and  C_4 
REMARK       I    between atoms: C_4  and  N_5 
REMARK    3  A    between atoms: N_8  and  C_9 
REMARK    4  A    between atoms: C_13  and  N_14 
REMARK    5  A    between atoms: N_14  and  C_15 
REMARK    6  A    between atoms: C_15  and  N_16 
REMARK       I    between atoms: N_16  and  C_17 
REMARK    7  A    between atoms: C_17  and  C_18 
REMARK    8  A    between atoms: C_21  and  O_22 
ROOT
HETATM    1  C   UNL     1      41.969 -15.321   4.886  1.00  0.00     0.052 A 
HETATM    2  C   UNL     1      42.357 -14.217   5.670  1.00  0.00     0.062 A 
HETATM    3 CL   UNL     1      43.926 -14.031   6.386  1.00  0.00    -0.082 Cl
HETATM    4  C   UNL     1      41.493 -13.122   5.864  1.00  0.00     0.055 A 
HETATM    5  C   UNL     1      40.224 -13.075   5.281  1.00  0.00     0.036 A 
HETATM    6  C   UNL     1      39.835 -14.137   4.478  1.00  0.00     0.032 A 
HETATM    7  C   UNL     1      40.686 -15.239   4.303  1.00  0.00     0.033 A 
ENDROOT
BRANCH   5   8
HETATM    8  N   UNL     1      39.474 -11.897   5.488  1.00  0.00    -0.333 N 
HETATM    9  H   UNL     1      38.527 -12.060   5.814  1.00  0.00     0.168 HD
BRANCH   8  10
HETATM   10  C   UNL     1      39.836 -10.605   5.601  1.00  0.00     0.179 C 
HETATM   11  S   UNL     1      39.769  -9.644   4.227  1.00  0.00    -0.040 SA
BRANCH  10  12
HETATM   12  N   UNL     1      40.276 -10.026   6.743  1.00  0.00    -0.299 N 
HETATM   13  C   UNL     1      39.470  -9.663   7.817  1.00  0.00     0.257 C 
HETATM   14  O   UNL     1      38.371  -9.130   7.781  1.00  0.00    -0.267 OA
HETATM   15  H   UNL     1      41.154 -10.444   7.027  1.00  0.00     0.171 HD
BRANCH  13  16
HETATM   16  C   UNL     1      40.116  -9.873   9.136  1.00  0.00     0.032 A 
HETATM   17  C   UNL     1      40.992  -8.904   9.629  1.00  0.00     0.020 A 
HETATM   18  C   UNL     1      41.616  -9.107  10.861  1.00  0.00     0.038 A 
HETATM   19  C   UNL     1      41.344 -10.251  11.618  1.00  0.00     0.068 A 
HETATM   20  C   UNL     1      40.465 -11.217  11.120  1.00  0.00     0.038 A 
HETATM   21  C   UNL     1      39.849 -11.029   9.879  1.00  0.00     0.020 A 
BRANCH  19  22
HETATM   22  O   UNL     1      42.009 -10.334  12.809  1.00  0.00    -0.356 OA
HETATM   23  C   UNL     1      43.331  -9.805  12.816  1.00  0.00     0.210 C 
ENDBRANCH  19  22
ENDBRANCH  13  16
ENDBRANCH  10  12
ENDBRANCH   8  10
ENDBRANCH   5   8
BRANCH   1  24
HETATM   24  N   UNL     1      42.695 -16.494   4.638  1.00  0.00    -0.376 N 
HETATM   25  C   UNL     1      42.735 -17.098   3.297  1.00  0.00     0.143 C 
HETATM   26  C   UNL     1      43.946 -18.044   3.173  1.00  0.00     0.145 C 
HETATM   27  N   UNL     1      44.023 -19.027   4.266  1.00  0.00    -0.349 N 
HETATM   28  C   UNL     1      44.748 -20.215   4.172  1.00  0.00     0.219 C 
HETATM   29  C   UNL     1      43.820 -18.473   5.612  1.00  0.00     0.145 C 
HETATM   30  O   UNL     1      45.079 -20.853   5.171  1.00  0.00    -0.273 OA
HETATM   31  C   UNL     1      42.619 -17.513   5.709  1.00  0.00     0.143 C 
BRANCH  28  32
HETATM   32  C   UNL     1      45.093 -20.695   2.767  1.00  0.00     0.103 C 
BRANCH  32  33
HETATM   33  C   UNL     1      44.339 -21.956   2.341  1.00  0.00     0.005 C 
HETATM   34  C   UNL     1      43.027 -21.651   1.631  1.00  0.00     0.005 C 
ENDBRANCH  32  33
ENDBRANCH  28  32
ENDBRANCH   1  24
TORSDOF 8
ENDMDL
MODEL 10
REMARK VINA RESULT:      -7.1      1.621      1.990
REMARK  8 active torsions:
REMARK  status: ('A' for Active; 'I' for Inactive)
REMARK    1  A    between atoms: C_2  and  C_3 
REMARK    2  A    between atoms: C_3  and  C_4 
REMARK       I    between atoms: C_4  and  N_5 
REMARK    3  A    between atoms: N_8  and  C_9 
REMARK    4  A    between atoms: C_13  and  N_14 
REMARK    5  A    between atoms: N_14  and  C_15 
REMARK    6  A    between atoms: C_15  and  N_16 
REMARK       I    between atoms: N_16  and  C_17 
REMARK    7  A    between atoms: C_17  and  C_18 
REMARK    8  A    between atoms: C_21  and  O_22 
ROOT
HETATM    1  C   UNL     1      40.482 -14.433   2.491  1.00  0.00     0.052 A 
HETATM    2  C   UNL     1      40.662 -15.788   2.831  1.00  0.00     0.062 A 
HETATM    3 CL   UNL     1      40.307 -17.115   1.772  1.00  0.00    -0.082 Cl
HETATM    4  C   UNL     1      41.234 -16.161   4.063  1.00  0.00     0.055 A 
HETATM    5  C   UNL     1      41.658 -15.208   4.994  1.00  0.00     0.036 A 
HETATM    6  C   UNL     1      41.520 -13.868   4.665  1.00  0.00     0.032 A 
HETATM    7  C   UNL     1      40.929 -13.496   3.448  1.00  0.00     0.033 A 
ENDROOT
BRANCH   5   8
HETATM    8  N   UNL     1      42.279 -15.697   6.163  1.00  0.00    -0.333 N 
HETATM    9  H   UNL     1      41.644 -16.149   6.813  1.00  0.00     0.168 HD
BRANCH   8  10
HETATM   10  C   UNL     1      43.571 -15.928   6.470  1.00  0.00     0.179 C 
HETATM   11  S   UNL     1      44.423 -14.714   7.255  1.00  0.00    -0.040 SA
BRANCH  10  12
HETATM   12  N   UNL     1      44.242 -17.064   6.168  1.00  0.00    -0.299 N 
HETATM   13  C   UNL     1      43.953 -18.323   6.682  1.00  0.00     0.257 C 
HETATM   14  O   UNL     1      43.658 -18.612   7.832  1.00  0.00    -0.267 OA
HETATM   15  H   UNL     1      44.472 -17.079   5.182  1.00  0.00     0.171 HD
BRANCH  13  16
HETATM   16  C   UNL     1      44.145 -19.419   5.699  1.00  0.00     0.032 A 
HETATM   17  C   UNL     1      44.127 -19.124   4.336  1.00  0.00     0.020 A 
HETATM   18  C   UNL     1      44.289 -20.155   3.408  1.00  0.00     0.038 A 
HETATM   19  C   UNL     1      44.505 -21.469   3.836  1.00  0.00     0.068 A 
HETATM   20  C   UNL     1      44.525 -21.758   5.202  1.00  0.00     0.038 A 
HETATM   21  C   UNL     1      44.346 -20.733   6.137  1.00  0.00     0.020 A 
BRANCH  19  22
HETATM   22  O   UNL     1      44.657 -22.389   2.836  1.00  0.00    -0.356 OA
HETATM   23  C   UNL     1      44.192 -21.988   1.551  1.00  0.00     0.210 C 
ENDBRANCH  19  22
ENDBRANCH  13  16
ENDBRANCH  10  12
ENDBRANCH   8  10
ENDBRANCH   5   8
BRANCH   1  24
HETATM   24  N   UNL     1      39.893 -13.910   1.332  1.00  0.00    -0.376 N 
HETATM   25  C   UNL     1      38.479 -14.164   1.012  1.00  0.00     0.143 C 
HETATM   26  C   UNL     1      37.964 -13.116   0.005  1.00  0.00     0.145 C 
HETATM   27  N   UNL     1      38.823 -12.988  -1.183  1.00  0.00    -0.349 N 
HETATM   28  C   UNL     1      38.381 -12.443  -2.388  1.00  0.00     0.219 C 
HETATM   29  C   UNL     1      40.262 -12.900  -0.899  1.00  0.00     0.145 C 
HETATM   30  O   UNL     1      39.167 -12.038  -3.244  1.00  0.00    -0.273 OA
HETATM   31  C   UNL     1      40.753 -13.940   0.127  1.00  0.00     0.143 C 
BRANCH  28  32
HETATM   32  C   UNL     1      36.872 -12.392  -2.601  1.00  0.00     0.103 C 
BRANCH  32  33
HETATM   33  C   UNL     1      36.294 -10.976  -2.595  1.00  0.00     0.005 C 
HETATM   34  C   UNL     1      34.803 -10.943  -2.904  1.00  0.00     0.005 C 
ENDBRANCH  32  33
ENDBRANCH  28  32
ENDBRANCH   1  24
TORSDOF 8
ENDMDL
