MODEL 1
REMARK VINA RESULT:      -9.5      0.000      0.000
REMARK  5 active torsions:
REMARK  status: ('A' for Active; 'I' for Inactive)
REMARK    1  A    between atoms: C_7  and  C_8 
REMARK    2  A    between atoms: C_16  and  C_17 
REMARK    3  A    between atoms: C_19  and  O_20 
REMARK    4  A    between atoms: C_24  and  C_25 
REMARK       I    between atoms: C_25  and  N_26 
REMARK    5  A    between atoms: N_26  and  C_27 
ROOT
HETATM    1  C   UNL     1      40.173 -13.970  -1.280  1.00  0.00     0.070 C 
HETATM    2  C   UNL     1      40.465 -14.653   0.034  1.00  0.00     0.037 C 
HETATM    3  N   UNL     1      41.599 -15.467   0.054  1.00  0.00    -0.192 N 
HETATM    4  C   UNL     1      41.861 -16.323   1.060  1.00  0.00     0.726 A 
HETATM    5  N   UNL     1      41.111 -16.259   2.198  1.00  0.00    -0.083 N 
HETATM    6  N   UNL     1      41.452 -17.218   3.077  1.00  0.00    -0.135 NA
HETATM    7  C   UNL     1      42.468 -17.818   2.429  1.00  0.00     0.199 A 
HETATM    8  N   UNL     1      42.733 -17.291   1.174  1.00  0.00    -0.041 NA
HETATM    9  C   UNL     1      40.073 -15.256   2.439  1.00  0.00     0.202 C 
HETATM   10  C   UNL     1      39.700 -14.529   1.149  1.00  0.00     0.062 C 
HETATM   11  H   UNL     1      42.072 -15.616  -0.835  1.00  0.00     0.184 HD
ENDROOT
BRANCH  10  12
HETATM   12  C   UNL     1      38.361 -13.872   1.081  1.00  0.00     0.256 C 
HETATM   13  N   UNL     1      38.393 -12.499   1.175  1.00  0.00    -0.323 N 
HETATM   14  H   UNL     1      39.291 -12.039   1.242  1.00  0.00     0.169 HD
HETATM   15  O   UNL     1      37.361 -14.573   0.987  1.00  0.00    -0.267 OA
BRANCH  13  16
HETATM   16  C   UNL     1      37.291 -11.617   1.199  1.00  0.00     0.035 A 
HETATM   17  C   UNL     1      36.175 -11.732   0.369  1.00  0.00     0.029 A 
HETATM   18  C   UNL     1      35.126 -10.812   0.460  1.00  0.00     0.002 A 
HETATM   19  C   UNL     1      35.178  -9.776   1.389  1.00  0.00     0.000 A 
HETATM   20  C   UNL     1      36.285  -9.653   2.224  1.00  0.00     0.002 A 
HETATM   21  C   UNL     1      37.340 -10.565   2.124  1.00  0.00     0.029 A 
ENDBRANCH  13  16
ENDBRANCH  10  12
BRANCH   9  22
HETATM   22  C   UNL     1      40.552 -14.317   3.548  1.00  0.00    -0.025 A 
HETATM   23  C   UNL     1      39.892 -14.243   4.790  1.00  0.00     0.046 A 
HETATM   24  C   UNL     1      40.369 -13.390   5.782  1.00  0.00     0.066 A 
HETATM   25  C   UNL     1      41.484 -12.594   5.561  1.00  0.00     0.036 A 
HETATM   26  C   UNL     1      42.132 -12.639   4.328  1.00  0.00     0.003 A 
HETATM   27  C   UNL     1      41.670 -13.494   3.327  1.00  0.00     0.010 A 
BRANCH  24  28
HETATM   28  O   UNL     1      39.763 -13.307   6.999  1.00  0.00    -0.361 OA
HETATM   29  H   UNL     1      40.319 -13.747   7.663  1.00  0.00     0.217 HD
ENDBRANCH  24  28
ENDBRANCH   9  22
BRANCH   7  30
HETATM   30  C   UNL     1      43.237 -18.927   2.990  1.00  0.00     0.014 A 
HETATM   31  C   UNL     1      43.593 -20.028   2.195  1.00  0.00     0.017 A 
HETATM   32  C   UNL     1      44.320 -21.093   2.735  1.00  0.00     0.025 A 
HETATM   33  C   UNL     1      44.699 -21.061   4.075  1.00  0.00     0.034 A 
HETATM   34 CL   UNL     1      45.592 -22.372   4.741  1.00  0.00    -0.084 Cl
HETATM   35  C   UNL     1      44.356 -19.976   4.879  1.00  0.00     0.025 A 
HETATM   36  C   UNL     1      43.626 -18.912   4.338  1.00  0.00     0.017 A 
ENDBRANCH   7  30
TORSDOF 5
ENDMDL
MODEL 2
REMARK VINA RESULT:      -8.7      4.285      8.607
REMARK  5 active torsions:
REMARK  status: ('A' for Active; 'I' for Inactive)
REMARK    1  A    between atoms: C_7  and  C_8 
REMARK    2  A    between atoms: C_16  and  C_17 
REMARK    3  A    between atoms: C_19  and  O_20 
REMARK    4  A    between atoms: C_24  and  C_25 
REMARK       I    between atoms: C_25  and  N_26 
REMARK    5  A    between atoms: N_26  and  C_27 
ROOT
HETATM    1  C   UNL     1      40.553 -18.185   0.868  1.00  0.00     0.070 C 
HETATM    2  C   UNL     1      41.054 -16.806   1.220  1.00  0.00     0.037 C 
HETATM    3  N   UNL     1      40.734 -15.796   0.313  1.00  0.00    -0.192 N 
HETATM    4  C   UNL     1      41.301 -14.574   0.355  1.00  0.00     0.726 A 
HETATM    5  N   UNL     1      42.063 -14.234   1.434  1.00  0.00    -0.083 N 
HETATM    6  N   UNL     1      42.609 -13.013   1.295  1.00  0.00    -0.135 NA
HETATM    7  C   UNL     1      42.096 -12.628   0.112  1.00  0.00     0.199 A 
HETATM    8  N   UNL     1      41.292 -13.581  -0.496  1.00  0.00    -0.041 NA
HETATM    9  C   UNL     1      42.250 -15.089   2.607  1.00  0.00     0.202 C 
HETATM   10  C   UNL     1      41.785 -16.516   2.327  1.00  0.00     0.062 C 
HETATM   11  H   UNL     1      40.284 -16.083  -0.554  1.00  0.00     0.184 HD
ENDROOT
BRANCH  10  12
HETATM   12  C   UNL     1      42.348 -17.610   3.173  1.00  0.00     0.256 C 
HETATM   13  N   UNL     1      43.180 -18.479   2.503  1.00  0.00    -0.323 N 
HETATM   14  H   UNL     1      43.380 -18.303   1.528  1.00  0.00     0.169 HD
HETATM   15  O   UNL     1      42.014 -17.681   4.350  1.00  0.00    -0.267 OA
BRANCH  13  16
HETATM   16  C   UNL     1      43.807 -19.634   3.021  1.00  0.00     0.035 A 
HETATM   17  C   UNL     1      44.458 -19.687   4.255  1.00  0.00     0.029 A 
HETATM   18  C   UNL     1      45.053 -20.875   4.691  1.00  0.00     0.002 A 
HETATM   19  C   UNL     1      44.995 -22.021   3.902  1.00  0.00     0.000 A 
HETATM   20  C   UNL     1      44.347 -21.980   2.672  1.00  0.00     0.002 A 
HETATM   21  C   UNL     1      43.762 -20.790   2.230  1.00  0.00     0.029 A 
ENDBRANCH  13  16
ENDBRANCH  10  12
BRANCH   9  22
HETATM   22  C   UNL     1      41.540 -14.442   3.797  1.00  0.00    -0.025 A 
HETATM   23  C   UNL     1      42.254 -13.764   4.805  1.00  0.00     0.046 A 
HETATM   24  C   UNL     1      41.571 -13.173   5.864  1.00  0.00     0.066 A 
HETATM   25  C   UNL     1      40.188 -13.250   5.952  1.00  0.00     0.036 A 
HETATM   26  C   UNL     1      39.471 -13.937   4.975  1.00  0.00     0.003 A 
HETATM   27  C   UNL     1      40.141 -14.530   3.904  1.00  0.00     0.010 A 
BRANCH  24  28
HETATM   28  O   UNL     1      42.231 -12.497   6.846  1.00  0.00    -0.361 OA
HETATM   29  H   UNL     1      41.654 -12.418   7.623  1.00  0.00     0.217 HD
ENDBRANCH  24  28
ENDBRANCH   9  22
BRANCH   7  30
HETATM   30  C   UNL     1      42.350 -11.321  -0.489  1.00  0.00     0.014 A 
HETATM   31  C   UNL     1      42.096 -10.141   0.225  1.00  0.00     0.017 A 
HETATM   32  C   UNL     1      42.330  -8.890  -0.355  1.00  0.00     0.025 A 
HETATM   33  C   UNL     1      42.823  -8.814  -1.655  1.00  0.00     0.034 A 
HETATM   34 CL   UNL     1      43.110  -7.276  -2.371  1.00  0.00    -0.084 Cl
HETATM   35  C   UNL     1      43.083  -9.975  -2.379  1.00  0.00     0.025 A 
HETATM   36  C   UNL     1      42.846 -11.226  -1.799  1.00  0.00     0.017 A 
ENDBRANCH   7  30
TORSDOF 5
ENDMDL
MODEL 3
REMARK VINA RESULT:      -8.5      4.842      7.916
REMARK  5 active torsions:
REMARK  status: ('A' for Active; 'I' for Inactive)
REMARK    1  A    between atoms: C_7  and  C_8 
REMARK    2  A    between atoms: C_16  and  C_17 
REMARK    3  A    between atoms: C_19  and  O_20 
REMARK    4  A    between atoms: C_24  and  C_25 
REMARK       I    between atoms: C_25  and  N_26 
REMARK    5  A    between atoms: N_26  and  C_27 
ROOT
HETATM    1  C   UNL     1      38.379 -11.292   3.477  1.00  0.00     0.070 C 
HETATM    2  C   UNL     1      39.498 -11.583   4.449  1.00  0.00     0.037 C 
HETATM    3  N   UNL     1      39.304 -11.120   5.751  1.00  0.00    -0.192 N 
HETATM    4  C   UNL     1      40.293 -11.086   6.665  1.00  0.00     0.726 A 
HETATM    5  N   UNL     1      41.475 -11.708   6.386  1.00  0.00    -0.083 N 
HETATM    6  N   UNL     1      42.378 -11.528   7.366  1.00  0.00    -0.135 NA
HETATM    7  C   UNL     1      41.662 -10.817   8.256  1.00  0.00     0.199 A 
HETATM    8  N   UNL     1      40.372 -10.521   7.841  1.00  0.00    -0.041 NA
HETATM    9  C   UNL     1      41.723 -12.490   5.174  1.00  0.00     0.202 C 
HETATM   10  C   UNL     1      40.644 -12.236   4.125  1.00  0.00     0.062 C 
HETATM   11  H   UNL     1      38.483 -10.540   5.914  1.00  0.00     0.184 HD
ENDROOT
BRANCH  10  12
HETATM   12  C   UNL     1      40.979 -12.516   2.697  1.00  0.00     0.256 C 
HETATM   13  N   UNL     1      40.369 -13.635   2.176  1.00  0.00    -0.323 N 
HETATM   14  H   UNL     1      39.726 -14.152   2.761  1.00  0.00     0.169 HD
HETATM   15  O   UNL     1      41.772 -11.783   2.120  1.00  0.00    -0.267 OA
BRANCH  13  16
HETATM   16  C   UNL     1      40.538 -14.178   0.883  1.00  0.00     0.035 A 
HETATM   17  C   UNL     1      40.046 -13.593  -0.285  1.00  0.00     0.029 A 
HETATM   18  C   UNL     1      40.260 -14.202  -1.526  1.00  0.00     0.002 A 
HETATM   19  C   UNL     1      40.976 -15.393  -1.610  1.00  0.00     0.000 A 
HETATM   20  C   UNL     1      41.472 -15.984  -0.453  1.00  0.00     0.002 A 
HETATM   21  C   UNL     1      41.248 -15.383   0.789  1.00  0.00     0.029 A 
ENDBRANCH  13  16
ENDBRANCH  10  12
BRANCH   9  22
HETATM   22  C   UNL     1      41.856 -13.963   5.565  1.00  0.00    -0.025 A 
HETATM   23  C   UNL     1      40.728 -14.760   5.840  1.00  0.00     0.046 A 
HETATM   24  C   UNL     1      40.888 -16.101   6.175  1.00  0.00     0.066 A 
HETATM   25  C   UNL     1      42.152 -16.670   6.256  1.00  0.00     0.036 A 
HETATM   26  C   UNL     1      43.277 -15.888   6.009  1.00  0.00     0.003 A 
HETATM   27  C   UNL     1      43.133 -14.543   5.666  1.00  0.00     0.010 A 
BRANCH  24  28
HETATM   28  O   UNL     1      39.816 -16.902   6.432  1.00  0.00    -0.361 OA
HETATM   29  H   UNL     1      38.998 -16.406   6.263  1.00  0.00     0.217 HD
ENDBRANCH  24  28
ENDBRANCH   9  22
BRANCH   7  30
HETATM   30  C   UNL     1      42.182 -10.392   9.553  1.00  0.00     0.014 A 
HETATM   31  C   UNL     1      43.408 -10.881  10.030  1.00  0.00     0.017 A 
HETATM   32  C   UNL     1      43.901 -10.482  11.276  1.00  0.00     0.025 A 
HETATM   33  C   UNL     1      43.170  -9.585  12.052  1.00  0.00     0.034 A 
HETATM   34 CL   UNL     1      43.773  -9.094  13.586  1.00  0.00    -0.084 Cl
HETATM   35  C   UNL     1      41.952  -9.087  11.594  1.00  0.00     0.025 A 
HETATM   36  C   UNL     1      41.459  -9.490  10.348  1.00  0.00     0.017 A 
ENDBRANCH   7  30
TORSDOF 5
ENDMDL
MODEL 4
REMARK VINA RESULT:      -8.5      2.672      4.595
REMARK  5 active torsions:
REMARK  status: ('A' for Active; 'I' for Inactive)
REMARK    1  A    between atoms: C_7  and  C_8 
REMARK    2  A    between atoms: C_16  and  C_17 
REMARK    3  A    between atoms: C_19  and  O_20 
REMARK    4  A    between atoms: C_24  and  C_25 
REMARK       I    between atoms: C_25  and  N_26 
REMARK    5  A    between atoms: N_26  and  C_27 
ROOT
HETATM    1  C   UNL     1      39.345 -12.562   6.801  1.00  0.00     0.070 C 
HETATM    2  C   UNL     1      40.193 -13.446   5.919  1.00  0.00     0.037 C 
HETATM    3  N   UNL     1      40.284 -14.783   6.310  1.00  0.00    -0.192 N 
HETATM    4  C   UNL     1      41.180 -15.637   5.778  1.00  0.00     0.726 A 
HETATM    5  N   UNL     1      41.891 -15.252   4.679  1.00  0.00    -0.083 N 
HETATM    6  N   UNL     1      42.786 -16.185   4.311  1.00  0.00    -0.135 NA
HETATM    7  C   UNL     1      42.537 -17.156   5.208  1.00  0.00     0.199 A 
HETATM    8  N   UNL     1      41.555 -16.837   6.134  1.00  0.00    -0.041 NA
HETATM    9  C   UNL     1      41.692 -13.983   3.978  1.00  0.00     0.202 C 
HETATM   10  C   UNL     1      40.857 -13.017   4.815  1.00  0.00     0.062 C 
HETATM   11  H   UNL     1      39.863 -15.029   7.204  1.00  0.00     0.184 HD
ENDROOT
BRANCH  10  12
HETATM   12  C   UNL     1      40.977 -11.558   4.522  1.00  0.00     0.256 C 
HETATM   13  N   UNL     1      40.185 -11.116   3.486  1.00  0.00    -0.323 N 
HETATM   14  H   UNL     1      39.567 -11.776   3.033  1.00  0.00     0.169 HD
HETATM   15  O   UNL     1      41.768 -10.886   5.173  1.00  0.00    -0.267 OA
BRANCH  13  16
HETATM   16  C   UNL     1      40.129  -9.811   2.948  1.00  0.00     0.035 A 
HETATM   17  C   UNL     1      39.494  -8.733   3.567  1.00  0.00     0.029 A 
HETATM   18  C   UNL     1      39.487  -7.472   2.962  1.00  0.00     0.002 A 
HETATM   19  C   UNL     1      40.122  -7.277   1.739  1.00  0.00     0.000 A 
HETATM   20  C   UNL     1      40.759  -8.343   1.113  1.00  0.00     0.002 A 
HETATM   21  C   UNL     1      40.757  -9.607   1.711  1.00  0.00     0.029 A 
ENDBRANCH  13  16
ENDBRANCH  10  12
BRANCH   9  22
HETATM   22  C   UNL     1      41.085 -14.277   2.605  1.00  0.00    -0.025 A 
HETATM   23  C   UNL     1      41.876 -14.323   1.440  1.00  0.00     0.046 A 
HETATM   24  C   UNL     1      41.290 -14.611   0.211  1.00  0.00     0.066 A 
HETATM   25  C   UNL     1      39.926 -14.844   0.109  1.00  0.00     0.036 A 
HETATM   26  C   UNL     1      39.127 -14.779   1.249  1.00  0.00     0.003 A 
HETATM   27  C   UNL     1      39.701 -14.497   2.489  1.00  0.00     0.010 A 
BRANCH  24  28
HETATM   28  O   UNL     1      42.031 -14.678  -0.930  1.00  0.00    -0.361 OA
HETATM   29  H   UNL     1      42.460 -15.548  -0.983  1.00  0.00     0.217 HD
ENDBRANCH  24  28
ENDBRANCH   9  22
BRANCH   7  30
HETATM   30  C   UNL     1      43.229 -18.443   5.215  1.00  0.00     0.014 A 
HETATM   31  C   UNL     1      43.292 -19.218   6.383  1.00  0.00     0.017 A 
HETATM   32  C   UNL     1      43.964 -20.445   6.392  1.00  0.00     0.025 A 
HETATM   33  C   UNL     1      44.574 -20.905   5.228  1.00  0.00     0.034 A 
HETATM   34 CL   UNL     1      45.403 -22.413   5.237  1.00  0.00    -0.084 Cl
HETATM   35  C   UNL     1      44.521 -20.150   4.058  1.00  0.00     0.025 A 
HETATM   36  C   UNL     1      43.851 -18.922   4.052  1.00  0.00     0.017 A 
ENDBRANCH   7  30
TORSDOF 5
ENDMDL
MODEL 5
REMARK VINA RESULT:      -8.5      4.124      8.392
REMARK  5 active torsions:
REMARK  status: ('A' for Active; 'I' for Inactive)
REMARK    1  A    between atoms: C_7  and  C_8 
REMARK    2  A    between atoms: C_16  and  C_17 
REMARK    3  A    between atoms: C_19  and  O_20 
REMARK    4  A    between atoms: C_24  and  C_25 
REMARK       I    between atoms: C_25  and  N_26 
REMARK    5  A    between atoms: N_26  and  C_27 
ROOT
HETATM    1  C   UNL     1      40.641 -17.590   1.289  1.00  0.00     0.070 C 
HETATM    2  C   UNL     1      40.895 -16.113   1.100  1.00  0.00     0.037 C 
HETATM    3  N   UNL     1      40.727 -15.632  -0.199  1.00  0.00    -0.192 N 
HETATM    4  C   UNL     1      41.141 -14.408  -0.580  1.00  0.00     0.726 A 
HETATM    5  N   UNL     1      41.556 -13.523   0.372  1.00  0.00    -0.083 N 
HETATM    6  N   UNL     1      41.997 -12.375  -0.172  1.00  0.00    -0.135 NA
HETATM    7  C   UNL     1      41.778 -12.602  -1.480  1.00  0.00     0.199 A 
HETATM    8  N   UNL     1      41.259 -13.858  -1.759  1.00  0.00    -0.041 NA
HETATM    9  C   UNL     1      41.511 -13.786   1.811  1.00  0.00     0.202 C 
HETATM   10  C   UNL     1      41.278 -15.268   2.092  1.00  0.00     0.062 C 
HETATM   11  H   UNL     1      40.552 -16.324  -0.925  1.00  0.00     0.184 HD
ENDROOT
BRANCH  10  12
HETATM   12  C   UNL     1      41.702 -15.801   3.420  1.00  0.00     0.256 C 
HETATM   13  N   UNL     1      42.989 -16.289   3.455  1.00  0.00    -0.323 N 
HETATM   14  H   UNL     1      43.556 -16.221   2.620  1.00  0.00     0.169 HD
HETATM   15  O   UNL     1      40.897 -15.803   4.343  1.00  0.00    -0.267 OA
BRANCH  13  16
HETATM   16  C   UNL     1      43.643 -16.904   4.547  1.00  0.00     0.035 A 
HETATM   17  C   UNL     1      43.852 -16.290   5.783  1.00  0.00     0.029 A 
HETATM   18  C   UNL     1      44.510 -16.974   6.810  1.00  0.00     0.002 A 
HETATM   19  C   UNL     1      44.954 -18.279   6.614  1.00  0.00     0.000 A 
HETATM   20  C   UNL     1      44.749 -18.901   5.387  1.00  0.00     0.002 A 
HETATM   21  C   UNL     1      44.102 -18.214   4.355  1.00  0.00     0.029 A 
ENDBRANCH  13  16
ENDBRANCH  10  12
BRANCH   9  22
HETATM   22  C   UNL     1      40.454 -12.876   2.438  1.00  0.00    -0.025 A 
HETATM   23  C   UNL     1      39.227 -12.614   1.797  1.00  0.00     0.046 A 
HETATM   24  C   UNL     1      38.283 -11.794   2.408  1.00  0.00     0.066 A 
HETATM   25  C   UNL     1      38.535 -11.215   3.644  1.00  0.00     0.036 A 
HETATM   26  C   UNL     1      39.753 -11.446   4.279  1.00  0.00     0.003 A 
HETATM   27  C   UNL     1      40.708 -12.270   3.682  1.00  0.00     0.010 A 
BRANCH  24  28
HETATM   28  O   UNL     1      37.081 -11.535   1.820  1.00  0.00    -0.361 OA
HETATM   29  H   UNL     1      36.540 -10.999   2.422  1.00  0.00     0.217 HD
ENDBRANCH  24  28
ENDBRANCH   9  22
BRANCH   7  30
HETATM   30  C   UNL     1      42.052 -11.619  -2.525  1.00  0.00     0.014 A 
HETATM   31  C   UNL     1      42.105 -12.002  -3.874  1.00  0.00     0.017 A 
HETATM   32  C   UNL     1      42.378 -11.062  -4.873  1.00  0.00     0.025 A 
HETATM   33  C   UNL     1      42.595  -9.731  -4.527  1.00  0.00     0.034 A 
HETATM   34 CL   UNL     1      42.933  -8.573  -5.755  1.00  0.00    -0.084 Cl
HETATM   35  C   UNL     1      42.545  -9.332  -3.193  1.00  0.00     0.025 A 
HETATM   36  C   UNL     1      42.275 -10.274  -2.194  1.00  0.00     0.017 A 
ENDBRANCH   7  30
TORSDOF 5
ENDMDL
MODEL 6
REMARK VINA RESULT:      -8.4      3.948      9.481
REMARK  5 active torsions:
REMARK  status: ('A' for Active; 'I' for Inactive)
REMARK    1  A    between atoms: C_7  and  C_8 
REMARK    2  A    between atoms: C_16  and  C_17 
REMARK    3  A    between atoms: C_19  and  O_20 
REMARK    4  A    between atoms: C_24  and  C_25 
REMARK       I    between atoms: C_25  and  N_26 
REMARK    5  A    between atoms: N_26  and  C_27 
ROOT
HETATM    1  C   UNL     1      44.476 -14.759   6.473  1.00  0.00     0.070 C 
HETATM    2  C   UNL     1      43.218 -14.589   5.656  1.00  0.00     0.037 C 
HETATM    3  N   UNL     1      42.870 -13.273   5.347  1.00  0.00    -0.192 N 
HETATM    4  C   UNL     1      41.668 -12.939   4.839  1.00  0.00     0.726 A 
HETATM    5  N   UNL     1      40.828 -13.928   4.419  1.00  0.00    -0.083 N 
HETATM    6  N   UNL     1      39.647 -13.438   4.001  1.00  0.00    -0.135 NA
HETATM    7  C   UNL     1      39.846 -12.115   4.146  1.00  0.00     0.199 A 
HETATM    8  N   UNL     1      41.085 -11.781   4.674  1.00  0.00    -0.041 NA
HETATM    9  C   UNL     1      41.177 -15.350   4.409  1.00  0.00     0.202 C 
HETATM   10  C   UNL     1      42.433 -15.614   5.235  1.00  0.00     0.062 C 
HETATM   11  H   UNL     1      43.426 -12.538   5.780  1.00  0.00     0.184 HD
ENDROOT
BRANCH  10  12
HETATM   12  C   UNL     1      42.645 -16.996   5.760  1.00  0.00     0.256 C 
HETATM   13  N   UNL     1      43.524 -17.757   5.024  1.00  0.00    -0.323 N 
HETATM   14  H   UNL     1      43.983 -17.334   4.228  1.00  0.00     0.169 HD
HETATM   15  O   UNL     1      42.018 -17.357   6.749  1.00  0.00    -0.267 OA
BRANCH  13  16
HETATM   16  C   UNL     1      43.876 -19.108   5.240  1.00  0.00     0.035 A 
HETATM   17  C   UNL     1      43.659 -19.793   6.437  1.00  0.00     0.029 A 
HETATM   18  C   UNL     1      44.040 -21.133   6.564  1.00  0.00     0.002 A 
HETATM   19  C   UNL     1      44.630 -21.801   5.494  1.00  0.00     0.000 A 
HETATM   20  C   UNL     1      44.848 -21.129   4.296  1.00  0.00     0.002 A 
HETATM   21  C   UNL     1      44.480 -19.786   4.172  1.00  0.00     0.029 A 
ENDBRANCH  13  16
ENDBRANCH  10  12
BRANCH   9  22
HETATM   22  C   UNL     1      41.299 -15.810   2.955  1.00  0.00    -0.025 A 
HETATM   23  C   UNL     1      41.688 -14.927   1.930  1.00  0.00     0.046 A 
HETATM   24  C   UNL     1      41.805 -15.387   0.621  1.00  0.00     0.066 A 
HETATM   25  C   UNL     1      41.530 -16.710   0.304  1.00  0.00     0.036 A 
HETATM   26  C   UNL     1      41.121 -17.589   1.304  1.00  0.00     0.003 A 
HETATM   27  C   UNL     1      41.005 -17.144   2.622  1.00  0.00     0.010 A 
BRANCH  24  28
HETATM   28  O   UNL     1      42.195 -14.562  -0.390  1.00  0.00    -0.361 OA
HETATM   29  H   UNL     1      41.958 -13.647  -0.166  1.00  0.00     0.217 HD
ENDBRANCH  24  28
ENDBRANCH   9  22
BRANCH   7  30
HETATM   30  C   UNL     1      38.855 -11.107   3.779  1.00  0.00     0.014 A 
HETATM   31  C   UNL     1      38.574 -10.031   4.635  1.00  0.00     0.017 A 
HETATM   32  C   UNL     1      37.618  -9.072   4.288  1.00  0.00     0.025 A 
HETATM   33  C   UNL     1      36.939  -9.182   3.077  1.00  0.00     0.034 A 
HETATM   34 CL   UNL     1      35.761  -8.004   2.648  1.00  0.00    -0.084 Cl
HETATM   35  C   UNL     1      37.206 -10.242   2.213  1.00  0.00     0.025 A 
HETATM   36  C   UNL     1      38.161 -11.202   2.563  1.00  0.00     0.017 A 
ENDBRANCH   7  30
TORSDOF 5
ENDMDL
MODEL 7
REMARK VINA RESULT:      -8.3      4.421      8.210
REMARK  5 active torsions:
REMARK  status: ('A' for Active; 'I' for Inactive)
REMARK    1  A    between atoms: C_7  and  C_8 
REMARK    2  A    between atoms: C_16  and  C_17 
REMARK    3  A    between atoms: C_19  and  O_20 
REMARK    4  A    between atoms: C_24  and  C_25 
REMARK       I    between atoms: C_25  and  N_26 
REMARK    5  A    between atoms: N_26  and  C_27 
ROOT
HETATM    1  C   UNL     1      41.033 -17.894   1.167  1.00  0.00     0.070 C 
HETATM    2  C   UNL     1      41.214 -16.433   0.836  1.00  0.00     0.037 C 
HETATM    3  N   UNL     1      40.689 -16.021  -0.389  1.00  0.00    -0.192 N 
HETATM    4  C   UNL     1      40.972 -14.821  -0.935  1.00  0.00     0.726 A 
HETATM    5  N   UNL     1      41.629 -13.890  -0.185  1.00  0.00    -0.083 N 
HETATM    6  N   UNL     1      41.894 -12.776  -0.890  1.00  0.00    -0.135 NA
HETATM    7  C   UNL     1      41.321 -13.072  -2.072  1.00  0.00     0.199 A 
HETATM    8  N   UNL     1      40.754 -14.336  -2.129  1.00  0.00    -0.041 NA
HETATM    9  C   UNL     1      41.986 -14.076   1.222  1.00  0.00     0.202 C 
HETATM   10  C   UNL     1      41.851 -15.539   1.636  1.00  0.00     0.062 C 
HETATM   11  H   UNL     1      40.324 -16.749  -1.000  1.00  0.00     0.184 HD
ENDROOT
BRANCH  10  12
HETATM   12  C   UNL     1      42.631 -16.003   2.821  1.00  0.00     0.256 C 
HETATM   13  N   UNL     1      41.977 -15.867   4.025  1.00  0.00    -0.323 N 
HETATM   14  H   UNL     1      41.030 -15.511   4.023  1.00  0.00     0.169 HD
HETATM   15  O   UNL     1      43.770 -16.423   2.654  1.00  0.00    -0.267 OA
BRANCH  13  16
HETATM   16  C   UNL     1      42.480 -16.164   5.311  1.00  0.00     0.035 A 
HETATM   17  C   UNL     1      42.057 -17.243   6.089  1.00  0.00     0.029 A 
HETATM   18  C   UNL     1      42.611 -17.462   7.355  1.00  0.00     0.002 A 
HETATM   19  C   UNL     1      43.597 -16.612   7.848  1.00  0.00     0.000 A 
HETATM   20  C   UNL     1      44.027 -15.535   7.080  1.00  0.00     0.002 A 
HETATM   21  C   UNL     1      43.466 -15.307   5.820  1.00  0.00     0.029 A 
ENDBRANCH  13  16
ENDBRANCH  10  12
BRANCH   9  22
HETATM   22  C   UNL     1      41.138 -13.125   2.068  1.00  0.00    -0.025 A 
HETATM   23  C   UNL     1      41.724 -12.139   2.886  1.00  0.00     0.046 A 
HETATM   24  C   UNL     1      40.918 -11.280   3.628  1.00  0.00     0.066 A 
HETATM   25  C   UNL     1      39.535 -11.387   3.586  1.00  0.00     0.036 A 
HETATM   26  C   UNL     1      38.942 -12.372   2.800  1.00  0.00     0.003 A 
HETATM   27  C   UNL     1      39.737 -13.237   2.046  1.00  0.00     0.010 A 
BRANCH  24  28
HETATM   28  O   UNL     1      41.455 -10.307   4.416  1.00  0.00    -0.361 OA
HETATM   29  H   UNL     1      42.188 -10.681   4.932  1.00  0.00     0.217 HD
ENDBRANCH  24  28
ENDBRANCH   9  22
BRANCH   7  30
HETATM   30  C   UNL     1      41.287 -12.148  -3.204  1.00  0.00     0.014 A 
HETATM   31  C   UNL     1      40.066 -11.680  -3.712  1.00  0.00     0.017 A 
HETATM   32  C   UNL     1      40.034 -10.804  -4.802  1.00  0.00     0.025 A 
HETATM   33  C   UNL     1      41.227 -10.388  -5.387  1.00  0.00     0.034 A 
HETATM   34 CL   UNL     1      41.190  -9.313  -6.729  1.00  0.00    -0.084 Cl
HETATM   35  C   UNL     1      42.450 -10.841  -4.896  1.00  0.00     0.025 A 
HETATM   36  C   UNL     1      42.480 -11.720  -3.807  1.00  0.00     0.017 A 
ENDBRANCH   7  30
TORSDOF 5
ENDMDL
MODEL 8
REMARK VINA RESULT:      -8.3      4.082      7.685
REMARK  5 active torsions:
REMARK  status: ('A' for Active; 'I' for Inactive)
REMARK    1  A    between atoms: C_7  and  C_8 
REMARK    2  A    between atoms: C_16  and  C_17 
REMARK    3  A    between atoms: C_19  and  O_20 
REMARK    4  A    between atoms: C_24  and  C_25 
REMARK       I    between atoms: C_25  and  N_26 
REMARK    5  A    between atoms: N_26  and  C_27 
ROOT
HETATM    1  C   UNL     1      43.952 -16.506   6.689  1.00  0.00     0.070 C 
HETATM    2  C   UNL     1      43.336 -15.602   5.649  1.00  0.00     0.037 C 
HETATM    3  N   UNL     1      42.645 -16.244   4.622  1.00  0.00    -0.192 N 
HETATM    4  C   UNL     1      42.248 -15.606   3.503  1.00  0.00     0.726 A 
HETATM    5  N   UNL     1      42.340 -14.246   3.447  1.00  0.00    -0.083 N 
HETATM    6  N   UNL     1      41.969 -13.769   2.246  1.00  0.00    -0.135 NA
HETATM    7  C   UNL     1      41.607 -14.901   1.614  1.00  0.00     0.199 A 
HETATM    8  N   UNL     1      41.782 -16.053   2.366  1.00  0.00    -0.041 NA
HETATM    9  C   UNL     1      42.775 -13.408   4.565  1.00  0.00     0.202 C 
HETATM   10  C   UNL     1      43.432 -14.247   5.659  1.00  0.00     0.062 C 
HETATM   11  H   UNL     1      42.699 -17.260   4.598  1.00  0.00     0.184 HD
ENDROOT
BRANCH  10  12
HETATM   12  C   UNL     1      44.367 -13.559   6.598  1.00  0.00     0.256 C 
HETATM   13  N   UNL     1      43.753 -12.938   7.662  1.00  0.00    -0.323 N 
HETATM   14  H   UNL     1      42.749 -13.018   7.756  1.00  0.00     0.169 HD
HETATM   15  O   UNL     1      45.566 -13.562   6.348  1.00  0.00    -0.267 OA
BRANCH  13  16
HETATM   16  C   UNL     1      44.367 -12.166   8.673  1.00  0.00     0.035 A 
HETATM   17  C   UNL     1      45.746 -12.102   8.884  1.00  0.00     0.029 A 
HETATM   18  C   UNL     1      46.269 -11.311   9.911  1.00  0.00     0.002 A 
HETATM   19  C   UNL     1      45.421 -10.568  10.728  1.00  0.00     0.000 A 
HETATM   20  C   UNL     1      44.045 -10.622  10.526  1.00  0.00     0.002 A 
HETATM   21  C   UNL     1      43.520 -11.423   9.507  1.00  0.00     0.029 A 
ENDBRANCH  13  16
ENDBRANCH  10  12
BRANCH   9  22
HETATM   22  C   UNL     1      41.575 -12.599   5.060  1.00  0.00    -0.025 A 
HETATM   23  C   UNL     1      40.611 -13.156   5.924  1.00  0.00     0.046 A 
HETATM   24  C   UNL     1      39.542 -12.382   6.366  1.00  0.00     0.066 A 
HETATM   25  C   UNL     1      39.401 -11.062   5.959  1.00  0.00     0.036 A 
HETATM   26  C   UNL     1      40.334 -10.505   5.087  1.00  0.00     0.003 A 
HETATM   27  C   UNL     1      41.413 -11.267   4.639  1.00  0.00     0.010 A 
BRANCH  24  28
HETATM   28  O   UNL     1      38.603 -12.887   7.214  1.00  0.00    -0.361 OA
HETATM   29  H   UNL     1      38.844 -13.796   7.454  1.00  0.00     0.217 HD
ENDBRANCH  24  28
ENDBRANCH   9  22
BRANCH   7  30
HETATM   30  C   UNL     1      41.071 -14.928   0.255  1.00  0.00     0.014 A 
HETATM   31  C   UNL     1      41.506 -15.890  -0.669  1.00  0.00     0.017 A 
HETATM   32  C   UNL     1      41.000 -15.910  -1.973  1.00  0.00     0.025 A 
HETATM   33  C   UNL     1      40.051 -14.966  -2.358  1.00  0.00     0.034 A 
HETATM   34 CL   UNL     1      39.428 -14.987  -3.961  1.00  0.00    -0.084 Cl
HETATM   35  C   UNL     1      39.605 -14.004  -1.454  1.00  0.00     0.025 A 
HETATM   36  C   UNL     1      40.115 -13.985  -0.150  1.00  0.00     0.017 A 
ENDBRANCH   7  30
TORSDOF 5
ENDMDL
MODEL 9
REMARK VINA RESULT:      -8.3      4.380      8.376
REMARK  5 active torsions:
REMARK  status: ('A' for Active; 'I' for Inactive)
REMARK    1  A    between atoms: C_7  and  C_8 
REMARK    2  A    between atoms: C_16  and  C_17 
REMARK    3  A    between atoms: C_19  and  O_20 
REMARK    4  A    between atoms: C_24  and  C_25 
REMARK       I    between atoms: C_25  and  N_26 
REMARK    5  A    between atoms: N_26  and  C_27 
ROOT
HETATM    1  C   UNL     1      41.128 -17.901   1.335  1.00  0.00     0.070 C 
HETATM    2  C   UNL     1      41.445 -16.431   1.467  1.00  0.00     0.037 C 
HETATM    3  N   UNL     1      40.939 -15.610   0.459  1.00  0.00    -0.192 N 
HETATM    4  C   UNL     1      41.327 -14.329   0.301  1.00  0.00     0.726 A 
HETATM    5  N   UNL     1      42.086 -13.743   1.272  1.00  0.00    -0.083 N 
HETATM    6  N   UNL     1      42.445 -12.491   0.937  1.00  0.00    -0.135 NA
HETATM    7  C   UNL     1      41.824 -12.348  -0.249  1.00  0.00     0.199 A 
HETATM    8  N   UNL     1      41.135 -13.476  -0.669  1.00  0.00    -0.041 NA
HETATM    9  C   UNL     1      42.451 -14.393   2.531  1.00  0.00     0.202 C 
HETATM   10  C   UNL     1      42.181 -15.894   2.474  1.00  0.00     0.062 C 
HETATM   11  H   UNL     1      40.492 -16.074  -0.329  1.00  0.00     0.184 HD
ENDROOT
BRANCH  10  12
HETATM   12  C   UNL     1      42.935 -16.774   3.415  1.00  0.00     0.256 C 
HETATM   13  N   UNL     1      42.369 -16.891   4.665  1.00  0.00    -0.323 N 
HETATM   14  H   UNL     1      41.491 -16.422   4.845  1.00  0.00     0.169 HD
HETATM   15  O   UNL     1      43.984 -17.283   3.040  1.00  0.00    -0.267 OA
BRANCH  13  16
HETATM   16  C   UNL     1      42.880 -17.602   5.773  1.00  0.00     0.035 A 
HETATM   17  C   UNL     1      43.277 -18.940   5.733  1.00  0.00     0.029 A 
HETATM   18  C   UNL     1      43.773 -19.566   6.881  1.00  0.00     0.002 A 
HETATM   19  C   UNL     1      43.887 -18.859   8.074  1.00  0.00     0.000 A 
HETATM   20  C   UNL     1      43.497 -17.524   8.126  1.00  0.00     0.002 A 
HETATM   21  C   UNL     1      42.989 -16.900   6.982  1.00  0.00     0.029 A 
ENDBRANCH  13  16
ENDBRANCH  10  12
BRANCH   9  22
HETATM   22  C   UNL     1      41.716 -13.687   3.672  1.00  0.00    -0.025 A 
HETATM   23  C   UNL     1      42.393 -13.241   4.824  1.00  0.00     0.046 A 
HETATM   24  C   UNL     1      41.693 -12.587   5.834  1.00  0.00     0.066 A 
HETATM   25  C   UNL     1      40.325 -12.375   5.731  1.00  0.00     0.036 A 
HETATM   26  C   UNL     1      39.639 -12.832   4.608  1.00  0.00     0.003 A 
HETATM   27  C   UNL     1      40.328 -13.484   3.585  1.00  0.00     0.010 A 
BRANCH  24  28
HETATM   28  O   UNL     1      42.322 -12.129   6.953  1.00  0.00    -0.361 OA
HETATM   29  H   UNL     1      43.037 -11.526   6.694  1.00  0.00     0.217 HD
ENDBRANCH  24  28
ENDBRANCH   9  22
BRANCH   7  30
HETATM   30  C   UNL     1      41.859 -11.115  -1.033  1.00  0.00     0.014 A 
HETATM   31  C   UNL     1      40.675 -10.542  -1.522  1.00  0.00     0.017 A 
HETATM   32  C   UNL     1      40.710  -9.368  -2.282  1.00  0.00     0.025 A 
HETATM   33  C   UNL     1      41.933  -8.758  -2.552  1.00  0.00     0.034 A 
HETATM   34 CL   UNL     1      41.978  -7.315  -3.487  1.00  0.00    -0.084 Cl
HETATM   35  C   UNL     1      43.118  -9.311  -2.073  1.00  0.00     0.025 A 
HETATM   36  C   UNL     1      43.082 -10.488  -1.316  1.00  0.00     0.017 A 
ENDBRANCH   7  30
TORSDOF 5
ENDMDL
MODEL 10
REMARK VINA RESULT:      -8.2      4.013      9.573
REMARK  5 active torsions:
REMARK  status: ('A' for Active; 'I' for Inactive)
REMARK    1  A    between atoms: C_7  and  C_8 
REMARK    2  A    between atoms: C_16  and  C_17 
REMARK    3  A    between atoms: C_19  and  O_20 
REMARK    4  A    between atoms: C_24  and  C_25 
REMARK       I    between atoms: C_25  and  N_26 
REMARK    5  A    between atoms: N_26  and  C_27 
ROOT
HETATM    1  C   UNL     1      40.361 -14.227   4.482  1.00  0.00     0.070 C 
HETATM    2  C   UNL     1      39.819 -13.928   3.105  1.00  0.00     0.037 C 
HETATM    3  N   UNL     1      39.087 -12.746   2.987  1.00  0.00    -0.192 N 
HETATM    4  C   UNL     1      38.344 -12.457   1.900  1.00  0.00     0.726 A 
HETATM    5  N   UNL     1      38.461 -13.241   0.790  1.00  0.00    -0.083 N 
HETATM    6  N   UNL     1      37.609 -12.864  -0.180  1.00  0.00    -0.135 NA
HETATM    7  C   UNL     1      37.021 -11.795   0.388  1.00  0.00     0.199 A 
HETATM    8  N   UNL     1      37.450 -11.529   1.680  1.00  0.00    -0.041 NA
HETATM    9  C   UNL     1      39.411 -14.347   0.665  1.00  0.00     0.202 C 
HETATM   10  C   UNL     1      39.993 -14.729   2.023  1.00  0.00     0.062 C 
HETATM   11  H   UNL     1      38.890 -12.240   3.848  1.00  0.00     0.184 HD
ENDROOT
BRANCH  10  12
HETATM   12  C   UNL     1      40.551 -16.105   2.180  1.00  0.00     0.256 C 
HETATM   13  N   UNL     1      41.906 -16.147   2.424  1.00  0.00    -0.323 N 
HETATM   14  H   UNL     1      42.408 -15.275   2.517  1.00  0.00     0.169 HD
HETATM   15  O   UNL     1      39.803 -17.067   2.050  1.00  0.00    -0.267 OA
BRANCH  13  16
HETATM   16  C   UNL     1      42.716 -17.296   2.558  1.00  0.00     0.035 A 
HETATM   17  C   UNL     1      43.293 -17.980   1.486  1.00  0.00     0.029 A 
HETATM   18  C   UNL     1      44.083 -19.112   1.711  1.00  0.00     0.002 A 
HETATM   19  C   UNL     1      44.311 -19.564   3.008  1.00  0.00     0.000 A 
HETATM   20  C   UNL     1      43.742 -18.889   4.084  1.00  0.00     0.002 A 
HETATM   21  C   UNL     1      42.942 -17.765   3.860  1.00  0.00     0.029 A 
ENDBRANCH  13  16
ENDBRANCH  10  12
BRANCH   9  22
HETATM   22  C   UNL     1      40.475 -13.960  -0.364  1.00  0.00    -0.025 A 
HETATM   23  C   UNL     1      40.704 -14.733  -1.519  1.00  0.00     0.046 A 
HETATM   24  C   UNL     1      41.669 -14.339  -2.441  1.00  0.00     0.066 A 
HETATM   25  C   UNL     1      42.425 -13.192  -2.235  1.00  0.00     0.036 A 
HETATM   26  C   UNL     1      42.225 -12.431  -1.086  1.00  0.00     0.003 A 
HETATM   27  C   UNL     1      41.257 -12.810  -0.155  1.00  0.00     0.010 A 
BRANCH  24  28
HETATM   28  O   UNL     1      41.904 -15.057  -3.575  1.00  0.00    -0.361 OA
HETATM   29  H   UNL     1      42.860 -15.197  -3.673  1.00  0.00     0.217 HD
ENDBRANCH  24  28
ENDBRANCH   9  22
BRANCH   7  30
HETATM   30  C   UNL     1      36.021 -10.972  -0.288  1.00  0.00     0.014 A 
HETATM   31  C   UNL     1      36.360 -10.212  -1.418  1.00  0.00     0.017 A 
HETATM   32  C   UNL     1      35.404  -9.417  -2.059  1.00  0.00     0.025 A 
HETATM   33  C   UNL     1      34.100  -9.382  -1.573  1.00  0.00     0.034 A 
HETATM   34 CL   UNL     1      32.923  -8.403  -2.358  1.00  0.00    -0.084 Cl
HETATM   35  C   UNL     1      33.743 -10.131  -0.453  1.00  0.00     0.025 A 
HETATM   36  C   UNL     1      34.702 -10.923   0.188  1.00  0.00     0.017 A 
ENDBRANCH   7  30
TORSDOF 5
ENDMDL
