MODEL 1
REMARK VINA RESULT:      -8.4      0.000      0.000
REMARK  11 active torsions:
REMARK  status: ('A' for Active; 'I' for Inactive)
REMARK    1  A    between atoms: C_2  and  O_3 
REMARK    2  A    between atoms: O_3  and  C_4 
REMARK    3  A    between atoms: C_5  and  O_6 
REMARK    4  A    between atoms: C_9  and  C_10 
REMARK    5  A    between atoms: N_11  and  C_12 
REMARK    6  A    between atoms: C_12  and  C_13 
REMARK    7  A    between atoms: C_13  and  C_14 
REMARK    8  A    between atoms: C_14  and  N_15 
REMARK    9  A    between atoms: C_27  and  O_28 
REMARK   10  A    between atoms: C_27  and  C_29 
REMARK   11  A    between atoms: C_30  and  C_31 
ROOT
HETATM    1  C   UNL     1      41.503 -15.732   3.432  1.00  0.00     0.161 C 
HETATM    2  N   UNL     1      40.469 -14.712   3.230  1.00  0.00    -0.332 N 
HETATM    3  C   UNL     1      40.526 -14.120   1.990  1.00  0.00     0.295 C 
HETATM    4  O   UNL     1      39.810 -13.223   1.586  1.00  0.00    -0.264 OA
HETATM    5  C   UNL     1      42.096 -15.941   2.062  1.00  0.00     0.058 C 
HETATM    6  C   UNL     1      41.656 -14.808   1.221  1.00  0.00     0.250 C 
HETATM    7  O   UNL     1      42.074 -14.490   0.131  1.00  0.00    -0.282 OA
HETATM    8  C   UNL     1      42.711 -17.005   1.523  1.00  0.00     0.078 C 
ENDROOT
BRANCH   1   9
HETATM    9  C   UNL     1      42.513 -15.268   4.471  1.00  0.00    -0.028 A 
HETATM   10  C   UNL     1      43.344 -14.172   4.180  1.00  0.00     0.012 A 
HETATM   11  C   UNL     1      44.301 -13.741   5.099  1.00  0.00     0.040 A 
HETATM   12  C   UNL     1      44.444 -14.414   6.303  1.00  0.00     0.099 A 
HETATM   13  C   UNL     1      43.646 -15.513   6.624  1.00  0.00     0.102 A 
HETATM   14  C   UNL     1      42.660 -15.917   5.720  1.00  0.00     0.049 A 
BRANCH  12  15
HETATM   15  O   UNL     1      45.405 -13.978   7.172  1.00  0.00    -0.358 OA
HETATM   16  H   UNL     1      45.557 -13.038   6.954  1.00  0.00     0.218 HD
ENDBRANCH  12  15
BRANCH  13  17
HETATM   17  O   UNL     1      43.923 -16.098   7.831  1.00  0.00    -0.349 OA
BRANCH  17  18
HETATM   18  C   UNL     1      43.212 -17.290   8.158  1.00  0.00     0.171 C 
HETATM   19  C   UNL     1      44.173 -18.460   8.048  1.00  0.00     0.034 C 
ENDBRANCH  17  18
ENDBRANCH  13  17
ENDBRANCH   1   9
BRANCH   2  20
HETATM   20  C   UNL     1      39.389 -14.494   4.178  1.00  0.00     0.129 C 
BRANCH  20  21
HETATM   21  C   UNL     1      39.754 -13.646   5.398  1.00  0.00     0.048 C 
BRANCH  21  22
HETATM   22  C   UNL     1      40.246 -12.219   5.148  1.00  0.00     0.236 C 
BRANCH  22  23
HETATM   23  N   UNL     1      40.089 -11.289   6.318  1.00  0.00    -0.067 N 
HETATM   24  H   UNL     1      41.042 -11.089   6.688  1.00  0.00     0.280 HD
HETATM   25  C   UNL     1      39.387  -9.977   6.012  1.00  0.00     0.261 C 
HETATM   26  C   UNL     1      39.291  -9.125   7.283  1.00  0.00     0.195 C 
HETATM   27  O   UNL     1      38.614  -9.832   8.328  1.00  0.00    -0.388 OA
HETATM   28  C   UNL     1      39.314 -11.029   8.686  1.00  0.00     0.195 C 
HETATM   29  C   UNL     1      39.393 -11.986   7.493  1.00  0.00     0.261 C 
ENDBRANCH  22  23
ENDBRANCH  21  22
ENDBRANCH  20  21
ENDBRANCH   2  20
BRANCH   8  30
HETATM   30  O   UNL     1      43.117 -17.049   0.203  1.00  0.00    -0.360 OA
HETATM   31  H   UNL     1      43.731 -17.798   0.057  1.00  0.00     0.217 HD
ENDBRANCH   8  30
BRANCH   8  32
HETATM   32  C   UNL     1      42.941 -18.239   2.251  1.00  0.00     0.038 C 
HETATM   33  C   UNL     1      44.111 -18.586   2.811  1.00  0.00     0.014 C 
BRANCH  33  34
HETATM   34  C   UNL     1      44.318 -19.916   3.388  1.00  0.00    -0.036 A 
HETATM   35  C   UNL     1      44.280 -21.034   2.546  1.00  0.00     0.011 A 
HETATM   36  C   UNL     1      44.448 -22.317   3.068  1.00  0.00     0.001 A 
HETATM   37  C   UNL     1      44.661 -22.489   4.435  1.00  0.00     0.000 A 
HETATM   38  C   UNL     1      44.709 -21.379   5.279  1.00  0.00     0.001 A 
HETATM   39  C   UNL     1      44.537 -20.095   4.757  1.00  0.00     0.011 A 
ENDBRANCH  33  34
ENDBRANCH   8  32
TORSDOF 11
ENDMDL
MODEL 2
REMARK VINA RESULT:      -7.4      2.951      6.409
REMARK  11 active torsions:
REMARK  status: ('A' for Active; 'I' for Inactive)
REMARK    1  A    between atoms: C_2  and  O_3 
REMARK    2  A    between atoms: O_3  and  C_4 
REMARK    3  A    between atoms: C_5  and  O_6 
REMARK    4  A    between atoms: C_9  and  C_10 
REMARK    5  A    between atoms: N_11  and  C_12 
REMARK    6  A    between atoms: C_12  and  C_13 
REMARK    7  A    between atoms: C_13  and  C_14 
REMARK    8  A    between atoms: C_14  and  N_15 
REMARK    9  A    between atoms: C_27  and  O_28 
REMARK   10  A    between atoms: C_27  and  C_29 
REMARK   11  A    between atoms: C_30  and  C_31 
ROOT
HETATM    1  C   UNL     1      42.882 -14.965   4.161  1.00  0.00     0.161 C 
HETATM    2  N   UNL     1      43.601 -15.155   5.425  1.00  0.00    -0.332 N 
HETATM    3  C   UNL     1      43.509 -16.437   5.915  1.00  0.00     0.295 C 
HETATM    4  O   UNL     1      43.980 -16.844   6.959  1.00  0.00    -0.264 OA
HETATM    5  C   UNL     1      42.519 -16.362   3.724  1.00  0.00     0.058 C 
HETATM    6  C   UNL     1      42.707 -17.246   4.894  1.00  0.00     0.250 C 
HETATM    7  O   UNL     1      42.332 -18.389   5.025  1.00  0.00    -0.282 OA
HETATM    8  C   UNL     1      42.290 -16.870   2.503  1.00  0.00     0.078 C 
ENDROOT
BRANCH   1   9
HETATM    9  C   UNL     1      41.679 -14.056   4.362  1.00  0.00    -0.028 A 
HETATM   10  C   UNL     1      40.786 -14.321   5.416  1.00  0.00     0.012 A 
HETATM   11  C   UNL     1      39.659 -13.524   5.609  1.00  0.00     0.040 A 
HETATM   12  C   UNL     1      39.407 -12.473   4.740  1.00  0.00     0.099 A 
HETATM   13  C   UNL     1      40.263 -12.184   3.677  1.00  0.00     0.102 A 
HETATM   14  C   UNL     1      41.415 -12.958   3.509  1.00  0.00     0.049 A 
BRANCH  12  15
HETATM   15  O   UNL     1      38.282 -11.724   4.946  1.00  0.00    -0.358 OA
HETATM   16  H   UNL     1      37.862 -11.624   4.070  1.00  0.00     0.218 HD
ENDBRANCH  12  15
BRANCH  13  17
HETATM   17  O   UNL     1      39.871 -11.140   2.882  1.00  0.00    -0.349 OA
BRANCH  17  18
HETATM   18  C   UNL     1      39.863 -11.357   1.473  1.00  0.00     0.171 C 
HETATM   19  C   UNL     1      38.782 -12.374   1.156  1.00  0.00     0.034 C 
ENDBRANCH  17  18
ENDBRANCH  13  17
ENDBRANCH   1   9
BRANCH   2  20
HETATM   20  C   UNL     1      44.470 -14.137   5.991  1.00  0.00     0.129 C 
BRANCH  20  21
HETATM   21  C   UNL     1      43.824 -13.248   7.056  1.00  0.00     0.048 C 
BRANCH  21  22
HETATM   22  C   UNL     1      44.639 -12.946   8.316  1.00  0.00     0.236 C 
BRANCH  22  23
HETATM   23  N   UNL     1      43.838 -12.387   9.459  1.00  0.00    -0.067 N 
HETATM   24  H   UNL     1      42.986 -12.976   9.561  1.00  0.00     0.280 HD
HETATM   25  C   UNL     1      44.568 -12.327  10.790  1.00  0.00     0.261 C 
HETATM   26  C   UNL     1      43.646 -11.741  11.867  1.00  0.00     0.195 C 
HETATM   27  O   UNL     1      43.174 -10.443  11.488  1.00  0.00    -0.388 OA
HETATM   28  C   UNL     1      42.410 -10.499  10.278  1.00  0.00     0.195 C 
HETATM   29  C   UNL     1      43.273 -11.004   9.118  1.00  0.00     0.261 C 
ENDBRANCH  22  23
ENDBRANCH  21  22
ENDBRANCH  20  21
ENDBRANCH   2  20
BRANCH   8  30
HETATM   30  O   UNL     1      42.053 -18.213   2.279  1.00  0.00    -0.360 OA
HETATM   31  H   UNL     1      41.607 -18.616   3.052  1.00  0.00     0.217 HD
ENDBRANCH   8  30
BRANCH   8  32
HETATM   32  C   UNL     1      42.344 -16.072   1.291  1.00  0.00     0.038 C 
HETATM   33  C   UNL     1      41.269 -15.573   0.660  1.00  0.00     0.014 C 
BRANCH  33  34
HETATM   34  C   UNL     1      41.384 -14.917  -0.644  1.00  0.00    -0.036 A 
HETATM   35  C   UNL     1      41.014 -15.625  -1.793  1.00  0.00     0.011 A 
HETATM   36  C   UNL     1      41.136 -15.038  -3.054  1.00  0.00     0.001 A 
HETATM   37  C   UNL     1      41.623 -13.737  -3.171  1.00  0.00     0.000 A 
HETATM   38  C   UNL     1      41.985 -13.022  -2.029  1.00  0.00     0.001 A 
HETATM   39  C   UNL     1      41.868 -13.611  -0.767  1.00  0.00     0.011 A 
ENDBRANCH  33  34
ENDBRANCH   8  32
TORSDOF 11
ENDMDL
MODEL 3
REMARK VINA RESULT:      -7.4      3.380      7.204
REMARK  11 active torsions:
REMARK  status: ('A' for Active; 'I' for Inactive)
REMARK    1  A    between atoms: C_2  and  O_3 
REMARK    2  A    between atoms: O_3  and  C_4 
REMARK    3  A    between atoms: C_5  and  O_6 
REMARK    4  A    between atoms: C_9  and  C_10 
REMARK    5  A    between atoms: N_11  and  C_12 
REMARK    6  A    between atoms: C_12  and  C_13 
REMARK    7  A    between atoms: C_13  and  C_14 
REMARK    8  A    between atoms: C_14  and  N_15 
REMARK    9  A    between atoms: C_27  and  O_28 
REMARK   10  A    between atoms: C_27  and  C_29 
REMARK   11  A    between atoms: C_30  and  C_31 
ROOT
HETATM    1  C   UNL     1      40.469 -12.516   3.014  1.00  0.00     0.161 C 
HETATM    2  N   UNL     1      40.212 -11.090   3.238  1.00  0.00    -0.332 N 
HETATM    3  C   UNL     1      39.447 -10.845   4.355  1.00  0.00     0.295 C 
HETATM    4  O   UNL     1      39.062  -9.758   4.740  1.00  0.00    -0.264 OA
HETATM    5  C   UNL     1      40.004 -13.185   4.283  1.00  0.00     0.058 C 
HETATM    6  C   UNL     1      39.181 -12.199   5.016  1.00  0.00     0.250 C 
HETATM    7  O   UNL     1      38.458 -12.400   5.965  1.00  0.00    -0.282 OA
HETATM    8  C   UNL     1      40.379 -14.338   4.858  1.00  0.00     0.078 C 
ENDROOT
BRANCH   1   9
HETATM    9  C   UNL     1      39.743 -12.999   1.767  1.00  0.00    -0.028 A 
HETATM   10  C   UNL     1      38.368 -13.280   1.838  1.00  0.00     0.012 A 
HETATM   11  C   UNL     1      37.680 -13.753   0.721  1.00  0.00     0.040 A 
HETATM   12  C   UNL     1      38.367 -13.966  -0.465  1.00  0.00     0.099 A 
HETATM   13  C   UNL     1      39.734 -13.709  -0.573  1.00  0.00     0.102 A 
HETATM   14  C   UNL     1      40.413 -13.197   0.536  1.00  0.00     0.049 A 
BRANCH  12  15
HETATM   15  O   UNL     1      37.666 -14.449  -1.535  1.00  0.00    -0.358 OA
HETATM   16  H   UNL     1      37.262 -15.286  -1.236  1.00  0.00     0.218 HD
ENDBRANCH  12  15
BRANCH  13  17
HETATM   17  O   UNL     1      40.284 -13.998  -1.794  1.00  0.00    -0.349 OA
BRANCH  17  18
HETATM   18  C   UNL     1      41.001 -15.225  -1.914  1.00  0.00     0.171 C 
HETATM   19  C   UNL     1      40.460 -15.973  -3.118  1.00  0.00     0.034 C 
ENDBRANCH  17  18
ENDBRANCH  13  17
ENDBRANCH   1   9
BRANCH   2  20
HETATM   20  C   UNL     1      40.859 -10.046   2.461  1.00  0.00     0.129 C 
BRANCH  20  21
HETATM   21  C   UNL     1      40.043  -9.510   1.282  1.00  0.00     0.048 C 
BRANCH  21  22
HETATM   22  C   UNL     1      40.812  -9.020   0.053  1.00  0.00     0.236 C 
BRANCH  22  23
HETATM   23  N   UNL     1      41.160 -10.095  -0.938  1.00  0.00    -0.067 N 
HETATM   24  H   UNL     1      40.650 -10.957  -0.654  1.00  0.00     0.280 HD
HETATM   25  C   UNL     1      40.830  -9.772  -2.385  1.00  0.00     0.261 C 
HETATM   26  C   UNL     1      41.232 -10.944  -3.288  1.00  0.00     0.195 C 
HETATM   27  O   UNL     1      42.622 -11.253  -3.141  1.00  0.00    -0.388 OA
HETATM   28  C   UNL     1      42.931 -11.645  -1.798  1.00  0.00     0.195 C 
HETATM   29  C   UNL     1      42.633 -10.502  -0.822  1.00  0.00     0.261 C 
ENDBRANCH  22  23
ENDBRANCH  21  22
ENDBRANCH  20  21
ENDBRANCH   2  20
BRANCH   8  30
HETATM   30  O   UNL     1      39.901 -14.756   6.085  1.00  0.00    -0.360 OA
HETATM   31  H   UNL     1      40.454 -14.397   6.809  1.00  0.00     0.217 HD
ENDBRANCH   8  30
BRANCH   8  32
HETATM   32  C   UNL     1      41.379 -15.220   4.284  1.00  0.00     0.038 C 
HETATM   33  C   UNL     1      41.152 -16.068   3.268  1.00  0.00     0.014 C 
BRANCH  33  34
HETATM   34  C   UNL     1      42.160 -17.044   2.848  1.00  0.00    -0.036 A 
HETATM   35  C   UNL     1      42.765 -16.897   1.595  1.00  0.00     0.011 A 
HETATM   36  C   UNL     1      43.711 -17.825   1.154  1.00  0.00     0.001 A 
HETATM   37  C   UNL     1      44.062 -18.900   1.968  1.00  0.00     0.000 A 
HETATM   38  C   UNL     1      43.470 -19.047   3.223  1.00  0.00     0.001 A 
HETATM   39  C   UNL     1      42.520 -18.122   3.663  1.00  0.00     0.011 A 
ENDBRANCH  33  34
ENDBRANCH   8  32
TORSDOF 11
ENDMDL
MODEL 4
REMARK VINA RESULT:      -7.3      4.581      8.446
REMARK  11 active torsions:
REMARK  status: ('A' for Active; 'I' for Inactive)
REMARK    1  A    between atoms: C_2  and  O_3 
REMARK    2  A    between atoms: O_3  and  C_4 
REMARK    3  A    between atoms: C_5  and  O_6 
REMARK    4  A    between atoms: C_9  and  C_10 
REMARK    5  A    between atoms: N_11  and  C_12 
REMARK    6  A    between atoms: C_12  and  C_13 
REMARK    7  A    between atoms: C_13  and  C_14 
REMARK    8  A    between atoms: C_14  and  N_15 
REMARK    9  A    between atoms: C_27  and  O_28 
REMARK   10  A    between atoms: C_27  and  C_29 
REMARK   11  A    between atoms: C_30  and  C_31 
ROOT
HETATM    1  C   UNL     1      41.269 -13.803   0.409  1.00  0.00     0.161 C 
HETATM    2  N   UNL     1      41.395 -12.346   0.300  1.00  0.00    -0.332 N 
HETATM    3  C   UNL     1      40.532 -11.662   1.124  1.00  0.00     0.295 C 
HETATM    4  O   UNL     1      40.409 -10.454   1.196  1.00  0.00    -0.264 OA
HETATM    5  C   UNL     1      40.392 -14.012   1.618  1.00  0.00     0.058 C 
HETATM    6  C   UNL     1      39.762 -12.711   1.929  1.00  0.00     0.250 C 
HETATM    7  O   UNL     1      38.842 -12.497   2.684  1.00  0.00    -0.282 OA
HETATM    8  C   UNL     1      40.299 -15.047   2.468  1.00  0.00     0.078 C 
ENDROOT
BRANCH   1   9
HETATM    9  C   UNL     1      40.691 -14.386  -0.872  1.00  0.00    -0.028 A 
HETATM   10  C   UNL     1      41.446 -15.319  -1.603  1.00  0.00     0.012 A 
HETATM   11  C   UNL     1      40.958 -15.850  -2.797  1.00  0.00     0.040 A 
HETATM   12  C   UNL     1      39.723 -15.436  -3.274  1.00  0.00     0.099 A 
HETATM   13  C   UNL     1      38.949 -14.503  -2.583  1.00  0.00     0.102 A 
HETATM   14  C   UNL     1      39.422 -14.004  -1.367  1.00  0.00     0.049 A 
BRANCH  12  15
HETATM   15  O   UNL     1      39.284 -15.961  -4.458  1.00  0.00    -0.358 OA
HETATM   16  H   UNL     1      39.066 -15.197  -5.026  1.00  0.00     0.218 HD
ENDBRANCH  12  15
BRANCH  13  17
HETATM   17  O   UNL     1      37.769 -14.163  -3.191  1.00  0.00    -0.349 OA
BRANCH  17  18
HETATM   18  C   UNL     1      37.361 -12.800  -3.110  1.00  0.00     0.171 C 
HETATM   19  C   UNL     1      36.491 -12.493  -4.315  1.00  0.00     0.034 C 
ENDBRANCH  17  18
ENDBRANCH  13  17
ENDBRANCH   1   9
BRANCH   2  20
HETATM   20  C   UNL     1      42.455 -11.708  -0.463  1.00  0.00     0.129 C 
BRANCH  20  21
HETATM   21  C   UNL     1      42.017 -11.083  -1.790  1.00  0.00     0.048 C 
BRANCH  21  22
HETATM   22  C   UNL     1      42.324 -11.858  -3.073  1.00  0.00     0.236 C 
BRANCH  22  23
HETATM   23  N   UNL     1      41.587 -11.372  -4.290  1.00  0.00    -0.067 N 
HETATM   24  H   UNL     1      41.484 -12.181  -4.936  1.00  0.00     0.280 HD
HETATM   25  C   UNL     1      40.219 -10.770  -4.018  1.00  0.00     0.261 C 
HETATM   26  C   UNL     1      39.576 -10.316  -5.334  1.00  0.00     0.195 C 
HETATM   27  O   UNL     1      40.415  -9.380  -6.020  1.00  0.00    -0.388 OA
HETATM   28  C   UNL     1      41.679  -9.963  -6.360  1.00  0.00     0.195 C 
HETATM   29  C   UNL     1      42.436 -10.382  -5.096  1.00  0.00     0.261 C 
ENDBRANCH  22  23
ENDBRANCH  21  22
ENDBRANCH  20  21
ENDBRANCH   2  20
BRANCH   8  30
HETATM   30  O   UNL     1      39.491 -15.028   3.589  1.00  0.00    -0.360 OA
HETATM   31  H   UNL     1      38.625 -14.622   3.382  1.00  0.00     0.217 HD
ENDBRANCH   8  30
BRANCH   8  32
HETATM   32  C   UNL     1      41.093 -16.254   2.335  1.00  0.00     0.038 C 
HETATM   33  C   UNL     1      41.592 -16.955   3.367  1.00  0.00     0.014 C 
BRANCH  33  34
HETATM   34  C   UNL     1      42.520 -18.068   3.157  1.00  0.00    -0.036 A 
HETATM   35  C   UNL     1      43.352 -18.464   4.209  1.00  0.00     0.011 A 
HETATM   36  C   UNL     1      44.266 -19.505   4.034  1.00  0.00     0.001 A 
HETATM   37  C   UNL     1      44.346 -20.160   2.806  1.00  0.00     0.000 A 
HETATM   38  C   UNL     1      43.513 -19.777   1.755  1.00  0.00     0.001 A 
HETATM   39  C   UNL     1      42.602 -18.732   1.928  1.00  0.00     0.011 A 
ENDBRANCH  33  34
ENDBRANCH   8  32
TORSDOF 11
ENDMDL
MODEL 5
REMARK VINA RESULT:      -7.2      2.884      6.104
REMARK  11 active torsions:
REMARK  status: ('A' for Active; 'I' for Inactive)
REMARK    1  A    between atoms: C_2  and  O_3 
REMARK    2  A    between atoms: O_3  and  C_4 
REMARK    3  A    between atoms: C_5  and  O_6 
REMARK    4  A    between atoms: C_9  and  C_10 
REMARK    5  A    between atoms: N_11  and  C_12 
REMARK    6  A    between atoms: C_12  and  C_13 
REMARK    7  A    between atoms: C_13  and  C_14 
REMARK    8  A    between atoms: C_14  and  N_15 
REMARK    9  A    between atoms: C_27  and  O_28 
REMARK   10  A    between atoms: C_27  and  C_29 
REMARK   11  A    between atoms: C_30  and  C_31 
ROOT
HETATM    1  C   UNL     1      42.654 -14.783   4.111  1.00  0.00     0.161 C 
HETATM    2  N   UNL     1      43.364 -14.952   5.383  1.00  0.00    -0.332 N 
HETATM    3  C   UNL     1      43.304 -16.237   5.871  1.00  0.00     0.295 C 
HETATM    4  O   UNL     1      43.775 -16.631   6.921  1.00  0.00    -0.264 OA
HETATM    5  C   UNL     1      42.337 -16.189   3.669  1.00  0.00     0.058 C 
HETATM    6  C   UNL     1      42.537 -17.068   4.841  1.00  0.00     0.250 C 
HETATM    7  O   UNL     1      42.194 -18.221   4.967  1.00  0.00    -0.282 OA
HETATM    8  C   UNL     1      42.136 -16.702   2.445  1.00  0.00     0.078 C 
ENDROOT
BRANCH   1   9
HETATM    9  C   UNL     1      41.423 -13.909   4.300  1.00  0.00    -0.028 A 
HETATM   10  C   UNL     1      40.850 -13.278   3.183  1.00  0.00     0.012 A 
HETATM   11  C   UNL     1      39.739 -12.448   3.327  1.00  0.00     0.040 A 
HETATM   12  C   UNL     1      39.208 -12.229   4.589  1.00  0.00     0.099 A 
HETATM   13  C   UNL     1      39.755 -12.829   5.724  1.00  0.00     0.102 A 
HETATM   14  C   UNL     1      40.842 -13.693   5.573  1.00  0.00     0.049 A 
BRANCH  12  15
HETATM   15  O   UNL     1      38.131 -11.394   4.697  1.00  0.00    -0.358 OA
HETATM   16  H   UNL     1      38.386 -10.711   5.348  1.00  0.00     0.218 HD
ENDBRANCH  12  15
BRANCH  13  17
HETATM   17  O   UNL     1      39.148 -12.495   6.907  1.00  0.00    -0.349 OA
BRANCH  17  18
HETATM   18  C   UNL     1      39.675 -11.378   7.619  1.00  0.00     0.171 C 
HETATM   19  C   UNL     1      39.154 -11.436   9.043  1.00  0.00     0.034 C 
ENDBRANCH  17  18
ENDBRANCH  13  17
ENDBRANCH   1   9
BRANCH   2  20
HETATM   20  C   UNL     1      44.197 -13.910   5.959  1.00  0.00     0.129 C 
BRANCH  20  21
HETATM   21  C   UNL     1      44.133 -13.793   7.484  1.00  0.00     0.048 C 
BRANCH  21  22
HETATM   22  C   UNL     1      45.133 -12.857   8.166  1.00  0.00     0.236 C 
BRANCH  22  23
HETATM   23  N   UNL     1      44.520 -11.882   9.132  1.00  0.00    -0.067 N 
HETATM   24  H   UNL     1      45.212 -11.120   9.287  1.00  0.00     0.280 HD
HETATM   25  C   UNL     1      43.200 -11.277   8.687  1.00  0.00     0.261 C 
HETATM   26  C   UNL     1      42.683 -10.306   9.756  1.00  0.00     0.195 C 
HETATM   27  O   UNL     1      42.541 -10.961  11.021  1.00  0.00    -0.388 OA
HETATM   28  C   UNL     1      43.797 -11.462  11.493  1.00  0.00     0.195 C 
HETATM   29  C   UNL     1      44.360 -12.505  10.524  1.00  0.00     0.261 C 
ENDBRANCH  22  23
ENDBRANCH  21  22
ENDBRANCH  20  21
ENDBRANCH   2  20
BRANCH   8  30
HETATM   30  O   UNL     1      41.941 -18.051   2.219  1.00  0.00    -0.360 OA
HETATM   31  H   UNL     1      42.378 -18.326   1.387  1.00  0.00     0.217 HD
ENDBRANCH   8  30
BRANCH   8  32
HETATM   32  C   UNL     1      42.180 -15.902   1.235  1.00  0.00     0.038 C 
HETATM   33  C   UNL     1      41.123 -15.661   0.443  1.00  0.00     0.014 C 
BRANCH  33  34
HETATM   34  C   UNL     1      41.273 -14.984  -0.847  1.00  0.00    -0.036 A 
HETATM   35  C   UNL     1      40.896 -15.658  -2.014  1.00  0.00     0.011 A 
HETATM   36  C   UNL     1      41.051 -15.050  -3.261  1.00  0.00     0.001 A 
HETATM   37  C   UNL     1      41.575 -13.762  -3.347  1.00  0.00     0.000 A 
HETATM   38  C   UNL     1      41.943 -13.080  -2.187  1.00  0.00     0.001 A 
HETATM   39  C   UNL     1      41.794 -13.690  -0.938  1.00  0.00     0.011 A 
ENDBRANCH  33  34
ENDBRANCH   8  32
TORSDOF 11
ENDMDL
MODEL 6
REMARK VINA RESULT:      -7.1      3.231      7.011
REMARK  11 active torsions:
REMARK  status: ('A' for Active; 'I' for Inactive)
REMARK    1  A    between atoms: C_2  and  O_3 
REMARK    2  A    between atoms: O_3  and  C_4 
REMARK    3  A    between atoms: C_5  and  O_6 
REMARK    4  A    between atoms: C_9  and  C_10 
REMARK    5  A    between atoms: N_11  and  C_12 
REMARK    6  A    between atoms: C_12  and  C_13 
REMARK    7  A    between atoms: C_13  and  C_14 
REMARK    8  A    between atoms: C_14  and  N_15 
REMARK    9  A    between atoms: C_27  and  O_28 
REMARK   10  A    between atoms: C_27  and  C_29 
REMARK   11  A    between atoms: C_30  and  C_31 
ROOT
HETATM    1  C   UNL     1      40.677 -12.766   3.480  1.00  0.00     0.161 C 
HETATM    2  N   UNL     1      40.454 -11.341   3.741  1.00  0.00    -0.332 N 
HETATM    3  C   UNL     1      39.709 -11.106   4.873  1.00  0.00     0.295 C 
HETATM    4  O   UNL     1      39.352 -10.020   5.289  1.00  0.00    -0.264 OA
HETATM    5  C   UNL     1      40.213 -13.454   4.740  1.00  0.00     0.058 C 
HETATM    6  C   UNL     1      39.422 -12.469   5.506  1.00  0.00     0.250 C 
HETATM    7  O   UNL     1      38.707 -12.677   6.460  1.00  0.00    -0.282 OA
HETATM    8  C   UNL     1      40.571 -14.628   5.283  1.00  0.00     0.078 C 
ENDROOT
BRANCH   1   9
HETATM    9  C   UNL     1      39.925 -13.205   2.232  1.00  0.00    -0.028 A 
HETATM   10  C   UNL     1      40.595 -13.964   1.257  1.00  0.00     0.012 A 
HETATM   11  C   UNL     1      39.942 -14.356   0.089  1.00  0.00     0.040 A 
HETATM   12  C   UNL     1      38.625 -13.976  -0.118  1.00  0.00     0.099 A 
HETATM   13  C   UNL     1      37.929 -13.214   0.821  1.00  0.00     0.102 A 
HETATM   14  C   UNL     1      38.572 -12.857   2.009  1.00  0.00     0.049 A 
BRANCH  12  15
HETATM   15  O   UNL     1      38.021 -14.360  -1.283  1.00  0.00    -0.358 OA
HETATM   16  H   UNL     1      37.060 -14.286  -1.125  1.00  0.00     0.218 HD
ENDBRANCH  12  15
BRANCH  13  17
HETATM   17  O   UNL     1      36.647 -12.884   0.466  1.00  0.00    -0.349 OA
BRANCH  17  18
HETATM   18  C   UNL     1      36.303 -11.501   0.471  1.00  0.00     0.171 C 
HETATM   19  C   UNL     1      36.548 -10.946  -0.920  1.00  0.00     0.034 C 
ENDBRANCH  17  18
ENDBRANCH  13  17
ENDBRANCH   1   9
BRANCH   2  20
HETATM   20  C   UNL     1      41.113 -10.293   2.979  1.00  0.00     0.129 C 
BRANCH  20  21
HETATM   21  C   UNL     1      40.253  -9.632   1.900  1.00  0.00     0.048 C 
BRANCH  21  22
HETATM   22  C   UNL     1      40.972  -8.824   0.818  1.00  0.00     0.236 C 
BRANCH  22  23
HETATM   23  N   UNL     1      41.347  -9.611  -0.407  1.00  0.00    -0.067 N 
HETATM   24  H   UNL     1      41.277  -8.970  -1.223  1.00  0.00     0.280 HD
HETATM   25  C   UNL     1      42.733 -10.233  -0.376  1.00  0.00     0.261 C 
HETATM   26  C   UNL     1      42.990 -11.005  -1.676  1.00  0.00     0.195 C 
HETATM   27  O   UNL     1      41.988 -12.006  -1.886  1.00  0.00    -0.388 OA
HETATM   28  C   UNL     1      40.685 -11.424  -2.004  1.00  0.00     0.195 C 
HETATM   29  C   UNL     1      40.303 -10.691  -0.714  1.00  0.00     0.261 C 
ENDBRANCH  22  23
ENDBRANCH  21  22
ENDBRANCH  20  21
ENDBRANCH   2  20
BRANCH   8  30
HETATM   30  O   UNL     1      40.100 -15.065   6.506  1.00  0.00    -0.360 OA
HETATM   31  H   UNL     1      40.148 -14.346   7.169  1.00  0.00     0.217 HD
ENDBRANCH   8  30
BRANCH   8  32
HETATM   32  C   UNL     1      41.545 -15.518   4.675  1.00  0.00     0.038 C 
HETATM   33  C   UNL     1      41.238 -16.533   3.852  1.00  0.00     0.014 C 
BRANCH  33  34
HETATM   34  C   UNL     1      42.253 -17.489   3.407  1.00  0.00    -0.036 A 
HETATM   35  C   UNL     1      42.547 -17.580   2.041  1.00  0.00     0.011 A 
HETATM   36  C   UNL     1      43.492 -18.499   1.581  1.00  0.00     0.001 A 
HETATM   37  C   UNL     1      44.153 -19.328   2.486  1.00  0.00     0.000 A 
HETATM   38  C   UNL     1      43.872 -19.237   3.850  1.00  0.00     0.001 A 
HETATM   39  C   UNL     1      42.923 -18.320   4.310  1.00  0.00     0.011 A 
ENDBRANCH  33  34
ENDBRANCH   8  32
TORSDOF 11
ENDMDL
MODEL 7
REMARK VINA RESULT:      -7.1      5.215      8.666
REMARK  11 active torsions:
REMARK  status: ('A' for Active; 'I' for Inactive)
REMARK    1  A    between atoms: C_2  and  O_3 
REMARK    2  A    between atoms: O_3  and  C_4 
REMARK    3  A    between atoms: C_5  and  O_6 
REMARK    4  A    between atoms: C_9  and  C_10 
REMARK    5  A    between atoms: N_11  and  C_12 
REMARK    6  A    between atoms: C_12  and  C_13 
REMARK    7  A    between atoms: C_13  and  C_14 
REMARK    8  A    between atoms: C_14  and  N_15 
REMARK    9  A    between atoms: C_27  and  O_28 
REMARK   10  A    between atoms: C_27  and  C_29 
REMARK   11  A    between atoms: C_30  and  C_31 
ROOT
HETATM    1  C   UNL     1      40.284 -13.448  -0.612  1.00  0.00     0.161 C 
HETATM    2  N   UNL     1      40.071 -12.030  -0.916  1.00  0.00    -0.332 N 
HETATM    3  C   UNL     1      39.065 -11.459  -0.172  1.00  0.00     0.295 C 
HETATM    4  O   UNL     1      38.666 -10.314  -0.258  1.00  0.00    -0.264 OA
HETATM    5  C   UNL     1      39.467 -13.690   0.633  1.00  0.00     0.058 C 
HETATM    6  C   UNL     1      38.551 -12.540   0.781  1.00  0.00     0.250 C 
HETATM    7  O   UNL     1      37.598 -12.444   1.521  1.00  0.00    -0.282 OA
HETATM    8  C   UNL     1      39.607 -14.595   1.614  1.00  0.00     0.078 C 
ENDROOT
BRANCH   1   9
HETATM    9  C   UNL     1      39.870 -14.315  -1.792  1.00  0.00    -0.028 A 
HETATM   10  C   UNL     1      40.832 -15.124  -2.421  1.00  0.00     0.012 A 
HETATM   11  C   UNL     1      40.491 -15.907  -3.523  1.00  0.00     0.040 A 
HETATM   12  C   UNL     1      39.194 -15.871  -4.013  1.00  0.00     0.099 A 
HETATM   13  C   UNL     1      38.213 -15.073  -3.422  1.00  0.00     0.102 A 
HETATM   14  C   UNL     1      38.546 -14.321  -2.293  1.00  0.00     0.049 A 
BRANCH  12  15
HETATM   15  O   UNL     1      38.899 -16.636  -5.107  1.00  0.00    -0.358 OA
HETATM   16  H   UNL     1      39.750 -17.001  -5.417  1.00  0.00     0.218 HD
ENDBRANCH  12  15
BRANCH  13  17
HETATM   17  O   UNL     1      36.988 -15.113  -4.033  1.00  0.00    -0.349 OA
BRANCH  17  18
HETATM   18  C   UNL     1      36.493 -13.895  -4.585  1.00  0.00     0.171 C 
HETATM   19  C   UNL     1      35.044 -14.108  -4.982  1.00  0.00     0.034 C 
ENDBRANCH  17  18
ENDBRANCH  13  17
ENDBRANCH   1   9
BRANCH   2  20
HETATM   20  C   UNL     1      40.962 -11.273  -1.780  1.00  0.00     0.129 C 
BRANCH  20  21
HETATM   21  C   UNL     1      40.430 -11.004  -3.189  1.00  0.00     0.048 C 
BRANCH  21  22
HETATM   22  C   UNL     1      39.938  -9.589  -3.502  1.00  0.00     0.236 C 
BRANCH  22  23
HETATM   23  N   UNL     1      38.476  -9.362  -3.233  1.00  0.00    -0.067 N 
HETATM   24  H   UNL     1      38.361  -9.262  -2.203  1.00  0.00     0.280 HD
HETATM   25  C   UNL     1      37.872  -8.152  -3.924  1.00  0.00     0.261 C 
HETATM   26  C   UNL     1      36.385  -8.034  -3.569  1.00  0.00     0.195 C 
HETATM   27  O   UNL     1      35.676  -9.227  -3.922  1.00  0.00    -0.388 OA
HETATM   28  C   UNL     1      36.179 -10.363  -3.211  1.00  0.00     0.195 C 
HETATM   29  C   UNL     1      37.649 -10.611  -3.562  1.00  0.00     0.261 C 
ENDBRANCH  22  23
ENDBRANCH  21  22
ENDBRANCH  20  21
ENDBRANCH   2  20
BRANCH   8  30
HETATM   30  O   UNL     1      38.806 -14.613   2.740  1.00  0.00    -0.360 OA
HETATM   31  H   UNL     1      38.708 -15.527   3.077  1.00  0.00     0.217 HD
ENDBRANCH   8  30
BRANCH   8  32
HETATM   32  C   UNL     1      40.661 -15.594   1.626  1.00  0.00     0.038 C 
HETATM   33  C   UNL     1      40.707 -16.641   2.464  1.00  0.00     0.014 C 
BRANCH  33  34
HETATM   34  C   UNL     1      41.879 -17.516   2.530  1.00  0.00    -0.036 A 
HETATM   35  C   UNL     1      42.282 -18.018   3.773  1.00  0.00     0.011 A 
HETATM   36  C   UNL     1      43.410 -18.833   3.874  1.00  0.00     0.001 A 
HETATM   37  C   UNL     1      44.138 -19.157   2.730  1.00  0.00     0.000 A 
HETATM   38  C   UNL     1      43.738 -18.669   1.486  1.00  0.00     0.001 A 
HETATM   39  C   UNL     1      42.611 -17.848   1.385  1.00  0.00     0.011 A 
ENDBRANCH  33  34
ENDBRANCH   8  32
TORSDOF 11
ENDMDL
MODEL 8
REMARK VINA RESULT:      -7.1      4.075      5.376
REMARK  11 active torsions:
REMARK  status: ('A' for Active; 'I' for Inactive)
REMARK    1  A    between atoms: C_2  and  O_3 
REMARK    2  A    between atoms: O_3  and  C_4 
REMARK    3  A    between atoms: C_5  and  O_6 
REMARK    4  A    between atoms: C_9  and  C_10 
REMARK    5  A    between atoms: N_11  and  C_12 
REMARK    6  A    between atoms: C_12  and  C_13 
REMARK    7  A    between atoms: C_13  and  C_14 
REMARK    8  A    between atoms: C_14  and  N_15 
REMARK    9  A    between atoms: C_27  and  O_28 
REMARK   10  A    between atoms: C_27  and  C_29 
REMARK   11  A    between atoms: C_30  and  C_31 
ROOT
HETATM    1  C   UNL     1      39.226 -13.729   0.212  1.00  0.00     0.161 C 
HETATM    2  N   UNL     1      38.071 -13.036  -0.367  1.00  0.00    -0.332 N 
HETATM    3  C   UNL     1      38.268 -12.649  -1.672  1.00  0.00     0.295 C 
HETATM    4  O   UNL     1      37.485 -12.027  -2.366  1.00  0.00    -0.264 OA
HETATM    5  C   UNL     1      40.129 -13.999  -0.965  1.00  0.00     0.058 C 
HETATM    6  C   UNL     1      39.653 -13.154  -2.080  1.00  0.00     0.250 C 
HETATM    7  O   UNL     1      40.220 -12.918  -3.123  1.00  0.00    -0.282 OA
HETATM    8  C   UNL     1      41.051 -14.953  -1.164  1.00  0.00     0.078 C 
ENDROOT
BRANCH   1   9
HETATM    9  C   UNL     1      39.872 -12.876   1.294  1.00  0.00    -0.028 A 
HETATM   10  C   UNL     1      40.204 -11.540   1.010  1.00  0.00     0.012 A 
HETATM   11  C   UNL     1      40.824 -10.742   1.971  1.00  0.00     0.040 A 
HETATM   12  C   UNL     1      41.133 -11.281   3.211  1.00  0.00     0.099 A 
HETATM   13  C   UNL     1      40.829 -12.605   3.528  1.00  0.00     0.102 A 
HETATM   14  C   UNL     1      40.171 -13.391   2.578  1.00  0.00     0.049 A 
BRANCH  12  15
HETATM   15  O   UNL     1      41.759 -10.476   4.122  1.00  0.00    -0.358 OA
HETATM   16  H   UNL     1      42.287  -9.840   3.601  1.00  0.00     0.218 HD
ENDBRANCH  12  15
BRANCH  13  17
HETATM   17  O   UNL     1      41.223 -13.009   4.776  1.00  0.00    -0.349 OA
BRANCH  17  18
HETATM   18  C   UNL     1      41.989 -14.208   4.864  1.00  0.00     0.171 C 
HETATM   19  C   UNL     1      43.404 -13.902   4.408  1.00  0.00     0.034 C 
ENDBRANCH  17  18
ENDBRANCH  13  17
ENDBRANCH   1   9
BRANCH   2  20
HETATM   20  C   UNL     1      36.792 -12.940   0.317  1.00  0.00     0.129 C 
BRANCH  20  21
HETATM   21  C   UNL     1      36.427 -11.543   0.824  1.00  0.00     0.048 C 
BRANCH  21  22
HETATM   22  C   UNL     1      34.987 -11.068   0.615  1.00  0.00     0.236 C 
BRANCH  22  23
HETATM   23  N   UNL     1      34.294 -10.601   1.865  1.00  0.00    -0.067 N 
HETATM   24  H   UNL     1      34.479 -11.308   2.606  1.00  0.00     0.280 HD
HETATM   25  C   UNL     1      34.717  -9.230   2.364  1.00  0.00     0.261 C 
HETATM   26  C   UNL     1      33.940  -8.875   3.638  1.00  0.00     0.195 C 
HETATM   27  O   UNL     1      32.527  -8.918   3.407  1.00  0.00    -0.388 OA
HETATM   28  C   UNL     1      32.102 -10.229   3.019  1.00  0.00     0.195 C 
HETATM   29  C   UNL     1      32.770 -10.646   1.705  1.00  0.00     0.261 C 
ENDBRANCH  22  23
ENDBRANCH  21  22
ENDBRANCH  20  21
ENDBRANCH   2  20
BRANCH   8  30
HETATM   30  O   UNL     1      41.731 -15.104  -2.358  1.00  0.00    -0.360 OA
HETATM   31  H   UNL     1      42.698 -15.067  -2.210  1.00  0.00     0.217 HD
ENDBRANCH   8  30
BRANCH   8  32
HETATM   32  C   UNL     1      41.371 -15.965  -0.174  1.00  0.00     0.038 C 
HETATM   33  C   UNL     1      42.296 -15.822   0.789  1.00  0.00     0.014 C 
BRANCH  33  34
HETATM   34  C   UNL     1      42.681 -16.942   1.651  1.00  0.00    -0.036 A 
HETATM   35  C   UNL     1      42.000 -17.133   2.858  1.00  0.00     0.011 A 
HETATM   36  C   UNL     1      42.360 -18.175   3.715  1.00  0.00     0.001 A 
HETATM   37  C   UNL     1      43.397 -19.037   3.363  1.00  0.00     0.000 A 
HETATM   38  C   UNL     1      44.074 -18.859   2.156  1.00  0.00     0.001 A 
HETATM   39  C   UNL     1      43.718 -17.813   1.301  1.00  0.00     0.011 A 
ENDBRANCH  33  34
ENDBRANCH   8  32
TORSDOF 11
ENDMDL
MODEL 9
REMARK VINA RESULT:      -7.0      3.329      7.533
REMARK  11 active torsions:
REMARK  status: ('A' for Active; 'I' for Inactive)
REMARK    1  A    between atoms: C_2  and  O_3 
REMARK    2  A    between atoms: O_3  and  C_4 
REMARK    3  A    between atoms: C_5  and  O_6 
REMARK    4  A    between atoms: C_9  and  C_10 
REMARK    5  A    between atoms: N_11  and  C_12 
REMARK    6  A    between atoms: C_12  and  C_13 
REMARK    7  A    between atoms: C_13  and  C_14 
REMARK    8  A    between atoms: C_14  and  N_15 
REMARK    9  A    between atoms: C_27  and  O_28 
REMARK   10  A    between atoms: C_27  and  C_29 
REMARK   11  A    between atoms: C_30  and  C_31 
ROOT
HETATM    1  C   UNL     1      41.941 -13.828   1.427  1.00  0.00     0.161 C 
HETATM    2  N   UNL     1      42.680 -14.546   2.470  1.00  0.00    -0.332 N 
HETATM    3  C   UNL     1      42.500 -15.909   2.423  1.00  0.00     0.295 C 
HETATM    4  O   UNL     1      42.968 -16.725   3.194  1.00  0.00    -0.264 OA
HETATM    5  C   UNL     1      41.453 -14.912   0.500  1.00  0.00     0.058 C 
HETATM    6  C   UNL     1      41.604 -16.196   1.216  1.00  0.00     0.250 C 
HETATM    7  O   UNL     1      41.142 -17.272   0.911  1.00  0.00    -0.282 OA
HETATM    8  C   UNL     1      41.147 -14.880  -0.806  1.00  0.00     0.078 C 
ENDROOT
BRANCH   1   9
HETATM    9  C   UNL     1      40.822 -12.999   2.040  1.00  0.00    -0.028 A 
HETATM   10  C   UNL     1      40.352 -11.865   1.356  1.00  0.00     0.012 A 
HETATM   11  C   UNL     1      39.349 -11.068   1.905  1.00  0.00     0.040 A 
HETATM   12  C   UNL     1      38.824 -11.390   3.149  1.00  0.00     0.099 A 
HETATM   13  C   UNL     1      39.271 -12.501   3.864  1.00  0.00     0.102 A 
HETATM   14  C   UNL     1      40.248 -13.322   3.293  1.00  0.00     0.049 A 
BRANCH  12  15
HETATM   15  O   UNL     1      37.856 -10.576   3.667  1.00  0.00    -0.358 OA
HETATM   16  H   UNL     1      37.212 -10.433   2.947  1.00  0.00     0.218 HD
ENDBRANCH  12  15
BRANCH  13  17
HETATM   17  O   UNL     1      38.687 -12.676   5.091  1.00  0.00    -0.349 OA
BRANCH  17  18
HETATM   18  C   UNL     1      39.553 -12.911   6.199  1.00  0.00     0.171 C 
HETATM   19  C   UNL     1      39.770 -11.592   6.919  1.00  0.00     0.034 C 
ENDBRANCH  17  18
ENDBRANCH  13  17
ENDBRANCH   1   9
BRANCH   2  20
HETATM   20  C   UNL     1      43.646 -13.891   3.337  1.00  0.00     0.129 C 
BRANCH  20  21
HETATM   21  C   UNL     1      43.100 -13.432   4.691  1.00  0.00     0.048 C 
BRANCH  21  22
HETATM   22  C   UNL     1      43.674 -14.091   5.947  1.00  0.00     0.236 C 
BRANCH  22  23
HETATM   23  N   UNL     1      43.473 -15.579   6.020  1.00  0.00    -0.067 N 
HETATM   24  H   UNL     1      43.517 -15.948   5.048  1.00  0.00     0.280 HD
HETATM   25  C   UNL     1      44.477 -16.324   6.884  1.00  0.00     0.261 C 
HETATM   26  C   UNL     1      44.162 -17.825   6.874  1.00  0.00     0.195 C 
HETATM   27  O   UNL     1      42.825 -18.073   7.321  1.00  0.00    -0.388 OA
HETATM   28  C   UNL     1      41.863 -17.447   6.464  1.00  0.00     0.195 C 
HETATM   29  C   UNL     1      42.049 -15.926   6.467  1.00  0.00     0.261 C 
ENDBRANCH  22  23
ENDBRANCH  21  22
ENDBRANCH  20  21
ENDBRANCH   2  20
BRANCH   8  30
HETATM   30  O   UNL     1      40.795 -16.008  -1.524  1.00  0.00    -0.360 OA
HETATM   31  H   UNL     1      40.120 -16.526  -1.040  1.00  0.00     0.217 HD
ENDBRANCH   8  30
BRANCH   8  32
HETATM   32  C   UNL     1      41.228 -13.673  -1.609  1.00  0.00     0.038 C 
HETATM   33  C   UNL     1      42.373 -13.128  -2.048  1.00  0.00     0.014 C 
BRANCH  33  34
HETATM   34  C   UNL     1      42.392 -11.823  -2.713  1.00  0.00    -0.036 A 
HETATM   35  C   UNL     1      42.164 -11.761  -4.092  1.00  0.00     0.011 A 
HETATM   36  C   UNL     1      42.200 -10.536  -4.760  1.00  0.00     0.001 A 
HETATM   37  C   UNL     1      42.458  -9.365  -4.051  1.00  0.00     0.000 A 
HETATM   38  C   UNL     1      42.677  -9.417  -2.674  1.00  0.00     0.001 A 
HETATM   39  C   UNL     1      42.645 -10.643  -2.005  1.00  0.00     0.011 A 
ENDBRANCH  33  34
ENDBRANCH   8  32
TORSDOF 11
ENDMDL
MODEL 10
REMARK VINA RESULT:      -6.9      4.270      9.684
REMARK  11 active torsions:
REMARK  status: ('A' for Active; 'I' for Inactive)
REMARK    1  A    between atoms: C_2  and  O_3 
REMARK    2  A    between atoms: O_3  and  C_4 
REMARK    3  A    between atoms: C_5  and  O_6 
REMARK    4  A    between atoms: C_9  and  C_10 
REMARK    5  A    between atoms: N_11  and  C_12 
REMARK    6  A    between atoms: C_12  and  C_13 
REMARK    7  A    between atoms: C_13  and  C_14 
REMARK    8  A    between atoms: C_14  and  N_15 
REMARK    9  A    between atoms: C_27  and  O_28 
REMARK   10  A    between atoms: C_27  and  C_29 
REMARK   11  A    between atoms: C_30  and  C_31 
ROOT
HETATM    1  C   UNL     1      39.193 -14.139   0.968  1.00  0.00     0.161 C 
HETATM    2  N   UNL     1      39.754 -14.999   2.014  1.00  0.00    -0.332 N 
HETATM    3  C   UNL     1      39.878 -14.366   3.229  1.00  0.00     0.295 C 
HETATM    4  O   UNL     1      40.348 -14.841   4.245  1.00  0.00    -0.264 OA
HETATM    5  C   UNL     1      38.700 -12.921   1.708  1.00  0.00     0.058 C 
HETATM    6  C   UNL     1      39.308 -12.957   3.055  1.00  0.00     0.250 C 
HETATM    7  O   UNL     1      39.336 -12.069   3.877  1.00  0.00    -0.282 OA
HETATM    8  C   UNL     1      37.729 -12.044   1.410  1.00  0.00     0.078 C 
ENDROOT
BRANCH   1   9
HETATM    9  C   UNL     1      40.244 -13.828  -0.088  1.00  0.00    -0.028 A 
HETATM   10  C   UNL     1      40.261 -14.571  -1.281  1.00  0.00     0.012 A 
HETATM   11  C   UNL     1      41.229 -14.330  -2.255  1.00  0.00     0.040 A 
HETATM   12  C   UNL     1      42.195 -13.360  -2.033  1.00  0.00     0.099 A 
HETATM   13  C   UNL     1      42.218 -12.608  -0.857  1.00  0.00     0.102 A 
HETATM   14  C   UNL     1      41.223 -12.823   0.099  1.00  0.00     0.049 A 
BRANCH  12  15
HETATM   15  O   UNL     1      43.142 -13.163  -3.000  1.00  0.00    -0.358 OA
HETATM   16  H   UNL     1      42.994 -12.260  -3.340  1.00  0.00     0.218 HD
ENDBRANCH  12  15
BRANCH  13  17
HETATM   17  O   UNL     1      43.249 -11.711  -0.762  1.00  0.00    -0.349 OA
BRANCH  17  18
HETATM   18  C   UNL     1      42.907 -10.331  -0.656  1.00  0.00     0.171 C 
HETATM   19  C   UNL     1      42.947  -9.724  -2.047  1.00  0.00     0.034 C 
ENDBRANCH  17  18
ENDBRANCH  13  17
ENDBRANCH   1   9
BRANCH   2  20
HETATM   20  C   UNL     1      39.977 -16.422   1.822  1.00  0.00     0.129 C 
BRANCH  20  21
HETATM   21  C   UNL     1      41.404 -16.811   1.426  1.00  0.00     0.048 C 
BRANCH  21  22
HETATM   22  C   UNL     1      42.461 -16.846   2.531  1.00  0.00     0.236 C 
BRANCH  22  23
HETATM   23  N   UNL     1      42.906 -18.226   2.928  1.00  0.00    -0.067 N 
HETATM   24  H   UNL     1      42.091 -18.702   3.367  1.00  0.00     0.280 HD
HETATM   25  C   UNL     1      43.436 -19.084   1.793  1.00  0.00     0.261 C 
HETATM   26  C   UNL     1      43.855 -20.460   2.328  1.00  0.00     0.195 C 
HETATM   27  O   UNL     1      44.831 -20.332   3.367  1.00  0.00    -0.388 OA
HETATM   28  C   UNL     1      44.314 -19.597   4.482  1.00  0.00     0.195 C 
HETATM   29  C   UNL     1      43.937 -18.173   4.061  1.00  0.00     0.261 C 
ENDBRANCH  22  23
ENDBRANCH  21  22
ENDBRANCH  20  21
ENDBRANCH   2  20
BRANCH   8  30
HETATM   30  O   UNL     1      37.349 -11.025   2.262  1.00  0.00    -0.360 OA
HETATM   31  H   UNL     1      36.389 -11.073   2.448  1.00  0.00     0.217 HD
ENDBRANCH   8  30
BRANCH   8  32
HETATM   32  C   UNL     1      36.933 -12.126   0.199  1.00  0.00     0.038 C 
HETATM   33  C   UNL     1      37.317 -11.654  -0.998  1.00  0.00     0.014 C 
BRANCH  33  34
HETATM   34  C   UNL     1      36.398 -11.624  -2.138  1.00  0.00    -0.036 A 
HETATM   35  C   UNL     1      36.741 -12.320  -3.303  1.00  0.00     0.011 A 
HETATM   36  C   UNL     1      35.899 -12.290  -4.416  1.00  0.00     0.001 A 
HETATM   37  C   UNL     1      34.707 -11.570  -4.368  1.00  0.00     0.000 A 
HETATM   38  C   UNL     1      34.354 -10.881  -3.206  1.00  0.00     0.001 A 
HETATM   39  C   UNL     1      35.198 -10.907  -2.093  1.00  0.00     0.011 A 
ENDBRANCH  33  34
ENDBRANCH   8  32
TORSDOF 11
ENDMDL
