MODEL 1
REMARK VINA RESULT:      -8.1      0.000      0.000
REMARK  5 active torsions:
REMARK  status: ('A' for Active; 'I' for Inactive)
REMARK    1  A    between atoms: O_2  and  C_3 
REMARK    2  A    between atoms: C_7  and  C_8 
REMARK    3  A    between atoms: C_8  and  N_9 
REMARK       I    between atoms: N_9  and  C_10 
REMARK    4  A    between atoms: C_10  and  C_11 
REMARK    5  A    between atoms: C_13  and  C_14 
ROOT
HETATM    1  N   UNL     1      41.232 -16.423   3.390  1.00  0.00    -0.353 N 
HETATM    2  C   UNL     1      42.356 -16.082   4.106  1.00  0.00     0.251 C 
HETATM    3  O   UNL     1      42.673 -14.924   4.354  1.00  0.00    -0.268 OA
HETATM    4  H   UNL     1      41.030 -17.386   3.168  1.00  0.00     0.163 HD
ENDROOT
BRANCH   2   5
HETATM    5  C   UNL     1      43.228 -17.203   4.554  1.00  0.00     0.032 A 
HETATM    6  C   UNL     1      43.319 -18.335   3.733  1.00  0.00     0.029 A 
HETATM    7  C   UNL     1      44.131 -19.419   4.094  1.00  0.00    -0.023 A 
HETATM    8  C   UNL     1      44.857 -19.347   5.291  1.00  0.00     0.012 A 
HETATM    9  C   UNL     1      44.781 -18.214   6.105  1.00  0.00     0.002 A 
HETATM   10  C   UNL     1      43.970 -17.139   5.739  1.00  0.00     0.017 A 
BRANCH   7  11
HETATM   11  C   UNL     1      44.201 -20.592   3.236  1.00  0.00    -0.002 A 
HETATM   12  C   UNL     1      44.679 -21.826   3.631  1.00  0.00     0.153 A 
HETATM   13  O   UNL     1      44.627 -22.717   2.607  1.00  0.00    -0.334 OA
HETATM   14  C   UNL     1      44.120 -22.056   1.537  1.00  0.00     0.142 A 
HETATM   15  C   UNL     1      43.846 -20.749   1.866  1.00  0.00     0.038 A 
ENDBRANCH   7  11
ENDBRANCH   2   5
BRANCH   1  16
HETATM   16  C   UNL     1      40.304 -15.413   2.935  1.00  0.00     0.161 C 
BRANCH  16  17
HETATM   17  C   UNL     1      40.384 -15.229   1.442  1.00  0.00    -0.037 A 
HETATM   18  C   UNL     1      39.658 -14.219   0.799  1.00  0.00     0.054 A 
HETATM   19  C   UNL     1      39.763 -14.041  -0.582  1.00  0.00     0.150 A 
HETATM   20  C   UNL     1      40.589 -14.861  -1.354  1.00  0.00     0.106 A 
HETATM   21  F   UNL     1      39.039 -13.056  -1.133  1.00  0.00    -0.203 F 
HETATM   22  C   UNL     1      41.307 -15.876  -0.714  1.00  0.00     0.040 A 
HETATM   23  C   UNL     1      41.211 -16.056   0.670  1.00  0.00     0.012 A 
BRANCH  20  24
HETATM   24  O   UNL     1      40.793 -14.799  -2.705  1.00  0.00    -0.353 OA
HETATM   25  C   UNL     1      39.774 -15.339  -3.537  1.00  0.00     0.210 C 
ENDBRANCH  20  24
ENDBRANCH  16  17
ENDBRANCH   1  16
TORSDOF 5
ENDMDL
MODEL 2
REMARK VINA RESULT:      -8.0      1.394      1.687
REMARK  5 active torsions:
REMARK  status: ('A' for Active; 'I' for Inactive)
REMARK    1  A    between atoms: O_2  and  C_3 
REMARK    2  A    between atoms: C_7  and  C_8 
REMARK    3  A    between atoms: C_8  and  N_9 
REMARK       I    between atoms: N_9  and  C_10 
REMARK    4  A    between atoms: C_10  and  C_11 
REMARK    5  A    between atoms: C_13  and  C_14 
ROOT
HETATM    1  N   UNL     1      41.540 -16.218   3.705  1.00  0.00    -0.353 N 
HETATM    2  C   UNL     1      42.752 -16.008   4.322  1.00  0.00     0.251 C 
HETATM    3  O   UNL     1      43.241 -14.896   4.485  1.00  0.00    -0.268 OA
HETATM    4  H   UNL     1      41.192 -17.153   3.550  1.00  0.00     0.163 HD
ENDROOT
BRANCH   2   5
HETATM    5  C   UNL     1      43.495 -17.219   4.767  1.00  0.00     0.032 A 
HETATM    6  C   UNL     1      43.542 -18.318   3.898  1.00  0.00     0.029 A 
HETATM    7  C   UNL     1      44.235 -19.484   4.254  1.00  0.00    -0.023 A 
HETATM    8  C   UNL     1      44.885 -19.528   5.495  1.00  0.00     0.012 A 
HETATM    9  C   UNL     1      44.854 -18.428   6.357  1.00  0.00     0.002 A 
HETATM   10  C   UNL     1      44.162 -17.272   5.996  1.00  0.00     0.017 A 
BRANCH   7  11
HETATM   11  C   UNL     1      44.259 -20.620   3.346  1.00  0.00    -0.002 A 
HETATM   12  C   UNL     1      44.701 -21.885   3.683  1.00  0.00     0.153 A 
HETATM   13  O   UNL     1      44.612 -22.728   2.621  1.00  0.00    -0.334 OA
HETATM   14  C   UNL     1      44.118 -22.005   1.586  1.00  0.00     0.142 A 
HETATM   15  C   UNL     1      43.889 -20.706   1.974  1.00  0.00     0.038 A 
ENDBRANCH   7  11
ENDBRANCH   2   5
BRANCH   1  16
HETATM   16  C   UNL     1      40.725 -15.109   3.264  1.00  0.00     0.161 C 
BRANCH  16  17
HETATM   17  C   UNL     1      41.077 -14.699   1.857  1.00  0.00    -0.037 A 
HETATM   18  C   UNL     1      40.921 -15.588   0.786  1.00  0.00     0.054 A 
HETATM   19  C   UNL     1      41.224 -15.187  -0.516  1.00  0.00     0.150 A 
HETATM   20  C   UNL     1      41.686 -13.897  -0.785  1.00  0.00     0.106 A 
HETATM   21  F   UNL     1      41.053 -16.089  -1.494  1.00  0.00    -0.203 F 
HETATM   22  C   UNL     1      41.851 -13.012   0.286  1.00  0.00     0.040 A 
HETATM   23  C   UNL     1      41.545 -13.405   1.592  1.00  0.00     0.012 A 
BRANCH  20  24
HETATM   24  O   UNL     1      42.014 -13.369  -2.003  1.00  0.00    -0.353 OA
HETATM   25  C   UNL     1      42.730 -12.140  -2.002  1.00  0.00     0.210 C 
ENDBRANCH  20  24
ENDBRANCH  16  17
ENDBRANCH   1  16
TORSDOF 5
ENDMDL
MODEL 3
REMARK VINA RESULT:      -7.9      1.670      1.984
REMARK  5 active torsions:
REMARK  status: ('A' for Active; 'I' for Inactive)
REMARK    1  A    between atoms: O_2  and  C_3 
REMARK    2  A    between atoms: C_7  and  C_8 
REMARK    3  A    between atoms: C_8  and  N_9 
REMARK       I    between atoms: N_9  and  C_10 
REMARK    4  A    between atoms: C_10  and  C_11 
REMARK    5  A    between atoms: C_13  and  C_14 
ROOT
HETATM    1  N   UNL     1      42.337 -14.606   2.078  1.00  0.00    -0.353 N 
HETATM    2  C   UNL     1      43.251 -14.576   3.106  1.00  0.00     0.251 C 
HETATM    3  O   UNL     1      43.968 -13.611   3.344  1.00  0.00    -0.268 OA
HETATM    4  H   UNL     1      41.798 -15.437   1.887  1.00  0.00     0.163 HD
ENDROOT
BRANCH   2   5
HETATM    5  C   UNL     1      43.375 -15.812   3.927  1.00  0.00     0.032 A 
HETATM    6  C   UNL     1      43.552 -17.032   3.257  1.00  0.00     0.029 A 
HETATM    7  C   UNL     1      43.686 -18.230   3.973  1.00  0.00    -0.023 A 
HETATM    8  C   UNL     1      43.644 -18.185   5.373  1.00  0.00     0.012 A 
HETATM    9  C   UNL     1      43.484 -16.970   6.045  1.00  0.00     0.002 A 
HETATM   10  C   UNL     1      43.351 -15.782   5.325  1.00  0.00     0.017 A 
BRANCH   7  11
HETATM   11  C   UNL     1      43.853 -19.487   3.261  1.00  0.00    -0.002 A 
HETATM   12  C   UNL     1      44.658 -20.527   3.682  1.00  0.00     0.153 A 
HETATM   13  O   UNL     1      44.615 -21.561   2.802  1.00  0.00    -0.334 OA
HETATM   14  C   UNL     1      43.785 -21.187   1.798  1.00  0.00     0.142 A 
HETATM   15  C   UNL     1      43.294 -19.923   2.026  1.00  0.00     0.038 A 
ENDBRANCH   7  11
ENDBRANCH   2   5
BRANCH   1  16
HETATM   16  C   UNL     1      42.118 -13.448   1.241  1.00  0.00     0.161 C 
BRANCH  16  17
HETATM   17  C   UNL     1      41.729 -13.850  -0.157  1.00  0.00    -0.037 A 
HETATM   18  C   UNL     1      42.045 -13.041  -1.255  1.00  0.00     0.054 A 
HETATM   19  C   UNL     1      41.703 -13.437  -2.549  1.00  0.00     0.150 A 
HETATM   20  C   UNL     1      41.041 -14.644  -2.782  1.00  0.00     0.106 A 
HETATM   21  F   UNL     1      42.035 -12.614  -3.554  1.00  0.00    -0.203 F 
HETATM   22  C   UNL     1      40.716 -15.448  -1.685  1.00  0.00     0.040 A 
HETATM   23  C   UNL     1      41.060 -15.060  -0.386  1.00  0.00     0.012 A 
BRANCH  20  24
HETATM   24  O   UNL     1      40.652 -15.160  -3.988  1.00  0.00    -0.353 OA
HETATM   25  C   UNL     1      39.425 -15.878  -4.017  1.00  0.00     0.210 C 
ENDBRANCH  20  24
ENDBRANCH  16  17
ENDBRANCH   1  16
TORSDOF 5
ENDMDL
MODEL 4
REMARK VINA RESULT:      -7.7      6.698      9.157
REMARK  5 active torsions:
REMARK  status: ('A' for Active; 'I' for Inactive)
REMARK    1  A    between atoms: O_2  and  C_3 
REMARK    2  A    between atoms: C_7  and  C_8 
REMARK    3  A    between atoms: C_8  and  N_9 
REMARK       I    between atoms: N_9  and  C_10 
REMARK    4  A    between atoms: C_10  and  C_11 
REMARK    5  A    between atoms: C_13  and  C_14 
ROOT
HETATM    1  N   UNL     1      44.344 -13.125   8.496  1.00  0.00    -0.353 N 
HETATM    2  C   UNL     1      44.927 -13.626   7.355  1.00  0.00     0.251 C 
HETATM    3  O   UNL     1      46.064 -13.340   6.997  1.00  0.00    -0.268 OA
HETATM    4  H   UNL     1      43.389 -13.350   8.733  1.00  0.00     0.163 HD
ENDROOT
BRANCH   2   5
HETATM    5  C   UNL     1      44.092 -14.532   6.519  1.00  0.00     0.032 A 
HETATM    6  C   UNL     1      44.329 -15.911   6.603  1.00  0.00     0.029 A 
HETATM    7  C   UNL     1      43.569 -16.817   5.850  1.00  0.00    -0.023 A 
HETATM    8  C   UNL     1      42.562 -16.316   5.013  1.00  0.00     0.012 A 
HETATM    9  C   UNL     1      42.312 -14.943   4.938  1.00  0.00     0.002 A 
HETATM   10  C   UNL     1      43.073 -14.049   5.691  1.00  0.00     0.017 A 
BRANCH   7  11
HETATM   11  C   UNL     1      43.840 -18.243   5.940  1.00  0.00    -0.002 A 
HETATM   12  C   UNL     1      43.598 -19.020   7.056  1.00  0.00     0.153 A 
HETATM   13  O   UNL     1      43.963 -20.310   6.837  1.00  0.00    -0.334 OA
HETATM   14  C   UNL     1      44.454 -20.370   5.575  1.00  0.00     0.142 A 
HETATM   15  C   UNL     1      44.405 -19.131   4.981  1.00  0.00     0.038 A 
ENDBRANCH   7  11
ENDBRANCH   2   5
BRANCH   1  16
HETATM   16  C   UNL     1      45.079 -12.262   9.392  1.00  0.00     0.161 C 
BRANCH  16  17
HETATM   17  C   UNL     1      44.158 -11.320  10.123  1.00  0.00    -0.037 A 
HETATM   18  C   UNL     1      44.432 -10.915  11.435  1.00  0.00     0.054 A 
HETATM   19  C   UNL     1      43.586 -10.020  12.092  1.00  0.00     0.150 A 
HETATM   20  C   UNL     1      42.450  -9.507  11.461  1.00  0.00     0.106 A 
HETATM   21  F   UNL     1      43.907  -9.676  13.347  1.00  0.00    -0.203 F 
HETATM   22  C   UNL     1      42.171  -9.918  10.154  1.00  0.00     0.040 A 
HETATM   23  C   UNL     1      43.017 -10.811   9.489  1.00  0.00     0.012 A 
BRANCH  20  24
HETATM   24  O   UNL     1      41.541  -8.625  11.976  1.00  0.00    -0.353 OA
HETATM   25  C   UNL     1      41.070  -7.602  11.108  1.00  0.00     0.210 C 
ENDBRANCH  20  24
ENDBRANCH  16  17
ENDBRANCH   1  16
TORSDOF 5
ENDMDL
MODEL 5
REMARK VINA RESULT:      -7.7      5.430      8.166
REMARK  5 active torsions:
REMARK  status: ('A' for Active; 'I' for Inactive)
REMARK    1  A    between atoms: O_2  and  C_3 
REMARK    2  A    between atoms: C_7  and  C_8 
REMARK    3  A    between atoms: C_8  and  N_9 
REMARK       I    between atoms: N_9  and  C_10 
REMARK    4  A    between atoms: C_10  and  C_11 
REMARK    5  A    between atoms: C_13  and  C_14 
ROOT
HETATM    1  N   UNL     1      44.227 -14.242   7.509  1.00  0.00    -0.353 N 
HETATM    2  C   UNL     1      43.894 -14.395   6.182  1.00  0.00     0.251 C 
HETATM    3  O   UNL     1      44.263 -13.627   5.301  1.00  0.00    -0.268 OA
HETATM    4  H   UNL     1      43.865 -14.871   8.210  1.00  0.00     0.163 HD
ENDROOT
BRANCH   2   5
HETATM    5  C   UNL     1      43.008 -15.542   5.843  1.00  0.00     0.032 A 
HETATM    6  C   UNL     1      43.532 -16.563   5.038  1.00  0.00     0.029 A 
HETATM    7  C   UNL     1      42.753 -17.676   4.692  1.00  0.00    -0.023 A 
HETATM    8  C   UNL     1      41.438 -17.751   5.171  1.00  0.00     0.012 A 
HETATM    9  C   UNL     1      40.916 -16.743   5.987  1.00  0.00     0.002 A 
HETATM   10  C   UNL     1      41.699 -15.639   6.326  1.00  0.00     0.017 A 
BRANCH   7  11
HETATM   11  C   UNL     1      43.309 -18.718   3.843  1.00  0.00    -0.002 A 
HETATM   12  C   UNL     1      42.929 -18.952   2.536  1.00  0.00     0.153 A 
HETATM   13  O   UNL     1      43.620 -19.997   2.010  1.00  0.00    -0.334 OA
HETATM   14  C   UNL     1      44.448 -20.451   2.984  1.00  0.00     0.142 A 
HETATM   15  C   UNL     1      44.294 -19.705   4.129  1.00  0.00     0.038 A 
ENDBRANCH   7  11
ENDBRANCH   2   5
BRANCH   1  16
HETATM   16  C   UNL     1      45.106 -13.179   7.939  1.00  0.00     0.161 C 
BRANCH  16  17
HETATM   17  C   UNL     1      44.424 -12.275   8.932  1.00  0.00    -0.037 A 
HETATM   18  C   UNL     1      43.374 -11.435   8.541  1.00  0.00     0.054 A 
HETATM   19  C   UNL     1      42.731 -10.622   9.477  1.00  0.00     0.150 A 
HETATM   20  C   UNL     1      43.116 -10.624  10.819  1.00  0.00     0.106 A 
HETATM   21  F   UNL     1      41.734  -9.842   9.034  1.00  0.00    -0.203 F 
HETATM   22  C   UNL     1      44.172 -11.455  11.208  1.00  0.00     0.040 A 
HETATM   23  C   UNL     1      44.816 -12.276  10.278  1.00  0.00     0.012 A 
BRANCH  20  24
HETATM   24  O   UNL     1      42.577  -9.890  11.839  1.00  0.00    -0.353 OA
HETATM   25  C   UNL     1      42.329 -10.570  13.064  1.00  0.00     0.210 C 
ENDBRANCH  20  24
ENDBRANCH  16  17
ENDBRANCH   1  16
TORSDOF 5
ENDMDL
MODEL 6
REMARK VINA RESULT:      -7.6      3.459      4.438
REMARK  5 active torsions:
REMARK  status: ('A' for Active; 'I' for Inactive)
REMARK    1  A    between atoms: O_2  and  C_3 
REMARK    2  A    between atoms: C_7  and  C_8 
REMARK    3  A    between atoms: C_8  and  N_9 
REMARK       I    between atoms: N_9  and  C_10 
REMARK    4  A    between atoms: C_10  and  C_11 
REMARK    5  A    between atoms: C_13  and  C_14 
ROOT
HETATM    1  N   UNL     1      41.332 -16.139   4.826  1.00  0.00    -0.353 N 
HETATM    2  C   UNL     1      42.695 -16.293   4.725  1.00  0.00     0.251 C 
HETATM    3  O   UNL     1      43.492 -15.767   5.494  1.00  0.00    -0.268 OA
HETATM    4  H   UNL     1      40.712 -16.552   4.145  1.00  0.00     0.163 HD
ENDROOT
BRANCH   2   5
HETATM    5  C   UNL     1      43.194 -17.115   3.588  1.00  0.00     0.032 A 
HETATM    6  C   UNL     1      43.503 -18.460   3.835  1.00  0.00     0.029 A 
HETATM    7  C   UNL     1      43.966 -19.290   2.804  1.00  0.00    -0.023 A 
HETATM    8  C   UNL     1      44.110 -18.750   1.519  1.00  0.00     0.012 A 
HETATM    9  C   UNL     1      43.789 -17.413   1.265  1.00  0.00     0.002 A 
HETATM   10  C   UNL     1      43.328 -16.594   2.297  1.00  0.00     0.017 A 
BRANCH   7  11
HETATM   11  C   UNL     1      44.296 -20.679   3.083  1.00  0.00    -0.002 A 
HETATM   12  C   UNL     1      44.284 -21.692   2.144  1.00  0.00     0.153 A 
HETATM   13  O   UNL     1      44.627 -22.880   2.708  1.00  0.00    -0.334 OA
HETATM   14  C   UNL     1      44.855 -22.639   4.023  1.00  0.00     0.142 A 
HETATM   15  C   UNL     1      44.661 -21.308   4.307  1.00  0.00     0.038 A 
ENDBRANCH   7  11
ENDBRANCH   2   5
BRANCH   1  16
HETATM   16  C   UNL     1      40.744 -15.386   5.910  1.00  0.00     0.161 C 
BRANCH  16  17
HETATM   17  C   UNL     1      40.150 -14.092   5.417  1.00  0.00    -0.037 A 
HETATM   18  C   UNL     1      39.902 -13.031   6.297  1.00  0.00     0.054 A 
HETATM   19  C   UNL     1      39.376 -11.827   5.823  1.00  0.00     0.150 A 
HETATM   20  C   UNL     1      39.087 -11.650   4.469  1.00  0.00     0.106 A 
HETATM   21  F   UNL     1      39.162 -10.854   6.720  1.00  0.00    -0.203 F 
HETATM   22  C   UNL     1      39.326 -12.713   3.592  1.00  0.00     0.040 A 
HETATM   23  C   UNL     1      39.857 -13.920   4.058  1.00  0.00     0.012 A 
BRANCH  20  24
HETATM   24  O   UNL     1      38.579 -10.532   3.867  1.00  0.00    -0.353 OA
HETATM   25  C   UNL     1      38.055 -10.686   2.554  1.00  0.00     0.210 C 
ENDBRANCH  20  24
ENDBRANCH  16  17
ENDBRANCH   1  16
TORSDOF 5
ENDMDL
MODEL 7
REMARK VINA RESULT:      -7.6      6.375      8.879
REMARK  5 active torsions:
REMARK  status: ('A' for Active; 'I' for Inactive)
REMARK    1  A    between atoms: O_2  and  C_3 
REMARK    2  A    between atoms: C_7  and  C_8 
REMARK    3  A    between atoms: C_8  and  N_9 
REMARK       I    between atoms: N_9  and  C_10 
REMARK    4  A    between atoms: C_10  and  C_11 
REMARK    5  A    between atoms: C_13  and  C_14 
ROOT
HETATM    1  N   UNL     1      44.435 -13.512   8.331  1.00  0.00    -0.353 N 
HETATM    2  C   UNL     1      44.727 -14.108   7.126  1.00  0.00     0.251 C 
HETATM    3  O   UNL     1      45.527 -13.646   6.321  1.00  0.00    -0.268 OA
HETATM    4  H   UNL     1      43.736 -13.900   8.947  1.00  0.00     0.163 HD
ENDROOT
BRANCH   2   5
HETATM    5  C   UNL     1      43.984 -15.357   6.801  1.00  0.00     0.032 A 
HETATM    6  C   UNL     1      43.723 -15.635   5.452  1.00  0.00     0.029 A 
HETATM    7  C   UNL     1      43.038 -16.800   5.079  1.00  0.00    -0.023 A 
HETATM    8  C   UNL     1      42.623 -17.686   6.083  1.00  0.00     0.012 A 
HETATM    9  C   UNL     1      42.894 -17.420   7.428  1.00  0.00     0.002 A 
HETATM   10  C   UNL     1      43.577 -16.258   7.790  1.00  0.00     0.017 A 
BRANCH   7  11
HETATM   11  C   UNL     1      42.763 -17.065   3.676  1.00  0.00    -0.002 A 
HETATM   12  C   UNL     1      41.500 -17.129   3.122  1.00  0.00     0.153 A 
HETATM   13  O   UNL     1      41.566 -17.401   1.792  1.00  0.00    -0.334 OA
HETATM   14  C   UNL     1      42.880 -17.524   1.482  1.00  0.00     0.142 A 
HETATM   15  C   UNL     1      43.657 -17.332   2.600  1.00  0.00     0.038 A 
ENDBRANCH   7  11
ENDBRANCH   2   5
BRANCH   1  16
HETATM   16  C   UNL     1      45.122 -12.313   8.755  1.00  0.00     0.161 C 
BRANCH  16  17
HETATM   17  C   UNL     1      44.214 -11.417   9.556  1.00  0.00    -0.037 A 
HETATM   18  C   UNL     1      44.555 -11.018  10.854  1.00  0.00     0.054 A 
HETATM   19  C   UNL     1      43.718 -10.165  11.576  1.00  0.00     0.150 A 
HETATM   20  C   UNL     1      42.526  -9.689  11.026  1.00  0.00     0.106 A 
HETATM   21  F   UNL     1      44.105  -9.824  12.814  1.00  0.00    -0.203 F 
HETATM   22  C   UNL     1      42.180 -10.095   9.734  1.00  0.00     0.040 A 
HETATM   23  C   UNL     1      43.016 -10.946   9.003  1.00  0.00     0.012 A 
BRANCH  20  24
HETATM   24  O   UNL     1      41.618  -8.850  11.611  1.00  0.00    -0.353 OA
HETATM   25  C   UNL     1      40.358  -9.406  11.964  1.00  0.00     0.210 C 
ENDBRANCH  20  24
ENDBRANCH  16  17
ENDBRANCH   1  16
TORSDOF 5
ENDMDL
MODEL 8
REMARK VINA RESULT:      -7.5      6.978     10.117
REMARK  5 active torsions:
REMARK  status: ('A' for Active; 'I' for Inactive)
REMARK    1  A    between atoms: O_2  and  C_3 
REMARK    2  A    between atoms: C_7  and  C_8 
REMARK    3  A    between atoms: C_8  and  N_9 
REMARK       I    between atoms: N_9  and  C_10 
REMARK    4  A    between atoms: C_10  and  C_11 
REMARK    5  A    between atoms: C_13  and  C_14 
ROOT
HETATM    1  N   UNL     1      44.378 -12.791   8.615  1.00  0.00    -0.353 N 
HETATM    2  C   UNL     1      44.824 -11.599   9.138  1.00  0.00     0.251 C 
HETATM    3  O   UNL     1      45.900 -11.094   8.843  1.00  0.00    -0.268 OA
HETATM    4  H   UNL     1      43.505 -13.197   8.918  1.00  0.00     0.163 HD
ENDROOT
BRANCH   2   5
HETATM    5  C   UNL     1      43.944 -10.938  10.140  1.00  0.00     0.032 A 
HETATM    6  C   UNL     1      42.587 -10.780   9.822  1.00  0.00     0.029 A 
HETATM    7  C   UNL     1      41.704 -10.175  10.728  1.00  0.00    -0.023 A 
HETATM    8  C   UNL     1      42.203  -9.735  11.961  1.00  0.00     0.012 A 
HETATM    9  C   UNL     1      43.551  -9.904  12.289  1.00  0.00     0.002 A 
HETATM   10  C   UNL     1      44.423 -10.507  11.382  1.00  0.00     0.017 A 
BRANCH   7  11
HETATM   11  C   UNL     1      40.303 -10.006  10.374  1.00  0.00    -0.002 A 
HETATM   12  C   UNL     1      39.713 -10.521   9.236  1.00  0.00     0.153 A 
HETATM   13  O   UNL     1      38.398 -10.187   9.178  1.00  0.00    -0.334 OA
HETATM   14  C   UNL     1      38.133  -9.443  10.281  1.00  0.00     0.142 A 
HETATM   15  C   UNL     1      39.267  -9.298  11.045  1.00  0.00     0.038 A 
ENDBRANCH   7  11
ENDBRANCH   2   5
BRANCH   1  16
HETATM   16  C   UNL     1      45.142 -13.498   7.612  1.00  0.00     0.161 C 
BRANCH  16  17
HETATM   17  C   UNL     1      44.282 -14.480   6.861  1.00  0.00    -0.037 A 
HETATM   18  C   UNL     1      43.859 -15.674   7.458  1.00  0.00     0.054 A 
HETATM   19  C   UNL     1      43.039 -16.563   6.761  1.00  0.00     0.150 A 
HETATM   20  C   UNL     1      42.621 -16.287   5.457  1.00  0.00     0.106 A 
HETATM   21  F   UNL     1      42.672 -17.688   7.392  1.00  0.00    -0.203 F 
HETATM   22  C   UNL     1      43.051 -15.100   4.857  1.00  0.00     0.040 A 
HETATM   23  C   UNL     1      43.869 -14.202   5.551  1.00  0.00     0.012 A 
BRANCH  20  24
HETATM   24  O   UNL     1      41.819 -17.057   4.662  1.00  0.00    -0.353 OA
HETATM   25  C   UNL     1      41.395 -16.489   3.428  1.00  0.00     0.210 C 
ENDBRANCH  20  24
ENDBRANCH  16  17
ENDBRANCH   1  16
TORSDOF 5
ENDMDL
MODEL 9
REMARK VINA RESULT:      -7.5      3.177      4.885
REMARK  5 active torsions:
REMARK  status: ('A' for Active; 'I' for Inactive)
REMARK    1  A    between atoms: O_2  and  C_3 
REMARK    2  A    between atoms: C_7  and  C_8 
REMARK    3  A    between atoms: C_8  and  N_9 
REMARK       I    between atoms: N_9  and  C_10 
REMARK    4  A    between atoms: C_10  and  C_11 
REMARK    5  A    between atoms: C_13  and  C_14 
ROOT
HETATM    1  N   UNL     1      41.591 -15.547   3.674  1.00  0.00    -0.353 N 
HETATM    2  C   UNL     1      42.960 -15.674   3.633  1.00  0.00     0.251 C 
HETATM    3  O   UNL     1      43.697 -14.856   3.094  1.00  0.00    -0.268 OA
HETATM    4  H   UNL     1      41.016 -16.266   4.089  1.00  0.00     0.163 HD
ENDROOT
BRANCH   2   5
HETATM    5  C   UNL     1      43.538 -16.897   4.254  1.00  0.00     0.032 A 
HETATM    6  C   UNL     1      43.595 -18.064   3.479  1.00  0.00     0.029 A 
HETATM    7  C   UNL     1      44.137 -19.247   4.002  1.00  0.00    -0.023 A 
HETATM    8  C   UNL     1      44.627 -19.239   5.315  1.00  0.00     0.012 A 
HETATM    9  C   UNL     1      44.586 -18.073   6.086  1.00  0.00     0.002 A 
HETATM   10  C   UNL     1      44.045 -16.901   5.558  1.00  0.00     0.017 A 
BRANCH   7  11
HETATM   11  C   UNL     1      44.174 -20.451   3.188  1.00  0.00    -0.002 A 
HETATM   12  C   UNL     1      44.651 -21.675   3.617  1.00  0.00     0.153 A 
HETATM   13  O   UNL     1      44.564 -22.603   2.628  1.00  0.00    -0.334 OA
HETATM   14  C   UNL     1      44.036 -21.977   1.548  1.00  0.00     0.142 A 
HETATM   15  C   UNL     1      43.782 -20.657   1.834  1.00  0.00     0.038 A 
ENDBRANCH   7  11
ENDBRANCH   2   5
BRANCH   1  16
HETATM   16  C   UNL     1      40.933 -14.383   3.127  1.00  0.00     0.161 C 
BRANCH  16  17
HETATM   17  C   UNL     1      40.524 -13.424   4.215  1.00  0.00    -0.037 A 
HETATM   18  C   UNL     1      41.091 -12.147   4.301  1.00  0.00     0.054 A 
HETATM   19  C   UNL     1      40.684 -11.258   5.298  1.00  0.00     0.150 A 
HETATM   20  C   UNL     1      39.707 -11.616   6.229  1.00  0.00     0.106 A 
HETATM   21  F   UNL     1      41.269 -10.051   5.323  1.00  0.00    -0.203 F 
HETATM   22  C   UNL     1      39.148 -12.895   6.149  1.00  0.00     0.040 A 
HETATM   23  C   UNL     1      39.547 -13.789   5.150  1.00  0.00     0.012 A 
BRANCH  20  24
HETATM   24  O   UNL     1      39.210 -10.851   7.248  1.00  0.00    -0.353 OA
HETATM   25  C   UNL     1      39.429 -11.319   8.573  1.00  0.00     0.210 C 
ENDBRANCH  20  24
ENDBRANCH  16  17
ENDBRANCH   1  16
TORSDOF 5
ENDMDL
MODEL 10
REMARK VINA RESULT:      -7.3      7.470     10.581
REMARK  5 active torsions:
REMARK  status: ('A' for Active; 'I' for Inactive)
REMARK    1  A    between atoms: O_2  and  C_3 
REMARK    2  A    between atoms: C_7  and  C_8 
REMARK    3  A    between atoms: C_8  and  N_9 
REMARK       I    between atoms: N_9  and  C_10 
REMARK    4  A    between atoms: C_10  and  C_11 
REMARK    5  A    between atoms: C_13  and  C_14 
ROOT
HETATM    1  N   UNL     1      43.994 -12.819   8.201  1.00  0.00    -0.353 N 
HETATM    2  C   UNL     1      44.334 -11.665   8.868  1.00  0.00     0.251 C 
HETATM    3  O   UNL     1      45.488 -11.273   8.995  1.00  0.00    -0.268 OA
HETATM    4  H   UNL     1      43.035 -13.131   8.158  1.00  0.00     0.163 HD
ENDROOT
BRANCH   2   5
HETATM    5  C   UNL     1      43.218 -10.897   9.487  1.00  0.00     0.032 A 
HETATM    6  C   UNL     1      43.222 -10.736  10.879  1.00  0.00     0.029 A 
HETATM    7  C   UNL     1      42.206 -10.015  11.522  1.00  0.00    -0.023 A 
HETATM    8  C   UNL     1      41.186  -9.452  10.742  1.00  0.00     0.012 A 
HETATM    9  C   UNL     1      41.185  -9.597   9.352  1.00  0.00     0.002 A 
HETATM   10  C   UNL     1      42.201 -10.317   8.721  1.00  0.00     0.017 A 
BRANCH   7  11
HETATM   11  C   UNL     1      42.220  -9.872  12.969  1.00  0.00    -0.002 A 
HETATM   12  C   UNL     1      41.290 -10.433  13.822  1.00  0.00     0.153 A 
HETATM   13  O   UNL     1      41.562 -10.113  15.114  1.00  0.00    -0.334 OA
HETATM   14  C   UNL     1      42.670  -9.331  15.100  1.00  0.00     0.142 A 
HETATM   15  C   UNL     1      43.111  -9.148  13.811  1.00  0.00     0.038 A 
ENDBRANCH   7  11
ENDBRANCH   2   5
BRANCH   1  16
HETATM   16  C   UNL     1      44.998 -13.621   7.540  1.00  0.00     0.161 C 
BRANCH  16  17
HETATM   17  C   UNL     1      44.378 -14.550   6.529  1.00  0.00    -0.037 A 
HETATM   18  C   UNL     1      44.267 -15.922   6.783  1.00  0.00     0.054 A 
HETATM   19  C   UNL     1      43.665 -16.769   5.850  1.00  0.00     0.150 A 
HETATM   20  C   UNL     1      43.159 -16.272   4.647  1.00  0.00     0.106 A 
HETATM   21  F   UNL     1      43.593 -18.072   6.157  1.00  0.00    -0.203 F 
HETATM   22  C   UNL     1      43.278 -14.903   4.389  1.00  0.00     0.040 A 
HETATM   23  C   UNL     1      43.876 -14.049   5.321  1.00  0.00     0.012 A 
BRANCH  20  24
HETATM   24  O   UNL     1      42.543 -16.978   3.651  1.00  0.00    -0.353 OA
HETATM   25  C   UNL     1      43.370 -17.793   2.830  1.00  0.00     0.210 C 
ENDBRANCH  20  24
ENDBRANCH  16  17
ENDBRANCH   1  16
TORSDOF 5
ENDMDL
