MODEL 1
REMARK VINA RESULT:      -9.3      0.000      0.000
REMARK  6 active torsions:
REMARK  status: ('A' for Active; 'I' for Inactive)
REMARK    1  A    between atoms: O_2  and  C_3 
REMARK    2  A    between atoms: C_6  and  C_7 
REMARK    3  A    between atoms: C_7  and  N_8 
REMARK       I    between atoms: N_8  and  C_9 
REMARK    4  A    between atoms: C_9  and  C_10 
REMARK    5  A    between atoms: C_10  and  O_11 
REMARK    6  A    between atoms: N_12  and  C_13 
ROOT
HETATM    1  C   UNL     1      41.198 -15.274   3.182  1.00  0.00     0.256 C 
HETATM    2  N   UNL     1      41.162 -14.040   2.391  1.00  0.00    -0.248 N 
HETATM    3  C   UNL     1      42.286 -13.236   2.309  1.00  0.00     0.330 C 
HETATM    4  O   UNL     1      42.501 -12.432   1.402  1.00  0.00    -0.246 OA
HETATM    5  N   UNL     1      43.229 -13.378   3.283  1.00  0.00    -0.308 N 
HETATM    6  C   UNL     1      43.110 -14.211   4.388  1.00  0.00     0.048 A 
HETATM    7  C   UNL     1      42.079 -15.143   4.411  1.00  0.00     0.034 A 
HETATM    8  C   UNL     1      44.014 -14.104   5.444  1.00  0.00     0.030 A 
HETATM    9  C   UNL     1      43.880 -14.937   6.554  1.00  0.00     0.002 A 
HETATM   10  C   UNL     1      42.852 -15.877   6.599  1.00  0.00     0.001 A 
HETATM   11  C   UNL     1      41.961 -15.986   5.530  1.00  0.00     0.015 A 
HETATM   12  H   UNL     1      43.987 -12.710   3.232  1.00  0.00     0.170 HD
ENDROOT
BRANCH   1  13
HETATM   13  C   UNL     1      41.695 -16.530   2.350  1.00  0.00     0.279 C 
HETATM   14  N   UNL     1      43.055 -16.748   2.247  1.00  0.00    -0.352 N 
HETATM   15  H   UNL     1      43.685 -15.984   2.454  1.00  0.00     0.162 HD
HETATM   16  O   UNL     1      40.868 -17.313   1.868  1.00  0.00    -0.268 OA
BRANCH  14  17
HETATM   17  C   UNL     1      43.533 -17.777   1.352  1.00  0.00     0.161 C 
BRANCH  17  18
HETATM   18  C   UNL     1      43.778 -19.083   2.056  1.00  0.00    -0.040 A 
HETATM   19  C   UNL     1      43.570 -20.298   1.388  1.00  0.00     0.011 A 
HETATM   20  C   UNL     1      43.881 -21.516   2.003  1.00  0.00     0.037 A 
HETATM   21  C   UNL     1      44.407 -21.534   3.294  1.00  0.00     0.068 A 
HETATM   22  C   UNL     1      44.580 -20.330   3.977  1.00  0.00     0.037 A 
HETATM   23  C   UNL     1      44.273 -19.112   3.364  1.00  0.00     0.011 A 
BRANCH  21  24
HETATM   24  O   UNL     1      44.780 -22.650   3.991  1.00  0.00    -0.356 OA
HETATM   25  C   UNL     1      45.191 -22.447   5.338  1.00  0.00     0.210 C 
ENDBRANCH  21  24
ENDBRANCH  17  18
ENDBRANCH  14  17
ENDBRANCH   1  13
BRANCH   1  26
HETATM   26  O   UNL     1      39.875 -15.524   3.682  1.00  0.00    -0.359 OA
HETATM   27  H   UNL     1      39.787 -16.497   3.676  1.00  0.00     0.213 HD
ENDBRANCH   1  26
BRANCH   2  28
HETATM   28  C   UNL     1      40.001 -13.699   1.612  1.00  0.00     0.120 A 
HETATM   29  C   UNL     1      39.758 -14.216   0.332  1.00  0.00     0.146 A 
HETATM   30  F   UNL     1      40.646 -15.023  -0.265  1.00  0.00    -0.204 F 
HETATM   31  C   UNL     1      38.616 -13.877  -0.399  1.00  0.00     0.045 A 
HETATM   32  C   UNL     1      37.667 -13.020   0.147  1.00  0.00     0.006 A 
HETATM   33  C   UNL     1      37.867 -12.507   1.426  1.00  0.00     0.045 A 
HETATM   34  C   UNL     1      39.018 -12.846   2.142  1.00  0.00     0.146 A 
HETATM   35  F   UNL     1      39.111 -12.397   3.403  1.00  0.00    -0.204 F 
ENDBRANCH   2  28
TORSDOF 6
ENDMDL
MODEL 2
REMARK VINA RESULT:      -9.2      1.835      2.437
REMARK  6 active torsions:
REMARK  status: ('A' for Active; 'I' for Inactive)
REMARK    1  A    between atoms: O_2  and  C_3 
REMARK    2  A    between atoms: C_6  and  C_7 
REMARK    3  A    between atoms: C_7  and  N_8 
REMARK       I    between atoms: N_8  and  C_9 
REMARK    4  A    between atoms: C_9  and  C_10 
REMARK    5  A    between atoms: C_10  and  O_11 
REMARK    6  A    between atoms: N_12  and  C_13 
ROOT
HETATM    1  C   UNL     1      40.545 -15.193   1.330  1.00  0.00     0.256 C 
HETATM    2  N   UNL     1      40.750 -14.227   0.245  1.00  0.00    -0.248 N 
HETATM    3  C   UNL     1      41.766 -13.292   0.334  1.00  0.00     0.330 C 
HETATM    4  O   UNL     1      42.274 -12.722  -0.632  1.00  0.00    -0.246 OA
HETATM    5  N   UNL     1      42.257 -13.016   1.576  1.00  0.00    -0.308 N 
HETATM    6  C   UNL     1      41.762 -13.546   2.760  1.00  0.00     0.048 A 
HETATM    7  C   UNL     1      40.862 -14.603   2.692  1.00  0.00     0.034 A 
HETATM    8  C   UNL     1      42.170 -13.018   3.986  1.00  0.00     0.030 A 
HETATM    9  C   UNL     1      41.659 -13.550   5.169  1.00  0.00     0.002 A 
HETATM   10  C   UNL     1      40.754 -14.608   5.123  1.00  0.00     0.001 A 
HETATM   11  C   UNL     1      40.363 -15.138   3.892  1.00  0.00     0.015 A 
HETATM   12  H   UNL     1      42.934 -12.264   1.601  1.00  0.00     0.170 HD
ENDROOT
BRANCH   1  13
HETATM   13  C   UNL     1      41.401 -16.516   1.154  1.00  0.00     0.279 C 
HETATM   14  N   UNL     1      42.765 -16.443   1.360  1.00  0.00    -0.352 N 
HETATM   15  H   UNL     1      43.210 -15.534   1.343  1.00  0.00     0.162 HD
HETATM   16  O   UNL     1      40.835 -17.585   0.898  1.00  0.00    -0.268 OA
BRANCH  14  17
HETATM   17  C   UNL     1      43.585 -17.587   1.034  1.00  0.00     0.161 C 
BRANCH  17  18
HETATM   18  C   UNL     1      43.933 -18.410   2.244  1.00  0.00    -0.040 A 
HETATM   19  C   UNL     1      43.841 -17.857   3.528  1.00  0.00     0.011 A 
HETATM   20  C   UNL     1      44.075 -18.640   4.664  1.00  0.00     0.037 A 
HETATM   21  C   UNL     1      44.404 -19.988   4.529  1.00  0.00     0.068 A 
HETATM   22  C   UNL     1      44.535 -20.533   3.251  1.00  0.00     0.037 A 
HETATM   23  C   UNL     1      44.298 -19.755   2.115  1.00  0.00     0.011 A 
BRANCH  21  24
HETATM   24  O   UNL     1      44.626 -20.865   5.555  1.00  0.00    -0.356 OA
HETATM   25  C   UNL     1      45.000 -22.187   5.187  1.00  0.00     0.210 C 
ENDBRANCH  21  24
ENDBRANCH  17  18
ENDBRANCH  14  17
ENDBRANCH   1  13
BRANCH   1  26
HETATM   26  O   UNL     1      39.149 -15.528   1.371  1.00  0.00    -0.359 OA
HETATM   27  H   UNL     1      38.709 -14.719   1.698  1.00  0.00     0.213 HD
ENDBRANCH   1  26
BRANCH   2  28
HETATM   28  C   UNL     1      39.972 -14.301  -0.963  1.00  0.00     0.120 A 
HETATM   29  C   UNL     1      40.295 -15.147  -2.032  1.00  0.00     0.146 A 
HETATM   30  F   UNL     1      41.403 -15.900  -2.004  1.00  0.00    -0.204 F 
HETATM   31  C   UNL     1      39.514 -15.208  -3.190  1.00  0.00     0.045 A 
HETATM   32  C   UNL     1      38.366 -14.430  -3.299  1.00  0.00     0.006 A 
HETATM   33  C   UNL     1      38.006 -13.596  -2.245  1.00  0.00     0.045 A 
HETATM   34  C   UNL     1      38.800 -13.537  -1.097  1.00  0.00     0.146 A 
HETATM   35  F   UNL     1      38.353 -12.787  -0.078  1.00  0.00    -0.204 F 
ENDBRANCH   2  28
TORSDOF 6
ENDMDL
MODEL 3
REMARK VINA RESULT:      -9.2      1.776      2.626
REMARK  6 active torsions:
REMARK  status: ('A' for Active; 'I' for Inactive)
REMARK    1  A    between atoms: O_2  and  C_3 
REMARK    2  A    between atoms: C_6  and  C_7 
REMARK    3  A    between atoms: C_7  and  N_8 
REMARK       I    between atoms: N_8  and  C_9 
REMARK    4  A    between atoms: C_9  and  C_10 
REMARK    5  A    between atoms: C_10  and  O_11 
REMARK    6  A    between atoms: N_12  and  C_13 
ROOT
HETATM    1  C   UNL     1      40.540 -15.145   1.373  1.00  0.00     0.256 C 
HETATM    2  N   UNL     1      40.718 -14.170   0.292  1.00  0.00    -0.248 N 
HETATM    3  C   UNL     1      41.735 -13.234   0.363  1.00  0.00     0.330 C 
HETATM    4  O   UNL     1      42.218 -12.656  -0.611  1.00  0.00    -0.246 OA
HETATM    5  N   UNL     1      42.256 -12.968   1.595  1.00  0.00    -0.308 N 
HETATM    6  C   UNL     1      41.791 -13.509   2.787  1.00  0.00     0.048 A 
HETATM    7  C   UNL     1      40.890 -14.566   2.732  1.00  0.00     0.034 A 
HETATM    8  C   UNL     1      42.229 -12.991   4.006  1.00  0.00     0.030 A 
HETATM    9  C   UNL     1      41.748 -13.533   5.197  1.00  0.00     0.002 A 
HETATM   10  C   UNL     1      40.843 -14.593   5.165  1.00  0.00     0.001 A 
HETATM   11  C   UNL     1      40.422 -15.113   3.939  1.00  0.00     0.015 A 
HETATM   12  H   UNL     1      42.932 -12.216   1.610  1.00  0.00     0.170 HD
ENDROOT
BRANCH   1  13
HETATM   13  C   UNL     1      41.394 -16.465   1.164  1.00  0.00     0.279 C 
HETATM   14  N   UNL     1      42.765 -16.388   1.317  1.00  0.00    -0.352 N 
HETATM   15  H   UNL     1      43.205 -15.478   1.281  1.00  0.00     0.162 HD
HETATM   16  O   UNL     1      40.821 -17.536   0.932  1.00  0.00    -0.268 OA
BRANCH  14  17
HETATM   17  C   UNL     1      43.575 -17.529   0.959  1.00  0.00     0.161 C 
BRANCH  17  18
HETATM   18  C   UNL     1      43.809 -18.456   2.121  1.00  0.00    -0.040 A 
HETATM   19  C   UNL     1      43.986 -19.830   1.908  1.00  0.00     0.011 A 
HETATM   20  C   UNL     1      44.294 -20.686   2.971  1.00  0.00     0.037 A 
HETATM   21  C   UNL     1      44.431 -20.178   4.262  1.00  0.00     0.068 A 
HETATM   22  C   UNL     1      44.217 -18.817   4.485  1.00  0.00     0.037 A 
HETATM   23  C   UNL     1      43.913 -17.959   3.425  1.00  0.00     0.011 A 
BRANCH  21  24
HETATM   24  O   UNL     1      44.758 -20.900   5.377  1.00  0.00    -0.356 OA
HETATM   25  C   UNL     1      45.072 -22.272   5.172  1.00  0.00     0.210 C 
ENDBRANCH  21  24
ENDBRANCH  17  18
ENDBRANCH  14  17
ENDBRANCH   1  13
BRANCH   1  26
HETATM   26  O   UNL     1      39.147 -15.483   1.446  1.00  0.00    -0.359 OA
HETATM   27  H   UNL     1      38.809 -15.342   0.540  1.00  0.00     0.213 HD
ENDBRANCH   1  26
BRANCH   2  28
HETATM   28  C   UNL     1      39.910 -14.235  -0.897  1.00  0.00     0.120 A 
HETATM   29  C   UNL     1      38.746 -13.476  -1.074  1.00  0.00     0.146 A 
HETATM   30  F   UNL     1      38.286 -12.681  -0.098  1.00  0.00    -0.204 F 
HETATM   31  C   UNL     1      37.985 -13.549  -2.245  1.00  0.00     0.045 A 
HETATM   32  C   UNL     1      38.387 -14.378  -3.287  1.00  0.00     0.006 A 
HETATM   33  C   UNL     1      39.552 -15.127  -3.151  1.00  0.00     0.045 A 
HETATM   34  C   UNL     1      40.297 -15.052  -1.972  1.00  0.00     0.146 A 
HETATM   35  F   UNL     1      41.459 -15.725  -1.936  1.00  0.00    -0.204 F 
ENDBRANCH   2  28
TORSDOF 6
ENDMDL
MODEL 4
REMARK VINA RESULT:      -9.0      2.197      4.736
REMARK  6 active torsions:
REMARK  status: ('A' for Active; 'I' for Inactive)
REMARK    1  A    between atoms: O_2  and  C_3 
REMARK    2  A    between atoms: C_6  and  C_7 
REMARK    3  A    between atoms: C_7  and  N_8 
REMARK       I    between atoms: N_8  and  C_9 
REMARK    4  A    between atoms: C_9  and  C_10 
REMARK    5  A    between atoms: C_10  and  O_11 
REMARK    6  A    between atoms: N_12  and  C_13 
ROOT
HETATM    1  C   UNL     1      41.296 -14.331   0.527  1.00  0.00     0.256 C 
HETATM    2  N   UNL     1      40.068 -14.228   1.322  1.00  0.00    -0.248 N 
HETATM    3  C   UNL     1      38.833 -14.361   0.710  1.00  0.00     0.330 C 
HETATM    4  O   UNL     1      37.799 -14.683   1.295  1.00  0.00    -0.246 OA
HETATM    5  N   UNL     1      38.776 -14.157  -0.637  1.00  0.00    -0.308 N 
HETATM    6  C   UNL     1      39.846 -13.752  -1.424  1.00  0.00     0.048 A 
HETATM    7  C   UNL     1      41.123 -13.770  -0.873  1.00  0.00     0.034 A 
HETATM    8  C   UNL     1      39.630 -13.338  -2.738  1.00  0.00     0.030 A 
HETATM    9  C   UNL     1      40.709 -12.923  -3.516  1.00  0.00     0.002 A 
HETATM   10  C   UNL     1      41.996 -12.932  -2.984  1.00  0.00     0.001 A 
HETATM   11  C   UNL     1      42.205 -13.361  -1.671  1.00  0.00     0.015 A 
HETATM   12  H   UNL     1      37.842 -14.178  -1.024  1.00  0.00     0.170 HD
ENDROOT
BRANCH   1  13
HETATM   13  C   UNL     1      41.830 -15.819   0.400  1.00  0.00     0.279 C 
HETATM   14  N   UNL     1      42.938 -16.181   1.141  1.00  0.00    -0.352 N 
HETATM   15  H   UNL     1      43.530 -15.450   1.515  1.00  0.00     0.162 HD
HETATM   16  O   UNL     1      41.219 -16.632  -0.302  1.00  0.00    -0.268 OA
BRANCH  14  17
HETATM   17  C   UNL     1      43.546 -17.470   0.908  1.00  0.00     0.161 C 
BRANCH  17  18
HETATM   18  C   UNL     1      43.849 -18.204   2.185  1.00  0.00    -0.040 A 
HETATM   19  C   UNL     1      43.665 -17.576   3.425  1.00  0.00     0.011 A 
HETATM   20  C   UNL     1      43.857 -18.278   4.619  1.00  0.00     0.037 A 
HETATM   21  C   UNL     1      44.235 -19.620   4.590  1.00  0.00     0.068 A 
HETATM   22  C   UNL     1      44.458 -20.238   3.359  1.00  0.00     0.037 A 
HETATM   23  C   UNL     1      44.263 -19.540   2.164  1.00  0.00     0.011 A 
BRANCH  21  24
HETATM   24  O   UNL     1      44.424 -20.423   5.681  1.00  0.00    -0.356 OA
HETATM   25  C   UNL     1      44.722 -21.789   5.416  1.00  0.00     0.210 C 
ENDBRANCH  21  24
ENDBRANCH  17  18
ENDBRANCH  14  17
ENDBRANCH   1  13
BRANCH   1  26
HETATM   26  O   UNL     1      42.300 -13.513   1.147  1.00  0.00    -0.359 OA
HETATM   27  H   UNL     1      41.799 -12.809   1.604  1.00  0.00     0.213 HD
ENDBRANCH   1  26
BRANCH   2  28
HETATM   28  C   UNL     1      40.127 -14.089   2.753  1.00  0.00     0.120 A 
HETATM   29  C   UNL     1      40.363 -15.165   3.618  1.00  0.00     0.146 A 
HETATM   30  F   UNL     1      40.487 -16.414   3.147  1.00  0.00    -0.204 F 
HETATM   31  C   UNL     1      40.428 -15.001   5.004  1.00  0.00     0.045 A 
HETATM   32  C   UNL     1      40.277 -13.737   5.565  1.00  0.00     0.006 A 
HETATM   33  C   UNL     1      40.063 -12.643   4.731  1.00  0.00     0.045 A 
HETATM   34  C   UNL     1      39.991 -12.823   3.347  1.00  0.00     0.146 A 
HETATM   35  F   UNL     1      39.878 -11.721   2.589  1.00  0.00    -0.204 F 
ENDBRANCH   2  28
TORSDOF 6
ENDMDL
MODEL 5
REMARK VINA RESULT:      -8.7      1.724      4.722
REMARK  6 active torsions:
REMARK  status: ('A' for Active; 'I' for Inactive)
REMARK    1  A    between atoms: O_2  and  C_3 
REMARK    2  A    between atoms: C_6  and  C_7 
REMARK    3  A    between atoms: C_7  and  N_8 
REMARK       I    between atoms: N_8  and  C_9 
REMARK    4  A    between atoms: C_9  and  C_10 
REMARK    5  A    between atoms: C_10  and  O_11 
REMARK    6  A    between atoms: N_12  and  C_13 
ROOT
HETATM    1  C   UNL     1      42.027 -14.877   2.625  1.00  0.00     0.256 C 
HETATM    2  N   UNL     1      41.634 -14.835   4.037  1.00  0.00    -0.248 N 
HETATM    3  C   UNL     1      40.294 -14.814   4.383  1.00  0.00     0.330 C 
HETATM    4  O   UNL     1      39.853 -15.169   5.476  1.00  0.00    -0.246 OA
HETATM    5  N   UNL     1      39.408 -14.405   3.431  1.00  0.00    -0.308 N 
HETATM    6  C   UNL     1      39.757 -13.938   2.171  1.00  0.00     0.048 A 
HETATM    7  C   UNL     1      41.068 -14.103   1.739  1.00  0.00     0.034 A 
HETATM    8  C   UNL     1      38.800 -13.320   1.366  1.00  0.00     0.030 A 
HETATM    9  C   UNL     1      39.163 -12.845   0.106  1.00  0.00     0.002 A 
HETATM   10  C   UNL     1      40.472 -12.998  -0.346  1.00  0.00     0.001 A 
HETATM   11  C   UNL     1      41.419 -13.630   0.462  1.00  0.00     0.015 A 
HETATM   12  H   UNL     1      38.454 -14.321   3.757  1.00  0.00     0.170 HD
ENDROOT
BRANCH   1  13
HETATM   13  C   UNL     1      42.142 -16.353   2.056  1.00  0.00     0.279 C 
HETATM   14  N   UNL     1      43.402 -16.863   1.813  1.00  0.00    -0.352 N 
HETATM   15  H   UNL     1      44.179 -16.220   1.738  1.00  0.00     0.162 HD
HETATM   16  O   UNL     1      41.120 -17.031   1.899  1.00  0.00    -0.268 OA
BRANCH  14  17
HETATM   17  C   UNL     1      43.525 -18.131   1.131  1.00  0.00     0.161 C 
BRANCH  17  18
HETATM   18  C   UNL     1      43.854 -19.260   2.069  1.00  0.00    -0.040 A 
HETATM   19  C   UNL     1      43.766 -20.590   1.637  1.00  0.00     0.011 A 
HETATM   20  C   UNL     1      44.157 -21.642   2.472  1.00  0.00     0.037 A 
HETATM   21  C   UNL     1      44.642 -21.377   3.752  1.00  0.00     0.068 A 
HETATM   22  C   UNL     1      44.695 -20.057   4.201  1.00  0.00     0.037 A 
HETATM   23  C   UNL     1      44.309 -19.004   3.368  1.00  0.00     0.011 A 
BRANCH  21  24
HETATM   24  O   UNL     1      45.083 -22.309   4.651  1.00  0.00    -0.356 OA
HETATM   25  C   UNL     1      44.573 -22.203   5.974  1.00  0.00     0.210 C 
ENDBRANCH  21  24
ENDBRANCH  17  18
ENDBRANCH  14  17
ENDBRANCH   1  13
BRANCH   1  26
HETATM   26  O   UNL     1      43.293 -14.213   2.493  1.00  0.00    -0.359 OA
HETATM   27  H   UNL     1      43.664 -14.205   3.397  1.00  0.00     0.213 HD
ENDBRANCH   1  26
BRANCH   2  28
HETATM   28  C   UNL     1      42.624 -14.918   5.079  1.00  0.00     0.120 A 
HETATM   29  C   UNL     1      43.110 -16.133   5.579  1.00  0.00     0.146 A 
HETATM   30  F   UNL     1      42.621 -17.302   5.143  1.00  0.00    -0.204 F 
HETATM   31  C   UNL     1      44.081 -16.185   6.583  1.00  0.00     0.045 A 
HETATM   32  C   UNL     1      44.610 -15.009   7.103  1.00  0.00     0.006 A 
HETATM   33  C   UNL     1      44.165 -13.786   6.612  1.00  0.00     0.045 A 
HETATM   34  C   UNL     1      43.187 -13.748   5.615  1.00  0.00     0.146 A 
HETATM   35  F   UNL     1      42.866 -12.544   5.114  1.00  0.00    -0.204 F 
ENDBRANCH   2  28
TORSDOF 6
ENDMDL
MODEL 6
REMARK VINA RESULT:      -8.6      3.128      7.137
REMARK  6 active torsions:
REMARK  status: ('A' for Active; 'I' for Inactive)
REMARK    1  A    between atoms: O_2  and  C_3 
REMARK    2  A    between atoms: C_6  and  C_7 
REMARK    3  A    between atoms: C_7  and  N_8 
REMARK       I    between atoms: N_8  and  C_9 
REMARK    4  A    between atoms: C_9  and  C_10 
REMARK    5  A    between atoms: C_10  and  O_11 
REMARK    6  A    between atoms: N_12  and  C_13 
ROOT
HETATM    1  C   UNL     1      41.831 -15.185   3.835  1.00  0.00     0.256 C 
HETATM    2  N   UNL     1      41.817 -16.042   5.025  1.00  0.00    -0.248 N 
HETATM    3  C   UNL     1      40.704 -16.066   5.848  1.00  0.00     0.330 C 
HETATM    4  O   UNL     1      40.422 -16.992   6.608  1.00  0.00    -0.246 OA
HETATM    5  N   UNL     1      39.851 -15.005   5.779  1.00  0.00    -0.308 N 
HETATM    6  C   UNL     1      40.055 -13.872   5.002  1.00  0.00     0.048 A 
HETATM    7  C   UNL     1      41.068 -13.891   4.049  1.00  0.00     0.034 A 
HETATM    8  C   UNL     1      39.253 -12.746   5.185  1.00  0.00     0.030 A 
HETATM    9  C   UNL     1      39.473 -11.609   4.408  1.00  0.00     0.002 A 
HETATM   10  C   UNL     1      40.483 -11.606   3.449  1.00  0.00     0.001 A 
HETATM   11  C   UNL     1      41.272 -12.743   3.264  1.00  0.00     0.015 A 
HETATM   12  H   UNL     1      39.103 -15.024   6.460  1.00  0.00     0.170 HD
ENDROOT
BRANCH   1  13
HETATM   13  C   UNL     1      41.239 -15.899   2.549  1.00  0.00     0.279 C 
HETATM   14  N   UNL     1      42.041 -15.998   1.428  1.00  0.00    -0.352 N 
HETATM   15  H   UNL     1      42.849 -15.394   1.357  1.00  0.00     0.162 HD
HETATM   16  O   UNL     1      40.109 -16.400   2.590  1.00  0.00    -0.268 OA
BRANCH  14  17
HETATM   17  C   UNL     1      41.465 -16.482   0.195  1.00  0.00     0.161 C 
BRANCH  17  18
HETATM   18  C   UNL     1      41.357 -15.407  -0.851  1.00  0.00    -0.040 A 
HETATM   19  C   UNL     1      41.679 -14.079  -0.539  1.00  0.00     0.011 A 
HETATM   20  C   UNL     1      41.668 -13.088  -1.527  1.00  0.00     0.037 A 
HETATM   21  C   UNL     1      41.336 -13.414  -2.841  1.00  0.00     0.068 A 
HETATM   22  C   UNL     1      40.977 -14.726  -3.149  1.00  0.00     0.037 A 
HETATM   23  C   UNL     1      40.990 -15.719  -2.165  1.00  0.00     0.011 A 
BRANCH  21  24
HETATM   24  O   UNL     1      41.319 -12.549  -3.901  1.00  0.00    -0.356 OA
HETATM   25  C   UNL     1      42.308 -11.526  -3.899  1.00  0.00     0.210 C 
ENDBRANCH  21  24
ENDBRANCH  17  18
ENDBRANCH  14  17
ENDBRANCH   1  13
BRANCH   1  26
HETATM   26  O   UNL     1      43.189 -14.793   3.582  1.00  0.00    -0.359 OA
HETATM   27  H   UNL     1      43.692 -15.631   3.573  1.00  0.00     0.213 HD
ENDBRANCH   1  26
BRANCH   2  28
HETATM   28  C   UNL     1      42.908 -16.940   5.298  1.00  0.00     0.120 A 
HETATM   29  C   UNL     1      43.899 -16.673   6.252  1.00  0.00     0.146 A 
HETATM   30  F   UNL     1      43.912 -15.516   6.927  1.00  0.00    -0.204 F 
HETATM   31  C   UNL     1      44.942 -17.569   6.506  1.00  0.00     0.045 A 
HETATM   32  C   UNL     1      45.008 -18.776   5.819  1.00  0.00     0.006 A 
HETATM   33  C   UNL     1      44.026 -19.080   4.881  1.00  0.00     0.045 A 
HETATM   34  C   UNL     1      42.994 -18.172   4.629  1.00  0.00     0.146 A 
HETATM   35  F   UNL     1      42.026 -18.561   3.784  1.00  0.00    -0.204 F 
ENDBRANCH   2  28
TORSDOF 6
ENDMDL
MODEL 7
REMARK VINA RESULT:      -7.9      2.048      4.229
REMARK  6 active torsions:
REMARK  status: ('A' for Active; 'I' for Inactive)
REMARK    1  A    between atoms: O_2  and  C_3 
REMARK    2  A    between atoms: C_6  and  C_7 
REMARK    3  A    between atoms: C_7  and  N_8 
REMARK       I    between atoms: N_8  and  C_9 
REMARK    4  A    between atoms: C_9  and  C_10 
REMARK    5  A    between atoms: C_10  and  O_11 
REMARK    6  A    between atoms: N_12  and  C_13 
ROOT
HETATM    1  C   UNL     1      41.938 -14.585   2.776  1.00  0.00     0.256 C 
HETATM    2  N   UNL     1      40.622 -14.195   2.260  1.00  0.00    -0.248 N 
HETATM    3  C   UNL     1      39.701 -15.165   1.904  1.00  0.00     0.330 C 
HETATM    4  O   UNL     1      38.485 -14.982   1.845  1.00  0.00    -0.246 OA
HETATM    5  N   UNL     1      40.179 -16.415   1.640  1.00  0.00    -0.308 N 
HETATM    6  C   UNL     1      41.523 -16.764   1.626  1.00  0.00     0.048 A 
HETATM    7  C   UNL     1      42.451 -15.862   2.135  1.00  0.00     0.034 A 
HETATM    8  C   UNL     1      41.919 -17.997   1.109  1.00  0.00     0.030 A 
HETATM    9  C   UNL     1      43.272 -18.334   1.089  1.00  0.00     0.002 A 
HETATM   10  C   UNL     1      44.218 -17.444   1.593  1.00  0.00     0.001 A 
HETATM   11  C   UNL     1      43.810 -16.218   2.121  1.00  0.00     0.015 A 
HETATM   12  H   UNL     1      39.483 -17.065   1.299  1.00  0.00     0.170 HD
ENDROOT
BRANCH   1  13
HETATM   13  C   UNL     1      41.954 -14.782   4.349  1.00  0.00     0.279 C 
HETATM   14  N   UNL     1      43.173 -14.751   4.999  1.00  0.00    -0.352 N 
HETATM   15  H   UNL     1      44.015 -14.880   4.454  1.00  0.00     0.162 HD
HETATM   16  O   UNL     1      40.888 -14.898   4.965  1.00  0.00    -0.268 OA
BRANCH  14  17
HETATM   17  C   UNL     1      43.229 -15.103   6.399  1.00  0.00     0.161 C 
BRANCH  17  18
HETATM   18  C   UNL     1      43.452 -16.576   6.613  1.00  0.00    -0.040 A 
HETATM   19  C   UNL     1      43.621 -17.086   7.908  1.00  0.00     0.011 A 
HETATM   20  C   UNL     1      43.738 -18.463   8.125  1.00  0.00     0.037 A 
HETATM   21  C   UNL     1      43.685 -19.349   7.050  1.00  0.00     0.068 A 
HETATM   22  C   UNL     1      43.555 -18.843   5.756  1.00  0.00     0.037 A 
HETATM   23  C   UNL     1      43.435 -17.468   5.536  1.00  0.00     0.011 A 
BRANCH  21  24
HETATM   24  O   UNL     1      43.755 -20.713   7.130  1.00  0.00    -0.356 OA
HETATM   25  C   UNL     1      44.340 -21.383   6.020  1.00  0.00     0.210 C 
ENDBRANCH  21  24
ENDBRANCH  17  18
ENDBRANCH  14  17
ENDBRANCH   1  13
BRANCH   1  26
HETATM   26  O   UNL     1      42.882 -13.566   2.411  1.00  0.00    -0.359 OA
HETATM   27  H   UNL     1      42.686 -12.820   3.011  1.00  0.00     0.213 HD
ENDBRANCH   1  26
BRANCH   2  28
HETATM   28  C   UNL     1      40.232 -12.810   2.210  1.00  0.00     0.120 A 
HETATM   29  C   UNL     1      39.615 -12.149   3.280  1.00  0.00     0.146 A 
HETATM   30  F   UNL     1      39.295 -12.806   4.404  1.00  0.00    -0.204 F 
HETATM   31  C   UNL     1      39.257 -10.800   3.210  1.00  0.00     0.045 A 
HETATM   32  C   UNL     1      39.531 -10.065   2.061  1.00  0.00     0.006 A 
HETATM   33  C   UNL     1      40.164 -10.686   0.989  1.00  0.00     0.045 A 
HETATM   34  C   UNL     1      40.507 -12.038   1.069  1.00  0.00     0.146 A 
HETATM   35  F   UNL     1      41.199 -12.558   0.042  1.00  0.00    -0.204 F 
ENDBRANCH   2  28
TORSDOF 6
ENDMDL
MODEL 8
REMARK VINA RESULT:      -7.7      2.649      3.469
REMARK  6 active torsions:
REMARK  status: ('A' for Active; 'I' for Inactive)
REMARK    1  A    between atoms: O_2  and  C_3 
REMARK    2  A    between atoms: C_6  and  C_7 
REMARK    3  A    between atoms: C_7  and  N_8 
REMARK       I    between atoms: N_8  and  C_9 
REMARK    4  A    between atoms: C_9  and  C_10 
REMARK    5  A    between atoms: C_10  and  O_11 
REMARK    6  A    between atoms: N_12  and  C_13 
ROOT
HETATM    1  C   UNL     1      40.656 -14.580   1.975  1.00  0.00     0.256 C 
HETATM    2  N   UNL     1      41.015 -13.789   0.794  1.00  0.00    -0.248 N 
HETATM    3  C   UNL     1      41.902 -12.734   0.910  1.00  0.00     0.330 C 
HETATM    4  O   UNL     1      42.563 -12.274  -0.021  1.00  0.00    -0.246 OA
HETATM    5  N   UNL     1      42.078 -12.197   2.152  1.00  0.00    -0.308 N 
HETATM    6  C   UNL     1      41.378 -12.581   3.288  1.00  0.00     0.048 A 
HETATM    7  C   UNL     1      40.609 -13.738   3.237  1.00  0.00     0.034 A 
HETATM    8  C   UNL     1      41.455 -11.812   4.449  1.00  0.00     0.030 A 
HETATM    9  C   UNL     1      40.740 -12.199   5.581  1.00  0.00     0.002 A 
HETATM   10  C   UNL     1      39.962 -13.355   5.552  1.00  0.00     0.001 A 
HETATM   11  C   UNL     1      39.902 -14.125   4.389  1.00  0.00     0.015 A 
HETATM   12  H   UNL     1      42.666 -11.374   2.173  1.00  0.00     0.170 HD
ENDROOT
BRANCH   1  13
HETATM   13  C   UNL     1      41.639 -15.798   2.231  1.00  0.00     0.279 C 
HETATM   14  N   UNL     1      41.099 -16.998   2.648  1.00  0.00    -0.352 N 
HETATM   15  H   UNL     1      40.165 -16.999   3.036  1.00  0.00     0.162 HD
HETATM   16  O   UNL     1      42.847 -15.670   1.998  1.00  0.00    -0.268 OA
BRANCH  14  17
HETATM   17  C   UNL     1      41.986 -18.062   3.056  1.00  0.00     0.161 C 
BRANCH  17  18
HETATM   18  C   UNL     1      42.416 -17.935   4.492  1.00  0.00    -0.040 A 
HETATM   19  C   UNL     1      41.712 -17.101   5.372  1.00  0.00     0.011 A 
HETATM   20  C   UNL     1      42.048 -17.046   6.729  1.00  0.00     0.037 A 
HETATM   21  C   UNL     1      43.092 -17.826   7.224  1.00  0.00     0.068 A 
HETATM   22  C   UNL     1      43.820 -18.628   6.345  1.00  0.00     0.037 A 
HETATM   23  C   UNL     1      43.485 -18.688   4.990  1.00  0.00     0.011 A 
BRANCH  21  24
HETATM   24  O   UNL     1      43.497 -17.886   8.529  1.00  0.00    -0.356 OA
HETATM   25  C   UNL     1      44.432 -18.908   8.855  1.00  0.00     0.210 C 
ENDBRANCH  21  24
ENDBRANCH  17  18
ENDBRANCH  14  17
ENDBRANCH   1  13
BRANCH   1  26
HETATM   26  O   UNL     1      39.320 -15.074   1.793  1.00  0.00    -0.359 OA
HETATM   27  H   UNL     1      38.769 -14.525   2.385  1.00  0.00     0.213 HD
ENDBRANCH   1  26
BRANCH   2  28
HETATM   28  C   UNL     1      40.536 -14.158  -0.512  1.00  0.00     0.120 A 
HETATM   29  C   UNL     1      41.049 -15.239  -1.240  1.00  0.00     0.146 A 
HETATM   30  F   UNL     1      42.075 -15.961  -0.770  1.00  0.00    -0.204 F 
HETATM   31  C   UNL     1      40.556 -15.583  -2.502  1.00  0.00     0.045 A 
HETATM   32  C   UNL     1      39.511 -14.857  -3.064  1.00  0.00     0.006 A 
HETATM   33  C   UNL     1      38.964 -13.791  -2.357  1.00  0.00     0.045 A 
HETATM   34  C   UNL     1      39.473 -13.452  -1.101  1.00  0.00     0.146 A 
HETATM   35  F   UNL     1      38.844 -12.476  -0.426  1.00  0.00    -0.204 F 
ENDBRANCH   2  28
TORSDOF 6
ENDMDL
MODEL 9
REMARK VINA RESULT:      -7.7      3.217      7.230
REMARK  6 active torsions:
REMARK  status: ('A' for Active; 'I' for Inactive)
REMARK    1  A    between atoms: O_2  and  C_3 
REMARK    2  A    between atoms: C_6  and  C_7 
REMARK    3  A    between atoms: C_7  and  N_8 
REMARK       I    between atoms: N_8  and  C_9 
REMARK    4  A    between atoms: C_9  and  C_10 
REMARK    5  A    between atoms: C_10  and  O_11 
REMARK    6  A    between atoms: N_12  and  C_13 
ROOT
HETATM    1  C   UNL     1      41.607 -14.439   4.010  1.00  0.00     0.256 C 
HETATM    2  N   UNL     1      41.559 -15.639   4.852  1.00  0.00    -0.248 N 
HETATM    3  C   UNL     1      40.643 -15.724   5.886  1.00  0.00     0.330 C 
HETATM    4  O   UNL     1      40.248 -16.781   6.380  1.00  0.00    -0.246 OA
HETATM    5  N   UNL     1      40.120 -14.557   6.357  1.00  0.00    -0.308 N 
HETATM    6  C   UNL     1      40.495 -13.290   5.930  1.00  0.00     0.048 A 
HETATM    7  C   UNL     1      41.283 -13.177   4.790  1.00  0.00     0.034 A 
HETATM    8  C   UNL     1      40.081 -12.162   6.640  1.00  0.00     0.030 A 
HETATM    9  C   UNL     1      40.472 -10.895   6.209  1.00  0.00     0.002 A 
HETATM   10  C   UNL     1      41.263 -10.760   5.070  1.00  0.00     0.001 A 
HETATM   11  C   UNL     1      41.660 -11.894   4.358  1.00  0.00     0.015 A 
HETATM   12  H   UNL     1      39.525 -14.662   7.169  1.00  0.00     0.170 HD
ENDROOT
BRANCH   1  13
HETATM   13  C   UNL     1      40.627 -14.515   2.766  1.00  0.00     0.279 C 
HETATM   14  N   UNL     1      41.171 -14.426   1.499  1.00  0.00    -0.352 N 
HETATM   15  H   UNL     1      42.105 -14.048   1.399  1.00  0.00     0.162 HD
HETATM   16  O   UNL     1      39.419 -14.710   2.946  1.00  0.00    -0.268 OA
BRANCH  14  17
HETATM   17  C   UNL     1      40.287 -14.314   0.363  1.00  0.00     0.161 C 
BRANCH  17  18
HETATM   18  C   UNL     1      40.825 -13.392  -0.697  1.00  0.00    -0.040 A 
HETATM   19  C   UNL     1      39.989 -12.444  -1.304  1.00  0.00     0.011 A 
HETATM   20  C   UNL     1      40.501 -11.523  -2.224  1.00  0.00     0.037 A 
HETATM   21  C   UNL     1      41.856 -11.538  -2.550  1.00  0.00     0.068 A 
HETATM   22  C   UNL     1      42.684 -12.505  -1.979  1.00  0.00     0.037 A 
HETATM   23  C   UNL     1      42.177 -13.424  -1.056  1.00  0.00     0.011 A 
BRANCH  21  24
HETATM   24  O   UNL     1      42.484 -10.676  -3.408  1.00  0.00    -0.356 OA
HETATM   25  C   UNL     1      42.291 -10.915  -4.797  1.00  0.00     0.210 C 
ENDBRANCH  21  24
ENDBRANCH  17  18
ENDBRANCH  14  17
ENDBRANCH   1  13
BRANCH   1  26
HETATM   26  O   UNL     1      42.956 -14.270   3.548  1.00  0.00    -0.359 OA
HETATM   27  H   UNL     1      42.942 -13.434   3.042  1.00  0.00     0.213 HD
ENDBRANCH   1  26
BRANCH   2  28
HETATM   28  C   UNL     1      42.387 -16.778   4.556  1.00  0.00     0.120 A 
HETATM   29  C   UNL     1      42.122 -17.667   3.507  1.00  0.00     0.146 A 
HETATM   30  F   UNL     1      41.025 -17.529   2.748  1.00  0.00    -0.204 F 
HETATM   31  C   UNL     1      42.950 -18.759   3.234  1.00  0.00     0.045 A 
HETATM   32  C   UNL     1      44.089 -18.980   4.001  1.00  0.00     0.006 A 
HETATM   33  C   UNL     1      44.393 -18.103   5.037  1.00  0.00     0.045 A 
HETATM   34  C   UNL     1      43.551 -17.020   5.305  1.00  0.00     0.146 A 
HETATM   35  F   UNL     1      43.945 -16.156   6.254  1.00  0.00    -0.204 F 
ENDBRANCH   2  28
TORSDOF 6
ENDMDL
MODEL 10
REMARK VINA RESULT:      -7.7      3.120      6.867
REMARK  6 active torsions:
REMARK  status: ('A' for Active; 'I' for Inactive)
REMARK    1  A    between atoms: O_2  and  C_3 
REMARK    2  A    between atoms: C_6  and  C_7 
REMARK    3  A    between atoms: C_7  and  N_8 
REMARK       I    between atoms: N_8  and  C_9 
REMARK    4  A    between atoms: C_9  and  C_10 
REMARK    5  A    between atoms: C_10  and  O_11 
REMARK    6  A    between atoms: N_12  and  C_13 
ROOT
HETATM    1  C   UNL     1      41.698 -12.952   2.600  1.00  0.00     0.256 C 
HETATM    2  N   UNL     1      41.182 -14.323   2.540  1.00  0.00    -0.248 N 
HETATM    3  C   UNL     1      39.825 -14.560   2.675  1.00  0.00     0.330 C 
HETATM    4  O   UNL     1      39.250 -15.567   2.261  1.00  0.00    -0.246 OA
HETATM    5  N   UNL     1      39.076 -13.590   3.274  1.00  0.00    -0.308 N 
HETATM    6  C   UNL     1      39.586 -12.422   3.826  1.00  0.00     0.048 A 
HETATM    7  C   UNL     1      40.909 -12.083   3.562  1.00  0.00     0.034 A 
HETATM    8  C   UNL     1      38.776 -11.616   4.626  1.00  0.00     0.030 A 
HETATM    9  C   UNL     1      39.300 -10.451   5.184  1.00  0.00     0.002 A 
HETATM   10  C   UNL     1      40.623 -10.093   4.934  1.00  0.00     0.001 A 
HETATM   11  C   UNL     1      41.422 -10.900   4.121  1.00  0.00     0.015 A 
HETATM   12  H   UNL     1      38.110 -13.845   3.430  1.00  0.00     0.170 HD
ENDROOT
BRANCH   1  13
HETATM   13  C   UNL     1      41.714 -12.233   1.187  1.00  0.00     0.279 C 
HETATM   14  N   UNL     1      40.519 -11.761   0.679  1.00  0.00    -0.352 N 
HETATM   15  H   UNL     1      39.655 -12.116   1.068  1.00  0.00     0.162 HD
HETATM   16  O   UNL     1      42.788 -12.056   0.600  1.00  0.00    -0.268 OA
BRANCH  14  17
HETATM   17  C   UNL     1      40.481 -11.265  -0.677  1.00  0.00     0.161 C 
BRANCH  17  18
HETATM   18  C   UNL     1      40.346 -12.369  -1.690  1.00  0.00    -0.040 A 
HETATM   19  C   UNL     1      41.392 -12.646  -2.581  1.00  0.00     0.011 A 
HETATM   20  C   UNL     1      41.312 -13.727  -3.465  1.00  0.00     0.037 A 
HETATM   21  C   UNL     1      40.184 -14.547  -3.469  1.00  0.00     0.068 A 
HETATM   22  C   UNL     1      39.124 -14.252  -2.611  1.00  0.00     0.037 A 
HETATM   23  C   UNL     1      39.202 -13.175  -1.724  1.00  0.00     0.011 A 
BRANCH  21  24
HETATM   24  O   UNL     1      39.997 -15.648  -4.259  1.00  0.00    -0.356 OA
HETATM   25  C   UNL     1      38.735 -16.296  -4.151  1.00  0.00     0.210 C 
ENDBRANCH  21  24
ENDBRANCH  17  18
ENDBRANCH  14  17
ENDBRANCH   1  13
BRANCH   1  26
HETATM   26  O   UNL     1      43.032 -12.998   3.129  1.00  0.00    -0.359 OA
HETATM   27  H   UNL     1      42.915 -13.204   4.078  1.00  0.00     0.213 HD
ENDBRANCH   1  26
BRANCH   2  28
HETATM   28  C   UNL     1      42.057 -15.426   2.242  1.00  0.00     0.120 A 
HETATM   29  C   UNL     1      42.742 -16.149   3.228  1.00  0.00     0.146 A 
HETATM   30  F   UNL     1      42.660 -15.802   4.519  1.00  0.00    -0.204 F 
HETATM   31  C   UNL     1      43.577 -17.224   2.911  1.00  0.00     0.045 A 
HETATM   32  C   UNL     1      43.734 -17.620   1.587  1.00  0.00     0.006 A 
HETATM   33  C   UNL     1      43.050 -16.936   0.587  1.00  0.00     0.045 A 
HETATM   34  C   UNL     1      42.225 -15.857   0.915  1.00  0.00     0.146 A 
HETATM   35  F   UNL     1      41.519 -15.298  -0.080  1.00  0.00    -0.204 F 
ENDBRANCH   2  28
TORSDOF 6
ENDMDL
