MODEL 1
REMARK VINA RESULT:      -9.2      0.000      0.000
REMARK  3 active torsions:
REMARK  status: ('A' for Active; 'I' for Inactive)
REMARK    1  A    between atoms: N_3  and  C_4 
REMARK    2  A    between atoms: C_6  and  C_7 
REMARK       I    between atoms: C_7  and  N_8 
REMARK    3  A    between atoms: N_8  and  C_9 
ROOT
HETATM    1  C   UNL     1      40.770 -15.622   6.204  1.00  0.00     0.072 C 
HETATM    2  C   UNL     1      41.608 -15.767   4.917  1.00  0.00     0.149 C 
HETATM    3  N   UNL     1      42.537 -14.627   4.719  1.00  0.00    -0.267 N 
HETATM    4  C   UNL     1      42.872 -14.172   3.448  1.00  0.00     0.326 C 
HETATM    5  O   UNL     1      43.672 -13.273   3.195  1.00  0.00    -0.247 OA
HETATM    6  N   UNL     1      42.253 -14.785   2.397  1.00  0.00    -0.334 N 
HETATM    7  O   UNL     1      42.349 -16.998   5.058  1.00  0.00    -0.319 OA
HETATM    8  C   UNL     1      42.718 -17.634   3.905  1.00  0.00     0.080 A 
HETATM    9  C   UNL     1      42.326 -17.195   2.636  1.00  0.00    -0.002 A 
HETATM   10  C   UNL     1      43.499 -18.778   4.048  1.00  0.00     0.037 A 
HETATM   11  C   UNL     1      43.910 -19.486   2.919  1.00  0.00     0.003 A 
HETATM   12  C   UNL     1      43.543 -19.044   1.649  1.00  0.00     0.001 A 
HETATM   13  C   UNL     1      42.756 -17.899   1.504  1.00  0.00     0.012 A 
HETATM   14  C   UNL     1      40.604 -15.854   3.761  1.00  0.00     0.092 C 
HETATM   15  C   UNL     1      41.456 -15.975   2.522  1.00  0.00     0.127 C 
HETATM   16  H   UNL     1      42.627 -14.517   1.495  1.00  0.00     0.165 HD
ENDROOT
BRANCH   3  17
HETATM   17  C   UNL     1      43.242 -14.082   5.835  1.00  0.00     0.043 A 
HETATM   18  C   UNL     1      42.763 -12.961   6.521  1.00  0.00     0.047 A 
HETATM   19  C   UNL     1      43.474 -12.461   7.620  1.00  0.00     0.034 A 
HETATM   20  C   UNL     1      44.690 -13.033   8.003  1.00  0.00     0.017 A 
HETATM   21  C   UNL     1      45.166 -14.153   7.327  1.00  0.00     0.003 A 
HETATM   22  C   UNL     1      44.433 -14.688   6.264  1.00  0.00     0.030 A 
BRANCH  19  23
HETATM   23  C   UNL     1      42.930 -11.353   8.436  1.00  0.00     0.252 C 
HETATM   24  N   UNL     1      43.090 -11.509   9.796  1.00  0.00    -0.352 N 
HETATM   25  H   UNL     1      43.534 -12.349  10.146  1.00  0.00     0.163 HD
HETATM   26  O   UNL     1      42.442 -10.370   7.896  1.00  0.00    -0.268 OA
BRANCH  24  27
HETATM   27  C   UNL     1      42.667 -10.501  10.744  1.00  0.00     0.084 C 
HETATM   28  C   UNL     1      41.585 -11.012  11.688  1.00  0.00     0.025 C 
HETATM   29  C   UNL     1      41.654 -10.024  12.840  1.00  0.00     0.002 C 
HETATM   30  C   UNL     1      43.145  -9.776  13.030  1.00  0.00     0.002 C 
HETATM   31  C   UNL     1      43.799 -10.062  11.678  1.00  0.00     0.025 C 
ENDBRANCH  24  27
ENDBRANCH  19  23
ENDBRANCH   3  17
TORSDOF 3
ENDMDL
MODEL 2
REMARK VINA RESULT:      -9.0      1.634      2.161
REMARK  3 active torsions:
REMARK  status: ('A' for Active; 'I' for Inactive)
REMARK    1  A    between atoms: N_3  and  C_4 
REMARK    2  A    between atoms: C_6  and  C_7 
REMARK       I    between atoms: C_7  and  N_8 
REMARK    3  A    between atoms: N_8  and  C_9 
ROOT
HETATM    1  C   UNL     1      43.536 -16.625   7.975  1.00  0.00     0.072 C 
HETATM    2  C   UNL     1      42.949 -16.217   6.607  1.00  0.00     0.149 C 
HETATM    3  N   UNL     1      42.991 -14.749   6.393  1.00  0.00    -0.267 N 
HETATM    4  C   UNL     1      42.011 -14.093   5.655  1.00  0.00     0.326 C 
HETATM    5  O   UNL     1      41.998 -12.894   5.384  1.00  0.00    -0.247 OA
HETATM    6  N   UNL     1      40.978 -14.858   5.194  1.00  0.00    -0.334 N 
HETATM    7  O   UNL     1      43.750 -16.890   5.612  1.00  0.00    -0.319 OA
HETATM    8  C   UNL     1      43.151 -17.154   4.411  1.00  0.00     0.080 A 
HETATM    9  C   UNL     1      41.800 -16.890   4.161  1.00  0.00    -0.002 A 
HETATM   10  C   UNL     1      43.953 -17.734   3.430  1.00  0.00     0.037 A 
HETATM   11  C   UNL     1      43.412 -18.039   2.181  1.00  0.00     0.003 A 
HETATM   12  C   UNL     1      42.072 -17.758   1.915  1.00  0.00     0.001 A 
HETATM   13  C   UNL     1      41.267 -17.182   2.899  1.00  0.00     0.012 A 
HETATM   14  C   UNL     1      41.503 -16.727   6.593  1.00  0.00     0.092 C 
HETATM   15  C   UNL     1      40.959 -16.294   5.254  1.00  0.00     0.127 C 
HETATM   16  H   UNL     1      40.366 -14.369   4.552  1.00  0.00     0.165 HD
ENDROOT
BRANCH   3  17
HETATM   17  C   UNL     1      44.137 -14.002   6.800  1.00  0.00     0.043 A 
HETATM   18  C   UNL     1      44.074 -13.091   7.860  1.00  0.00     0.047 A 
HETATM   19  C   UNL     1      45.222 -12.385   8.241  1.00  0.00     0.034 A 
HETATM   20  C   UNL     1      46.419 -12.535   7.535  1.00  0.00     0.017 A 
HETATM   21  C   UNL     1      46.487 -13.446   6.485  1.00  0.00     0.003 A 
HETATM   22  C   UNL     1      45.359 -14.192   6.135  1.00  0.00     0.030 A 
BRANCH  19  23
HETATM   23  C   UNL     1      45.213 -11.508   9.432  1.00  0.00     0.252 C 
HETATM   24  N   UNL     1      44.239 -11.807  10.359  1.00  0.00    -0.352 N 
HETATM   25  H   UNL     1      43.595 -12.566  10.169  1.00  0.00     0.163 HD
HETATM   26  O   UNL     1      46.066 -10.640   9.566  1.00  0.00    -0.268 OA
BRANCH  24  27
HETATM   27  C   UNL     1      44.115 -11.089  11.608  1.00  0.00     0.084 C 
HETATM   28  C   UNL     1      43.516  -9.699  11.421  1.00  0.00     0.025 C 
HETATM   29  C   UNL     1      43.038  -9.350  12.821  1.00  0.00     0.002 C 
HETATM   30  C   UNL     1      42.454 -10.654  13.351  1.00  0.00     0.002 C 
HETATM   31  C   UNL     1      43.159 -11.776  12.588  1.00  0.00     0.025 C 
ENDBRANCH  24  27
ENDBRANCH  19  23
ENDBRANCH   3  17
TORSDOF 3
ENDMDL
MODEL 3
REMARK VINA RESULT:      -9.0      4.068      7.699
REMARK  3 active torsions:
REMARK  status: ('A' for Active; 'I' for Inactive)
REMARK    1  A    between atoms: N_3  and  C_4 
REMARK    2  A    between atoms: C_6  and  C_7 
REMARK       I    between atoms: C_7  and  N_8 
REMARK    3  A    between atoms: N_8  and  C_9 
ROOT
HETATM    1  C   UNL     1      43.800 -14.015   5.001  1.00  0.00     0.072 C 
HETATM    2  C   UNL     1      43.317 -15.476   5.115  1.00  0.00     0.149 C 
HETATM    3  N   UNL     1      41.866 -15.568   5.409  1.00  0.00    -0.267 N 
HETATM    4  C   UNL     1      41.343 -16.603   6.178  1.00  0.00     0.326 C 
HETATM    5  O   UNL     1      40.152 -16.784   6.424  1.00  0.00    -0.247 OA
HETATM    6  N   UNL     1      42.240 -17.491   6.700  1.00  0.00    -0.334 N 
HETATM    7  O   UNL     1      43.609 -16.094   3.843  1.00  0.00    -0.319 OA
HETATM    8  C   UNL     1      43.802 -17.448   3.843  1.00  0.00     0.080 A 
HETATM    9  C   UNL     1      43.822 -18.214   5.013  1.00  0.00    -0.002 A 
HETATM   10  C   UNL     1      44.006 -18.047   2.601  1.00  0.00     0.037 A 
HETATM   11  C   UNL     1      44.216 -19.423   2.519  1.00  0.00     0.003 A 
HETATM   12  C   UNL     1      44.215 -20.198   3.679  1.00  0.00     0.001 A 
HETATM   13  C   UNL     1      44.015 -19.598   4.923  1.00  0.00     0.012 A 
HETATM   14  C   UNL     1      44.141 -16.112   6.242  1.00  0.00     0.092 C 
HETATM   15  C   UNL     1      43.630 -17.528   6.336  1.00  0.00     0.127 C 
HETATM   16  H   UNL     1      41.807 -18.296   7.133  1.00  0.00     0.165 HD
ENDROOT
BRANCH   3  17
HETATM   17  C   UNL     1      40.951 -14.683   4.762  1.00  0.00     0.043 A 
HETATM   18  C   UNL     1      40.607 -14.848   3.416  1.00  0.00     0.047 A 
HETATM   19  C   UNL     1      39.696 -13.968   2.818  1.00  0.00     0.034 A 
HETATM   20  C   UNL     1      39.171 -12.890   3.533  1.00  0.00     0.017 A 
HETATM   21  C   UNL     1      39.505 -12.727   4.875  1.00  0.00     0.003 A 
HETATM   22  C   UNL     1      40.372 -13.634   5.491  1.00  0.00     0.030 A 
BRANCH  19  23
HETATM   23  C   UNL     1      39.224 -14.191   1.433  1.00  0.00     0.252 C 
HETATM   24  N   UNL     1      40.222 -14.226   0.484  1.00  0.00    -0.352 N 
HETATM   25  H   UNL     1      41.182 -14.081   0.774  1.00  0.00     0.163 HD
HETATM   26  O   UNL     1      38.037 -14.386   1.209  1.00  0.00    -0.268 OA
BRANCH  24  27
HETATM   27  C   UNL     1      39.951 -14.486  -0.913  1.00  0.00     0.084 C 
HETATM   28  C   UNL     1      40.002 -13.219  -1.759  1.00  0.00     0.025 C 
HETATM   29  C   UNL     1      40.181 -13.763  -3.166  1.00  0.00     0.002 C 
HETATM   30  C   UNL     1      41.158 -14.921  -2.996  1.00  0.00     0.002 C 
HETATM   31  C   UNL     1      40.998 -15.403  -1.553  1.00  0.00     0.025 C 
ENDBRANCH  24  27
ENDBRANCH  19  23
ENDBRANCH   3  17
TORSDOF 3
ENDMDL
MODEL 4
REMARK VINA RESULT:      -8.9      2.156      3.449
REMARK  3 active torsions:
REMARK  status: ('A' for Active; 'I' for Inactive)
REMARK    1  A    between atoms: N_3  and  C_4 
REMARK    2  A    between atoms: C_6  and  C_7 
REMARK       I    between atoms: C_7  and  N_8 
REMARK    3  A    between atoms: N_8  and  C_9 
ROOT
HETATM    1  C   UNL     1      43.921 -13.975   5.461  1.00  0.00     0.072 C 
HETATM    2  C   UNL     1      43.309 -15.347   5.107  1.00  0.00     0.149 C 
HETATM    3  N   UNL     1      41.881 -15.444   5.499  1.00  0.00    -0.267 N 
HETATM    4  C   UNL     1      41.318 -16.648   5.909  1.00  0.00     0.326 C 
HETATM    5  O   UNL     1      40.137 -16.827   6.197  1.00  0.00    -0.247 OA
HETATM    6  N   UNL     1      42.161 -17.719   5.994  1.00  0.00    -0.334 N 
HETATM    7  O   UNL     1      43.446 -15.489   3.677  1.00  0.00    -0.319 OA
HETATM    8  C   UNL     1      43.507 -16.764   3.186  1.00  0.00     0.080 A 
HETATM    9  C   UNL     1      43.539 -17.895   4.008  1.00  0.00    -0.002 A 
HETATM   10  C   UNL     1      43.561 -16.894   1.799  1.00  0.00     0.037 A 
HETATM   11  C   UNL     1      43.630 -18.162   1.223  1.00  0.00     0.003 A 
HETATM   12  C   UNL     1      43.640 -19.297   2.033  1.00  0.00     0.001 A 
HETATM   13  C   UNL     1      43.590 -19.167   3.422  1.00  0.00     0.012 A 
HETATM   14  C   UNL     1      44.148 -16.393   5.852  1.00  0.00     0.092 C 
HETATM   15  C   UNL     1      43.511 -17.715   5.499  1.00  0.00     0.127 C 
HETATM   16  H   UNL     1      41.686 -18.596   6.162  1.00  0.00     0.165 HD
ENDROOT
BRANCH   3  17
HETATM   17  C   UNL     1      41.011 -14.330   5.298  1.00  0.00     0.043 A 
HETATM   18  C   UNL     1      40.747 -13.417   6.325  1.00  0.00     0.047 A 
HETATM   19  C   UNL     1      39.898 -12.329   6.088  1.00  0.00     0.034 A 
HETATM   20  C   UNL     1      39.262 -12.175   4.853  1.00  0.00     0.017 A 
HETATM   21  C   UNL     1      39.528 -13.077   3.827  1.00  0.00     0.003 A 
HETATM   22  C   UNL     1      40.416 -14.135   4.042  1.00  0.00     0.030 A 
BRANCH  19  23
HETATM   23  C   UNL     1      39.697 -11.284   7.117  1.00  0.00     0.252 C 
HETATM   24  N   UNL     1      40.530 -11.387   8.209  1.00  0.00    -0.352 N 
HETATM   25  H   UNL     1      41.191 -12.154   8.255  1.00  0.00     0.163 HD
HETATM   26  O   UNL     1      38.887 -10.386   6.935  1.00  0.00    -0.268 OA
BRANCH  24  27
HETATM   27  C   UNL     1      40.512 -10.423   9.288  1.00  0.00     0.084 C 
HETATM   28  C   UNL     1      40.229 -11.071  10.639  1.00  0.00     0.025 C 
HETATM   29  C   UNL     1      40.728 -10.024  11.621  1.00  0.00     0.002 C 
HETATM   30  C   UNL     1      42.009  -9.498  10.986  1.00  0.00     0.002 C 
HETATM   31  C   UNL     1      41.865  -9.733   9.482  1.00  0.00     0.025 C 
ENDBRANCH  24  27
ENDBRANCH  19  23
ENDBRANCH   3  17
TORSDOF 3
ENDMDL
MODEL 5
REMARK VINA RESULT:      -8.7      2.350      8.637
REMARK  3 active torsions:
REMARK  status: ('A' for Active; 'I' for Inactive)
REMARK    1  A    between atoms: N_3  and  C_4 
REMARK    2  A    between atoms: C_6  and  C_7 
REMARK       I    between atoms: C_7  and  N_8 
REMARK    3  A    between atoms: N_8  and  C_9 
ROOT
HETATM    1  C   UNL     1      41.402  -8.831   6.592  1.00  0.00     0.072 C 
HETATM    2  C   UNL     1      41.215  -9.767   7.804  1.00  0.00     0.149 C 
HETATM    3  N   UNL     1      40.350 -10.930   7.488  1.00  0.00    -0.267 N 
HETATM    4  C   UNL     1      39.518 -11.501   8.447  1.00  0.00     0.326 C 
HETATM    5  O   UNL     1      38.813 -12.495   8.286  1.00  0.00    -0.247 OA
HETATM    6  N   UNL     1      39.493 -10.898   9.672  1.00  0.00    -0.334 N 
HETATM    7  O   UNL     1      42.538 -10.214   8.172  1.00  0.00    -0.319 OA
HETATM    8  C   UNL     1      42.728 -10.576   9.477  1.00  0.00     0.080 A 
HETATM    9  C   UNL     1      41.739 -10.438  10.456  1.00  0.00    -0.002 A 
HETATM   10  C   UNL     1      43.985 -11.079   9.806  1.00  0.00     0.037 A 
HETATM   11  C   UNL     1      44.258 -11.465  11.118  1.00  0.00     0.003 A 
HETATM   12  C   UNL     1      43.271 -11.352  12.097  1.00  0.00     0.001 A 
HETATM   13  C   UNL     1      42.013 -10.844  11.769  1.00  0.00     0.012 A 
HETATM   14  C   UNL     1      40.591  -8.911   8.913  1.00  0.00     0.092 C 
HETATM   15  C   UNL     1      40.406  -9.861  10.071  1.00  0.00     0.127 C 
HETATM   16  H   UNL     1      38.985 -11.423  10.372  1.00  0.00     0.165 HD
ENDROOT
BRANCH   3  17
HETATM   17  C   UNL     1      40.481 -11.595   6.232  1.00  0.00     0.043 A 
HETATM   18  C   UNL     1      41.590 -12.400   5.946  1.00  0.00     0.047 A 
HETATM   19  C   UNL     1      41.679 -13.047   4.708  1.00  0.00     0.034 A 
HETATM   20  C   UNL     1      40.702 -12.852   3.728  1.00  0.00     0.017 A 
HETATM   21  C   UNL     1      39.595 -12.057   4.011  1.00  0.00     0.003 A 
HETATM   22  C   UNL     1      39.474 -11.452   5.265  1.00  0.00     0.030 A 
BRANCH  19  23
HETATM   23  C   UNL     1      42.777 -13.998   4.426  1.00  0.00     0.252 C 
HETATM   24  N   UNL     1      42.367 -15.279   4.126  1.00  0.00    -0.352 N 
HETATM   25  H   UNL     1      41.377 -15.493   4.139  1.00  0.00     0.163 HD
HETATM   26  O   UNL     1      43.939 -13.612   4.409  1.00  0.00    -0.268 OA
BRANCH  24  27
HETATM   27  C   UNL     1      43.299 -16.326   3.773  1.00  0.00     0.084 C 
HETATM   28  C   UNL     1      42.744 -17.717   4.060  1.00  0.00     0.025 C 
HETATM   29  C   UNL     1      43.622 -18.611   3.200  1.00  0.00     0.002 C 
HETATM   30  C   UNL     1      43.798 -17.825   1.905  1.00  0.00     0.002 C 
HETATM   31  C   UNL     1      43.612 -16.353   2.274  1.00  0.00     0.025 C 
ENDBRANCH  24  27
ENDBRANCH  19  23
ENDBRANCH   3  17
TORSDOF 3
ENDMDL
MODEL 6
REMARK VINA RESULT:      -8.7      3.858      7.546
REMARK  3 active torsions:
REMARK  status: ('A' for Active; 'I' for Inactive)
REMARK    1  A    between atoms: N_3  and  C_4 
REMARK    2  A    between atoms: C_6  and  C_7 
REMARK       I    between atoms: C_7  and  N_8 
REMARK    3  A    between atoms: N_8  and  C_9 
ROOT
HETATM    1  C   UNL     1      40.031 -15.151   5.724  1.00  0.00     0.072 C 
HETATM    2  C   UNL     1      40.878 -14.605   4.555  1.00  0.00     0.149 C 
HETATM    3  N   UNL     1      42.322 -14.540   4.889  1.00  0.00    -0.267 N 
HETATM    4  C   UNL     1      43.147 -13.549   4.365  1.00  0.00     0.326 C 
HETATM    5  O   UNL     1      44.359 -13.454   4.546  1.00  0.00    -0.247 OA
HETATM    6  N   UNL     1      42.547 -12.606   3.581  1.00  0.00    -0.334 N 
HETATM    7  O   UNL     1      40.661 -15.507   3.449  1.00  0.00    -0.319 OA
HETATM    8  C   UNL     1      40.821 -14.994   2.192  1.00  0.00     0.080 A 
HETATM    9  C   UNL     1      41.083 -13.641   1.950  1.00  0.00    -0.002 A 
HETATM   10  C   UNL     1      40.687 -15.889   1.132  1.00  0.00     0.037 A 
HETATM   11  C   UNL     1      40.830 -15.439  -0.180  1.00  0.00     0.003 A 
HETATM   12  C   UNL     1      41.113 -14.097  -0.429  1.00  0.00     0.001 A 
HETATM   13  C   UNL     1      41.244 -13.198   0.631  1.00  0.00     0.012 A 
HETATM   14  C   UNL     1      40.328 -13.207   4.247  1.00  0.00     0.092 C 
HETATM   15  C   UNL     1      41.189 -12.699   3.116  1.00  0.00     0.127 C 
HETATM   16  H   UNL     1      43.201 -11.991   3.114  1.00  0.00     0.165 HD
ENDROOT
BRANCH   3  17
HETATM   17  C   UNL     1      42.931 -15.600   5.626  1.00  0.00     0.043 A 
HETATM   18  C   UNL     1      43.440 -16.735   4.984  1.00  0.00     0.047 A 
HETATM   19  C   UNL     1      44.042 -17.749   5.739  1.00  0.00     0.034 A 
HETATM   20  C   UNL     1      44.088 -17.671   7.133  1.00  0.00     0.017 A 
HETATM   21  C   UNL     1      43.590 -16.541   7.774  1.00  0.00     0.003 A 
HETATM   22  C   UNL     1      43.036 -15.501   7.022  1.00  0.00     0.030 A 
BRANCH  19  23
HETATM   23  C   UNL     1      44.695 -18.901   5.077  1.00  0.00     0.252 C 
HETATM   24  N   UNL     1      44.125 -19.275   3.880  1.00  0.00    -0.352 N 
HETATM   25  H   UNL     1      43.310 -18.774   3.546  1.00  0.00     0.163 HD
HETATM   26  O   UNL     1      45.698 -19.406   5.564  1.00  0.00    -0.268 OA
BRANCH  24  27
HETATM   27  C   UNL     1      44.662 -20.345   3.069  1.00  0.00     0.084 C 
HETATM   28  C   UNL     1      44.513 -21.708   3.735  1.00  0.00     0.025 C 
HETATM   29  C   UNL     1      44.670 -22.669   2.569  1.00  0.00     0.002 C 
HETATM   30  C   UNL     1      43.912 -21.998   1.429  1.00  0.00     0.002 C 
HETATM   31  C   UNL     1      43.924 -20.500   1.736  1.00  0.00     0.025 C 
ENDBRANCH  24  27
ENDBRANCH  19  23
ENDBRANCH   3  17
TORSDOF 3
ENDMDL
MODEL 7
REMARK VINA RESULT:      -8.6      1.981      2.952
REMARK  3 active torsions:
REMARK  status: ('A' for Active; 'I' for Inactive)
REMARK    1  A    between atoms: N_3  and  C_4 
REMARK    2  A    between atoms: C_6  and  C_7 
REMARK       I    between atoms: C_7  and  N_8 
REMARK    3  A    between atoms: N_8  and  C_9 
ROOT
HETATM    1  C   UNL     1      39.739 -15.035   4.676  1.00  0.00     0.072 C 
HETATM    2  C   UNL     1      41.240 -15.389   4.734  1.00  0.00     0.149 C 
HETATM    3  N   UNL     1      42.103 -14.249   4.337  1.00  0.00    -0.267 N 
HETATM    4  C   UNL     1      43.315 -14.446   3.684  1.00  0.00     0.326 C 
HETATM    5  O   UNL     1      44.113 -13.565   3.370  1.00  0.00    -0.247 OA
HETATM    6  N   UNL     1      43.639 -15.735   3.371  1.00  0.00    -0.334 N 
HETATM    7  O   UNL     1      41.509 -15.768   6.101  1.00  0.00    -0.319 OA
HETATM    8  C   UNL     1      42.555 -16.622   6.311  1.00  0.00     0.080 A 
HETATM    9  C   UNL     1      43.287 -17.200   5.269  1.00  0.00    -0.002 A 
HETATM   10  C   UNL     1      42.857 -16.921   7.639  1.00  0.00     0.037 A 
HETATM   11  C   UNL     1      43.907 -17.790   7.934  1.00  0.00     0.003 A 
HETATM   12  C   UNL     1      44.656 -18.354   6.902  1.00  0.00     0.001 A 
HETATM   13  C   UNL     1      44.352 -18.058   5.572  1.00  0.00     0.012 A 
HETATM   14  C   UNL     1      41.436 -16.575   3.782  1.00  0.00     0.092 C 
HETATM   15  C   UNL     1      42.912 -16.880   3.850  1.00  0.00     0.127 C 
HETATM   16  H   UNL     1      44.583 -15.843   3.024  1.00  0.00     0.165 HD
ENDROOT
BRANCH   3  17
HETATM   17  C   UNL     1      41.781 -12.928   4.773  1.00  0.00     0.043 A 
HETATM   18  C   UNL     1      42.095 -12.491   6.064  1.00  0.00     0.047 A 
HETATM   19  C   UNL     1      41.776 -11.183   6.453  1.00  0.00     0.034 A 
HETATM   20  C   UNL     1      41.093 -10.327   5.586  1.00  0.00     0.017 A 
HETATM   21  C   UNL     1      40.786 -10.757   4.298  1.00  0.00     0.003 A 
HETATM   22  C   UNL     1      41.150 -12.042   3.887  1.00  0.00     0.030 A 
BRANCH  19  23
HETATM   23  C   UNL     1      42.204 -10.657   7.769  1.00  0.00     0.252 C 
HETATM   24  N   UNL     1      42.788 -11.589   8.598  1.00  0.00    -0.352 N 
HETATM   25  H   UNL     1      42.868 -12.548   8.282  1.00  0.00     0.163 HD
HETATM   26  O   UNL     1      42.084  -9.467   8.026  1.00  0.00    -0.268 OA
BRANCH  24  27
HETATM   27  C   UNL     1      43.314 -11.243   9.900  1.00  0.00     0.084 C 
HETATM   28  C   UNL     1      42.230 -11.206  10.972  1.00  0.00     0.025 C 
HETATM   29  C   UNL     1      43.030 -11.316  12.259  1.00  0.00     0.002 C 
HETATM   30  C   UNL     1      44.117 -12.334  11.936  1.00  0.00     0.002 C 
HETATM   31  C   UNL     1      44.318 -12.274  10.422  1.00  0.00     0.025 C 
ENDBRANCH  24  27
ENDBRANCH  19  23
ENDBRANCH   3  17
TORSDOF 3
ENDMDL
MODEL 8
REMARK VINA RESULT:      -8.4      4.648      7.986
REMARK  3 active torsions:
REMARK  status: ('A' for Active; 'I' for Inactive)
REMARK    1  A    between atoms: N_3  and  C_4 
REMARK    2  A    between atoms: C_6  and  C_7 
REMARK       I    between atoms: C_7  and  N_8 
REMARK    3  A    between atoms: N_8  and  C_9 
ROOT
HETATM    1  C   UNL     1      43.000 -13.569   2.902  1.00  0.00     0.072 C 
HETATM    2  C   UNL     1      41.604 -13.823   2.297  1.00  0.00     0.149 C 
HETATM    3  N   UNL     1      41.105 -15.191   2.587  1.00  0.00    -0.267 N 
HETATM    4  C   UNL     1      40.293 -15.876   1.689  1.00  0.00     0.326 C 
HETATM    5  O   UNL     1      39.795 -16.984   1.873  1.00  0.00    -0.247 OA
HETATM    6  N   UNL     1      40.032 -15.252   0.503  1.00  0.00    -0.334 N 
HETATM    7  O   UNL     1      40.728 -12.837   2.885  1.00  0.00    -0.319 OA
HETATM    8  C   UNL     1      39.627 -12.477   2.159  1.00  0.00     0.080 A 
HETATM    9  C   UNL     1      39.383 -12.945   0.863  1.00  0.00    -0.002 A 
HETATM   10  C   UNL     1      38.746 -11.583   2.766  1.00  0.00     0.037 A 
HETATM   11  C   UNL     1      37.603 -11.163   2.086  1.00  0.00     0.003 A 
HETATM   12  C   UNL     1      37.341 -11.642   0.803  1.00  0.00     0.001 A 
HETATM   13  C   UNL     1      38.224 -12.534   0.192  1.00  0.00     0.012 A 
HETATM   14  C   UNL     1      41.747 -13.607   0.786  1.00  0.00     0.092 C 
HETATM   15  C   UNL     1      40.372 -13.882   0.229  1.00  0.00     0.127 C 
HETATM   16  H   UNL     1      39.332 -15.723  -0.056  1.00  0.00     0.165 HD
ENDROOT
BRANCH   3  17
HETATM   17  C   UNL     1      41.314 -15.765   3.878  1.00  0.00     0.043 A 
HETATM   18  C   UNL     1      42.175 -16.852   4.060  1.00  0.00     0.047 A 
HETATM   19  C   UNL     1      42.365 -17.382   5.343  1.00  0.00     0.034 A 
HETATM   20  C   UNL     1      41.657 -16.876   6.436  1.00  0.00     0.017 A 
HETATM   21  C   UNL     1      40.805 -15.790   6.259  1.00  0.00     0.003 A 
HETATM   22  C   UNL     1      40.653 -15.223   4.991  1.00  0.00     0.030 A 
BRANCH  19  23
HETATM   23  C   UNL     1      43.360 -18.451   5.583  1.00  0.00     0.252 C 
HETATM   24  N   UNL     1      43.626 -19.245   4.489  1.00  0.00    -0.352 N 
HETATM   25  H   UNL     1      43.128 -19.073   3.624  1.00  0.00     0.163 HD
HETATM   26  O   UNL     1      43.921 -18.541   6.667  1.00  0.00    -0.268 OA
BRANCH  24  27
HETATM   27  C   UNL     1      44.609 -20.305   4.524  1.00  0.00     0.084 C 
HETATM   28  C   UNL     1      44.353 -21.296   5.654  1.00  0.00     0.025 C 
HETATM   29  C   UNL     1      45.149 -22.514   5.216  1.00  0.00     0.002 C 
HETATM   30  C   UNL     1      44.914 -22.592   3.712  1.00  0.00     0.002 C 
HETATM   31  C   UNL     1      44.587 -21.168   3.259  1.00  0.00     0.025 C 
ENDBRANCH  24  27
ENDBRANCH  19  23
ENDBRANCH   3  17
TORSDOF 3
ENDMDL
MODEL 9
REMARK VINA RESULT:      -8.1      3.434      6.728
REMARK  3 active torsions:
REMARK  status: ('A' for Active; 'I' for Inactive)
REMARK    1  A    between atoms: N_3  and  C_4 
REMARK    2  A    between atoms: C_6  and  C_7 
REMARK       I    between atoms: C_7  and  N_8 
REMARK    3  A    between atoms: N_8  and  C_9 
ROOT
HETATM    1  C   UNL     1      44.398 -13.983   5.886  1.00  0.00     0.072 C 
HETATM    2  C   UNL     1      43.427 -15.030   5.304  1.00  0.00     0.149 C 
HETATM    3  N   UNL     1      42.013 -14.583   5.367  1.00  0.00    -0.267 N 
HETATM    4  C   UNL     1      40.971 -15.486   5.551  1.00  0.00     0.326 C 
HETATM    5  O   UNL     1      39.774 -15.208   5.561  1.00  0.00    -0.247 OA
HETATM    6  N   UNL     1      41.320 -16.793   5.734  1.00  0.00    -0.334 N 
HETATM    7  O   UNL     1      43.827 -15.228   3.931  1.00  0.00    -0.319 OA
HETATM    8  C   UNL     1      43.529 -16.438   3.368  1.00  0.00     0.080 A 
HETATM    9  C   UNL     1      42.955 -17.491   4.087  1.00  0.00    -0.002 A 
HETATM   10  C   UNL     1      43.849 -16.592   2.020  1.00  0.00     0.037 A 
HETATM   11  C   UNL     1      43.581 -17.800   1.376  1.00  0.00     0.003 A 
HETATM   12  C   UNL     1      42.989 -18.848   2.080  1.00  0.00     0.001 A 
HETATM   13  C   UNL     1      42.671 -18.696   3.431  1.00  0.00     0.012 A 
HETATM   14  C   UNL     1      43.629 -16.307   6.130  1.00  0.00     0.092 C 
HETATM   15  C   UNL     1      42.653 -17.298   5.546  1.00  0.00     0.127 C 
HETATM   16  H   UNL     1      40.532 -17.428   5.727  1.00  0.00     0.165 HD
ENDROOT
BRANCH   3  17
HETATM   17  C   UNL     1      41.682 -13.226   5.068  1.00  0.00     0.043 A 
HETATM   18  C   UNL     1      41.575 -12.777   3.748  1.00  0.00     0.047 A 
HETATM   19  C   UNL     1      41.235 -11.442   3.492  1.00  0.00     0.034 A 
HETATM   20  C   UNL     1      41.060 -10.537   4.542  1.00  0.00     0.017 A 
HETATM   21  C   UNL     1      41.159 -10.983   5.857  1.00  0.00     0.003 A 
HETATM   22  C   UNL     1      41.444 -12.326   6.118  1.00  0.00     0.030 A 
BRANCH  19  23
HETATM   23  C   UNL     1      40.998 -10.971   2.110  1.00  0.00     0.252 C 
HETATM   24  N   UNL     1      42.021 -11.238   1.228  1.00  0.00    -0.352 N 
HETATM   25  H   UNL     1      42.855 -11.703   1.567  1.00  0.00     0.163 HD
HETATM   26  O   UNL     1      39.933 -10.447   1.811  1.00  0.00    -0.268 OA
BRANCH  24  27
HETATM   27  C   UNL     1      41.941 -10.898  -0.175  1.00  0.00     0.084 C 
HETATM   28  C   UNL     1      43.113 -10.036  -0.631  1.00  0.00     0.025 C 
HETATM   29  C   UNL     1      43.091 -10.214  -2.140  1.00  0.00     0.002 C 
HETATM   30  C   UNL     1      42.768 -11.691  -2.336  1.00  0.00     0.002 C 
HETATM   31  C   UNL     1      42.009 -12.129  -1.084  1.00  0.00     0.025 C 
ENDBRANCH  24  27
ENDBRANCH  19  23
ENDBRANCH   3  17
TORSDOF 3
ENDMDL
MODEL 10
REMARK VINA RESULT:      -8.0      2.712      4.300
REMARK  3 active torsions:
REMARK  status: ('A' for Active; 'I' for Inactive)
REMARK    1  A    between atoms: N_3  and  C_4 
REMARK    2  A    between atoms: C_6  and  C_7 
REMARK       I    between atoms: C_7  and  N_8 
REMARK    3  A    between atoms: N_8  and  C_9 
ROOT
HETATM    1  C   UNL     1      39.825 -16.724   2.322  1.00  0.00     0.072 C 
HETATM    2  C   UNL     1      41.146 -16.414   3.057  1.00  0.00     0.149 C 
HETATM    3  N   UNL     1      41.603 -15.020   2.829  1.00  0.00    -0.267 N 
HETATM    4  C   UNL     1      42.955 -14.695   2.781  1.00  0.00     0.326 C 
HETATM    5  O   UNL     1      43.417 -13.563   2.653  1.00  0.00    -0.247 OA
HETATM    6  N   UNL     1      43.837 -15.732   2.890  1.00  0.00    -0.334 N 
HETATM    7  O   UNL     1      40.885 -16.631   4.460  1.00  0.00    -0.319 OA
HETATM    8  C   UNL     1      41.954 -16.965   5.244  1.00  0.00     0.080 A 
HETATM    9  C   UNL     1      43.234 -17.192   4.728  1.00  0.00    -0.002 A 
HETATM   10  C   UNL     1      41.707 -17.097   6.609  1.00  0.00     0.037 A 
HETATM   11  C   UNL     1      42.746 -17.441   7.473  1.00  0.00     0.003 A 
HETATM   12  C   UNL     1      44.030 -17.647   6.971  1.00  0.00     0.001 A 
HETATM   13  C   UNL     1      44.278 -17.519   5.603  1.00  0.00     0.012 A 
HETATM   14  C   UNL     1      42.177 -17.416   2.523  1.00  0.00     0.092 C 
HETATM   15  C   UNL     1      43.455 -17.071   3.247  1.00  0.00     0.127 C 
HETATM   16  H   UNL     1      44.800 -15.436   2.987  1.00  0.00     0.165 HD
ENDROOT
BRANCH   3  17
HETATM   17  C   UNL     1      40.654 -13.953   2.825  1.00  0.00     0.043 A 
HETATM   18  C   UNL     1      40.342 -13.251   3.994  1.00  0.00     0.047 A 
HETATM   19  C   UNL     1      39.417 -12.201   3.949  1.00  0.00     0.034 A 
HETATM   20  C   UNL     1      38.755 -11.883   2.761  1.00  0.00     0.017 A 
HETATM   21  C   UNL     1      39.068 -12.575   1.594  1.00  0.00     0.003 A 
HETATM   22  C   UNL     1      40.030 -13.588   1.622  1.00  0.00     0.030 A 
BRANCH  19  23
HETATM   23  C   UNL     1      39.158 -11.365   5.143  1.00  0.00     0.252 C 
HETATM   24  N   UNL     1      40.050 -11.549   6.177  1.00  0.00    -0.352 N 
HETATM   25  H   UNL     1      40.787 -12.236   6.074  1.00  0.00     0.163 HD
HETATM   26  O   UNL     1      38.250 -10.545   5.138  1.00  0.00    -0.268 OA
BRANCH  24  27
HETATM   27  C   UNL     1      39.983 -10.781   7.400  1.00  0.00     0.084 C 
HETATM   28  C   UNL     1      39.252 -11.524   8.513  1.00  0.00     0.025 C 
HETATM   29  C   UNL     1      39.716 -10.795   9.763  1.00  0.00     0.002 C 
HETATM   30  C   UNL     1      41.195 -10.527   9.510  1.00  0.00     0.002 C 
HETATM   31  C   UNL     1      41.367 -10.495   7.991  1.00  0.00     0.025 C 
ENDBRANCH  24  27
ENDBRANCH  19  23
ENDBRANCH   3  17
TORSDOF 3
ENDMDL
