MODEL 1
REMARK VINA RESULT:      -7.7      0.000      0.000
REMARK  5 active torsions:
REMARK  status: ('A' for Active; 'I' for Inactive)
REMARK    1  A    between atoms: C_2  and  C_3 
REMARK    2  A    between atoms: C_3  and  N_4 
REMARK       I    between atoms: N_4  and  C_5 
REMARK    3  A    between atoms: C_5  and  C_6 
REMARK    4  A    between atoms: C_7  and  O_8 
REMARK    5  A    between atoms: O_8  and  C_9 
ROOT
HETATM    1  C   UNL     1      41.237 -15.031   1.055  1.00  0.00     0.121 C 
HETATM    2  C   UNL     1      41.879 -13.697   1.264  1.00  0.00     0.091 C 
HETATM    3  N   UNL     1      42.404 -12.679   1.452  1.00  0.00    -0.195 NA
HETATM    4  C   UNL     1      41.180 -15.273  -0.468  1.00  0.00     0.055 C 
ENDROOT
BRANCH   1   5
HETATM    5  C   UNL     1      39.803 -15.040   1.696  1.00  0.00     0.020 C 
HETATM    6  C   UNL     1      38.776 -14.181   0.942  1.00  0.00     0.013 C 
HETATM    7  C   UNL     1      39.809 -14.627   3.178  1.00  0.00     0.013 C 
ENDBRANCH   1   5
BRANCH   1   8
HETATM    8  N   UNL     1      42.103 -16.052   1.691  1.00  0.00    -0.335 N 
HETATM    9  C   UNL     1      41.837 -17.401   1.709  1.00  0.00     0.257 C 
HETATM   10  O   UNL     1      40.867 -17.895   1.146  1.00  0.00    -0.267 OA
HETATM   11  H   UNL     1      42.921 -15.712   2.189  1.00  0.00     0.164 HD
BRANCH   9  12
HETATM   12  C   UNL     1      42.742 -18.280   2.499  1.00  0.00     0.085 A 
HETATM   13  C   UNL     1      42.921 -18.218   3.880  1.00  0.00     0.185 A 
HETATM   14  N   UNL     1      43.719 -19.076   4.569  1.00  0.00    -0.236 NA
HETATM   15  C   UNL     1      44.394 -20.006   3.862  1.00  0.00     0.119 A 
HETATM   16  C   UNL     1      44.308 -20.129   2.487  1.00  0.00     0.020 A 
HETATM   17  C   UNL     1      43.471 -19.254   1.801  1.00  0.00     0.023 A 
BRANCH  13  18
HETATM   18  O   UNL     1      42.215 -17.258   4.597  1.00  0.00    -0.291 OA
BRANCH  18  19
HETATM   19  C   UNL     1      42.940 -16.319   5.293  1.00  0.00     0.078 A 
HETATM   20  C   UNL     1      43.255 -15.070   4.751  1.00  0.00     0.039 A 
HETATM   21  C   UNL     1      43.957 -14.137   5.519  1.00  0.00     0.026 A 
HETATM   22  C   UNL     1      44.316 -14.450   6.829  1.00  0.00     0.034 A 
HETATM   23 CL   UNL     1      45.183 -13.302   7.773  1.00  0.00    -0.084 Cl
HETATM   24  C   UNL     1      43.972 -15.683   7.383  1.00  0.00     0.026 A 
HETATM   25  C   UNL     1      43.274 -16.618   6.615  1.00  0.00     0.039 A 
ENDBRANCH  18  19
ENDBRANCH  13  18
ENDBRANCH   9  12
ENDBRANCH   1   8
TORSDOF 5
ENDMDL
MODEL 2
REMARK VINA RESULT:      -7.3      3.120      5.294
REMARK  5 active torsions:
REMARK  status: ('A' for Active; 'I' for Inactive)
REMARK    1  A    between atoms: C_2  and  C_3 
REMARK    2  A    between atoms: C_3  and  N_4 
REMARK       I    between atoms: N_4  and  C_5 
REMARK    3  A    between atoms: C_5  and  C_6 
REMARK    4  A    between atoms: C_7  and  O_8 
REMARK    5  A    between atoms: O_8  and  C_9 
ROOT
HETATM    1  C   UNL     1      43.048 -16.804   6.421  1.00  0.00     0.121 C 
HETATM    2  C   UNL     1      43.355 -17.053   7.862  1.00  0.00     0.091 C 
HETATM    3  N   UNL     1      43.596 -17.286   8.974  1.00  0.00    -0.195 NA
HETATM    4  C   UNL     1      44.060 -15.756   5.914  1.00  0.00     0.055 C 
ENDROOT
BRANCH   1   5
HETATM    5  C   UNL     1      41.568 -16.300   6.269  1.00  0.00     0.020 C 
HETATM    6  C   UNL     1      40.671 -17.235   5.443  1.00  0.00     0.013 C 
HETATM    7  C   UNL     1      41.478 -14.878   5.688  1.00  0.00     0.013 C 
ENDBRANCH   1   5
BRANCH   1   8
HETATM    8  N   UNL     1      43.244 -18.081   5.692  1.00  0.00    -0.335 N 
HETATM    9  C   UNL     1      44.456 -18.709   5.529  1.00  0.00     0.257 C 
HETATM   10  O   UNL     1      45.496 -18.287   6.024  1.00  0.00    -0.267 OA
HETATM   11  H   UNL     1      42.426 -18.482   5.243  1.00  0.00     0.164 HD
BRANCH   9  12
HETATM   12  C   UNL     1      44.506 -19.919   4.663  1.00  0.00     0.085 A 
HETATM   13  C   UNL     1      44.659 -19.911   3.278  1.00  0.00     0.185 A 
HETATM   14  N   UNL     1      44.751 -21.043   2.530  1.00  0.00    -0.236 NA
HETATM   15  C   UNL     1      44.650 -22.225   3.172  1.00  0.00     0.119 A 
HETATM   16  C   UNL     1      44.465 -22.338   4.537  1.00  0.00     0.020 A 
HETATM   17  C   UNL     1      44.392 -21.168   5.289  1.00  0.00     0.023 A 
BRANCH  13  18
HETATM   18  O   UNL     1      44.767 -18.685   2.629  1.00  0.00    -0.291 OA
BRANCH  18  19
HETATM   19  C   UNL     1      43.605 -18.007   2.345  1.00  0.00     0.078 A 
HETATM   20  C   UNL     1      42.417 -18.669   2.021  1.00  0.00     0.039 A 
HETATM   21  C   UNL     1      41.255 -17.931   1.783  1.00  0.00     0.026 A 
HETATM   22  C   UNL     1      41.282 -16.542   1.895  1.00  0.00     0.034 A 
HETATM   23 CL   UNL     1      39.850 -15.635   1.599  1.00  0.00    -0.084 Cl
HETATM   24  C   UNL     1      42.458 -15.882   2.252  1.00  0.00     0.026 A 
HETATM   25  C   UNL     1      43.622 -16.618   2.486  1.00  0.00     0.039 A 
ENDBRANCH  18  19
ENDBRANCH  13  18
ENDBRANCH   9  12
ENDBRANCH   1   8
TORSDOF 5
ENDMDL
MODEL 3
REMARK VINA RESULT:      -7.1      2.637      4.808
REMARK  5 active torsions:
REMARK  status: ('A' for Active; 'I' for Inactive)
REMARK    1  A    between atoms: C_2  and  C_3 
REMARK    2  A    between atoms: C_3  and  N_4 
REMARK       I    between atoms: N_4  and  C_5 
REMARK    3  A    between atoms: C_5  and  C_6 
REMARK    4  A    between atoms: C_7  and  O_8 
REMARK    5  A    between atoms: O_8  and  C_9 
ROOT
HETATM    1  C   UNL     1      40.958 -14.059   1.790  1.00  0.00     0.121 C 
HETATM    2  C   UNL     1      39.549 -14.546   1.683  1.00  0.00     0.091 C 
HETATM    3  N   UNL     1      38.461 -14.947   1.631  1.00  0.00    -0.195 NA
HETATM    4  C   UNL     1      40.906 -12.517   1.788  1.00  0.00     0.055 C 
ENDROOT
BRANCH   1   5
HETATM    5  C   UNL     1      41.808 -14.612   0.591  1.00  0.00     0.020 C 
HETATM    6  C   UNL     1      41.668 -13.794  -0.702  1.00  0.00     0.013 C 
HETATM    7  C   UNL     1      41.514 -16.090   0.282  1.00  0.00     0.013 C 
ENDBRANCH   1   5
BRANCH   1   8
HETATM    8  N   UNL     1      41.501 -14.538   3.084  1.00  0.00    -0.335 N 
HETATM    9  C   UNL     1      42.787 -14.320   3.521  1.00  0.00     0.257 C 
HETATM   10  O   UNL     1      43.600 -13.653   2.889  1.00  0.00    -0.267 OA
HETATM   11  H   UNL     1      40.886 -15.109   3.655  1.00  0.00     0.164 HD
BRANCH   9  12
HETATM   12  C   UNL     1      43.215 -14.975   4.786  1.00  0.00     0.085 A 
HETATM   13  C   UNL     1      42.975 -16.305   5.125  1.00  0.00     0.185 A 
HETATM   14  N   UNL     1      43.431 -16.879   6.271  1.00  0.00    -0.236 NA
HETATM   15  C   UNL     1      44.116 -16.096   7.131  1.00  0.00     0.119 A 
HETATM   16  C   UNL     1      44.379 -14.759   6.901  1.00  0.00     0.020 A 
HETATM   17  C   UNL     1      43.921 -14.194   5.714  1.00  0.00     0.023 A 
BRANCH  13  18
HETATM   18  O   UNL     1      42.272 -17.102   4.227  1.00  0.00    -0.291 OA
BRANCH  18  19
HETATM   19  C   UNL     1      42.915 -18.201   3.708  1.00  0.00     0.078 A 
HETATM   20  C   UNL     1      43.857 -18.928   4.441  1.00  0.00     0.039 A 
HETATM   21  C   UNL     1      44.447 -20.063   3.879  1.00  0.00     0.026 A 
HETATM   22  C   UNL     1      44.074 -20.476   2.601  1.00  0.00     0.034 A 
HETATM   23 CL   UNL     1      44.804 -21.872   1.910  1.00  0.00    -0.084 Cl
HETATM   24  C   UNL     1      43.109 -19.772   1.882  1.00  0.00     0.026 A 
HETATM   25  C   UNL     1      42.520 -18.635   2.441  1.00  0.00     0.039 A 
ENDBRANCH  18  19
ENDBRANCH  13  18
ENDBRANCH   9  12
ENDBRANCH   1   8
TORSDOF 5
ENDMDL
MODEL 4
REMARK VINA RESULT:      -7.0      2.576      4.675
REMARK  5 active torsions:
REMARK  status: ('A' for Active; 'I' for Inactive)
REMARK    1  A    between atoms: C_2  and  C_3 
REMARK    2  A    between atoms: C_3  and  N_4 
REMARK       I    between atoms: N_4  and  C_5 
REMARK    3  A    between atoms: C_5  and  C_6 
REMARK    4  A    between atoms: C_7  and  O_8 
REMARK    5  A    between atoms: O_8  and  C_9 
ROOT
HETATM    1  C   UNL     1      40.515 -14.644   1.783  1.00  0.00     0.121 C 
HETATM    2  C   UNL     1      41.191 -15.491   0.752  1.00  0.00     0.091 C 
HETATM    3  N   UNL     1      41.744 -16.156  -0.022  1.00  0.00    -0.195 NA
HETATM    4  C   UNL     1      39.062 -15.147   1.902  1.00  0.00     0.055 C 
ENDROOT
BRANCH   1   5
HETATM    5  C   UNL     1      40.572 -13.134   1.355  1.00  0.00     0.020 C 
HETATM    6  C   UNL     1      39.769 -12.196   2.269  1.00  0.00     0.013 C 
HETATM    7  C   UNL     1      40.132 -12.909  -0.103  1.00  0.00     0.013 C 
ENDBRANCH   1   5
BRANCH   1   8
HETATM    8  N   UNL     1      41.223 -14.853   3.069  1.00  0.00    -0.335 N 
HETATM    9  C   UNL     1      42.523 -14.479   3.316  1.00  0.00     0.257 C 
HETATM   10  O   UNL     1      43.211 -13.883   2.494  1.00  0.00    -0.267 OA
HETATM   11  H   UNL     1      40.717 -15.353   3.794  1.00  0.00     0.164 HD
BRANCH   9  12
HETATM   12  C   UNL     1      43.128 -14.873   4.617  1.00  0.00     0.085 A 
HETATM   13  C   UNL     1      42.981 -16.116   5.230  1.00  0.00     0.185 A 
HETATM   14  N   UNL     1      43.595 -16.452   6.396  1.00  0.00    -0.236 NA
HETATM   15  C   UNL     1      44.352 -15.510   6.997  1.00  0.00     0.119 A 
HETATM   16  C   UNL     1      44.535 -14.239   6.486  1.00  0.00     0.020 A 
HETATM   17  C   UNL     1      43.913 -13.919   5.281  1.00  0.00     0.023 A 
BRANCH  13  18
HETATM   18  O   UNL     1      42.202 -17.079   4.597  1.00  0.00    -0.291 OA
BRANCH  18  19
HETATM   19  C   UNL     1      42.850 -18.127   3.988  1.00  0.00     0.078 A 
HETATM   20  C   UNL     1      43.759 -18.939   4.672  1.00  0.00     0.039 A 
HETATM   21  C   UNL     1      44.357 -20.017   4.016  1.00  0.00     0.026 A 
HETATM   22  C   UNL     1      44.023 -20.292   2.690  1.00  0.00     0.034 A 
HETATM   23 CL   UNL     1      44.763 -21.619   1.882  1.00  0.00    -0.084 Cl
HETATM   24  C   UNL     1      43.091 -19.504   2.016  1.00  0.00     0.026 A 
HETATM   25  C   UNL     1      42.495 -18.422   2.670  1.00  0.00     0.039 A 
ENDBRANCH  18  19
ENDBRANCH  13  18
ENDBRANCH   9  12
ENDBRANCH   1   8
TORSDOF 5
ENDMDL
MODEL 5
REMARK VINA RESULT:      -7.0      2.705      4.489
REMARK  5 active torsions:
REMARK  status: ('A' for Active; 'I' for Inactive)
REMARK    1  A    between atoms: C_2  and  C_3 
REMARK    2  A    between atoms: C_3  and  N_4 
REMARK       I    between atoms: N_4  and  C_5 
REMARK    3  A    between atoms: C_5  and  C_6 
REMARK    4  A    between atoms: C_7  and  O_8 
REMARK    5  A    between atoms: O_8  and  C_9 
ROOT
HETATM    1  C   UNL     1      40.886 -14.466  -0.071  1.00  0.00     0.121 C 
HETATM    2  C   UNL     1      41.693 -13.357  -0.667  1.00  0.00     0.091 C 
HETATM    3  N   UNL     1      42.334 -12.489  -1.094  1.00  0.00    -0.195 NA
HETATM    4  C   UNL     1      41.195 -15.740  -0.884  1.00  0.00     0.055 C 
ENDROOT
BRANCH   1   5
HETATM    5  C   UNL     1      39.359 -14.102  -0.122  1.00  0.00     0.020 C 
HETATM    6  C   UNL     1      38.814 -13.894  -1.543  1.00  0.00     0.013 C 
HETATM    7  C   UNL     1      39.009 -12.871   0.732  1.00  0.00     0.013 C 
ENDBRANCH   1   5
BRANCH   1   8
HETATM    8  N   UNL     1      41.337 -14.646   1.330  1.00  0.00    -0.335 N 
HETATM    9  C   UNL     1      40.869 -15.618   2.182  1.00  0.00     0.257 C 
HETATM   10  O   UNL     1      40.058 -16.471   1.837  1.00  0.00    -0.267 OA
HETATM   11  H   UNL     1      42.000 -13.966   1.688  1.00  0.00     0.164 HD
BRANCH   9  12
HETATM   12  C   UNL     1      41.329 -15.587   3.597  1.00  0.00     0.085 A 
HETATM   13  C   UNL     1      42.606 -15.936   4.036  1.00  0.00     0.185 A 
HETATM   14  N   UNL     1      43.001 -15.843   5.334  1.00  0.00    -0.236 NA
HETATM   15  C   UNL     1      42.088 -15.426   6.236  1.00  0.00     0.119 A 
HETATM   16  C   UNL     1      40.789 -15.088   5.906  1.00  0.00     0.020 A 
HETATM   17  C   UNL     1      40.408 -15.171   4.569  1.00  0.00     0.023 A 
BRANCH  13  18
HETATM   18  O   UNL     1      43.538 -16.359   3.095  1.00  0.00    -0.291 OA
BRANCH  18  19
HETATM   19  C   UNL     1      43.762 -17.711   2.980  1.00  0.00     0.078 A 
HETATM   20  C   UNL     1      44.238 -18.480   4.045  1.00  0.00     0.039 A 
HETATM   21  C   UNL     1      44.406 -19.858   3.885  1.00  0.00     0.026 A 
HETATM   22  C   UNL     1      44.075 -20.459   2.672  1.00  0.00     0.034 A 
HETATM   23 CL   UNL     1      44.286 -22.155   2.475  1.00  0.00    -0.084 Cl
HETATM   24  C   UNL     1      43.568 -19.699   1.619  1.00  0.00     0.026 A 
HETATM   25  C   UNL     1      43.402 -18.320   1.776  1.00  0.00     0.039 A 
ENDBRANCH  18  19
ENDBRANCH  13  18
ENDBRANCH   9  12
ENDBRANCH   1   8
TORSDOF 5
ENDMDL
MODEL 6
REMARK VINA RESULT:      -6.8      2.695      4.356
REMARK  5 active torsions:
REMARK  status: ('A' for Active; 'I' for Inactive)
REMARK    1  A    between atoms: C_2  and  C_3 
REMARK    2  A    between atoms: C_3  and  N_4 
REMARK       I    between atoms: N_4  and  C_5 
REMARK    3  A    between atoms: C_5  and  C_6 
REMARK    4  A    between atoms: C_7  and  O_8 
REMARK    5  A    between atoms: O_8  and  C_9 
ROOT
HETATM    1  C   UNL     1      40.598 -14.226   0.419  1.00  0.00     0.121 C 
HETATM    2  C   UNL     1      41.186 -12.907   0.035  1.00  0.00     0.091 C 
HETATM    3  N   UNL     1      41.657 -11.878  -0.226  1.00  0.00    -0.195 NA
HETATM    4  C   UNL     1      41.111 -15.266  -0.599  1.00  0.00     0.055 C 
ENDROOT
BRANCH   1   5
HETATM    5  C   UNL     1      39.030 -14.134   0.412  1.00  0.00     0.020 C 
HETATM    6  C   UNL     1      38.431 -13.768  -0.954  1.00  0.00     0.013 C 
HETATM    7  C   UNL     1      38.484 -13.162   1.473  1.00  0.00     0.013 C 
ENDBRANCH   1   5
BRANCH   1   8
HETATM    8  N   UNL     1      41.099 -14.565   1.773  1.00  0.00    -0.335 N 
HETATM    9  C   UNL     1      40.913 -15.777   2.394  1.00  0.00     0.257 C 
HETATM   10  O   UNL     1      40.350 -16.722   1.853  1.00  0.00    -0.267 OA
HETATM   11  H   UNL     1      41.565 -13.823   2.287  1.00  0.00     0.164 HD
BRANCH   9  12
HETATM   12  C   UNL     1      41.368 -15.916   3.804  1.00  0.00     0.085 A 
HETATM   13  C   UNL     1      42.594 -16.444   4.206  1.00  0.00     0.185 A 
HETATM   14  N   UNL     1      42.992 -16.504   5.505  1.00  0.00    -0.236 NA
HETATM   15  C   UNL     1      42.129 -16.062   6.443  1.00  0.00     0.119 A 
HETATM   16  C   UNL     1      40.879 -15.551   6.149  1.00  0.00     0.020 A 
HETATM   17  C   UNL     1      40.497 -15.479   4.812  1.00  0.00     0.023 A 
BRANCH  13  18
HETATM   18  O   UNL     1      43.476 -16.892   3.228  1.00  0.00    -0.291 OA
BRANCH  18  19
HETATM   19  C   UNL     1      43.700 -18.246   3.141  1.00  0.00     0.078 A 
HETATM   20  C   UNL     1      43.344 -18.989   2.012  1.00  0.00     0.039 A 
HETATM   21  C   UNL     1      43.635 -20.354   1.960  1.00  0.00     0.026 A 
HETATM   22  C   UNL     1      44.302 -20.960   3.024  1.00  0.00     0.034 A 
HETATM   23 CL   UNL     1      44.657 -22.643   2.960  1.00  0.00    -0.084 Cl
HETATM   24  C   UNL     1      44.689 -20.214   4.136  1.00  0.00     0.026 A 
HETATM   25  C   UNL     1      44.395 -18.849   4.191  1.00  0.00     0.039 A 
ENDBRANCH  18  19
ENDBRANCH  13  18
ENDBRANCH   9  12
ENDBRANCH   1   8
TORSDOF 5
ENDMDL
MODEL 7
REMARK VINA RESULT:      -6.8      2.627      4.622
REMARK  5 active torsions:
REMARK  status: ('A' for Active; 'I' for Inactive)
REMARK    1  A    between atoms: C_2  and  C_3 
REMARK    2  A    between atoms: C_3  and  N_4 
REMARK       I    between atoms: N_4  and  C_5 
REMARK    3  A    between atoms: C_5  and  C_6 
REMARK    4  A    between atoms: C_7  and  O_8 
REMARK    5  A    between atoms: O_8  and  C_9 
ROOT
HETATM    1  C   UNL     1      41.637 -15.575   1.575  1.00  0.00     0.121 C 
HETATM    2  C   UNL     1      40.162 -15.529   1.815  1.00  0.00     0.091 C 
HETATM    3  N   UNL     1      39.024 -15.501   2.039  1.00  0.00    -0.195 NA
HETATM    4  C   UNL     1      42.018 -14.275   0.837  1.00  0.00     0.055 C 
ENDROOT
BRANCH   1   5
HETATM    5  C   UNL     1      42.002 -16.849   0.731  1.00  0.00     0.020 C 
HETATM    6  C   UNL     1      41.103 -18.062   1.010  1.00  0.00     0.013 C 
HETATM    7  C   UNL     1      43.474 -17.270   0.891  1.00  0.00     0.013 C 
ENDBRANCH   1   5
BRANCH   1   8
HETATM    8  N   UNL     1      42.306 -15.613   2.898  1.00  0.00    -0.335 N 
HETATM    9  C   UNL     1      42.081 -14.713   3.914  1.00  0.00     0.257 C 
HETATM   10  O   UNL     1      41.254 -13.812   3.832  1.00  0.00    -0.267 OA
HETATM   11  H   UNL     1      43.015 -16.327   3.032  1.00  0.00     0.164 HD
BRANCH   9  12
HETATM   12  C   UNL     1      42.926 -14.813   5.135  1.00  0.00     0.085 A 
HETATM   13  C   UNL     1      43.039 -15.942   5.945  1.00  0.00     0.185 A 
HETATM   14  N   UNL     1      43.865 -16.007   7.024  1.00  0.00    -0.236 NA
HETATM   15  C   UNL     1      44.575 -14.903   7.334  1.00  0.00     0.119 A 
HETATM   16  C   UNL     1      44.509 -13.726   6.613  1.00  0.00     0.020 A 
HETATM   17  C   UNL     1      43.673 -13.684   5.500  1.00  0.00     0.023 A 
BRANCH  13  18
HETATM   18  O   UNL     1      42.305 -17.074   5.611  1.00  0.00    -0.291 OA
BRANCH  18  19
HETATM   19  C   UNL     1      42.991 -18.254   5.443  1.00  0.00     0.078 A 
HETATM   20  C   UNL     1      43.626 -18.583   4.242  1.00  0.00     0.039 A 
HETATM   21  C   UNL     1      44.345 -19.776   4.141  1.00  0.00     0.026 A 
HETATM   22  C   UNL     1      44.446 -20.619   5.247  1.00  0.00     0.034 A 
HETATM   23 CL   UNL     1      45.329 -22.090   5.121  1.00  0.00    -0.084 Cl
HETATM   24  C   UNL     1      43.841 -20.277   6.456  1.00  0.00     0.026 A 
HETATM   25  C   UNL     1      43.118 -19.086   6.558  1.00  0.00     0.039 A 
ENDBRANCH  18  19
ENDBRANCH  13  18
ENDBRANCH   9  12
ENDBRANCH   1   8
TORSDOF 5
ENDMDL
MODEL 8
REMARK VINA RESULT:      -6.7      3.216      5.054
REMARK  5 active torsions:
REMARK  status: ('A' for Active; 'I' for Inactive)
REMARK    1  A    between atoms: C_2  and  C_3 
REMARK    2  A    between atoms: C_3  and  N_4 
REMARK       I    between atoms: N_4  and  C_5 
REMARK    3  A    between atoms: C_5  and  C_6 
REMARK    4  A    between atoms: C_7  and  O_8 
REMARK    5  A    between atoms: O_8  and  C_9 
ROOT
HETATM    1  C   UNL     1      41.045 -14.810   3.839  1.00  0.00     0.121 C 
HETATM    2  C   UNL     1      40.434 -15.715   2.819  1.00  0.00     0.091 C 
HETATM    3  N   UNL     1      39.986 -16.446   2.036  1.00  0.00    -0.195 NA
HETATM    4  C   UNL     1      39.908 -14.342   4.771  1.00  0.00     0.055 C 
ENDROOT
BRANCH   1   5
HETATM    5  C   UNL     1      41.745 -13.597   3.127  1.00  0.00     0.020 C 
HETATM    6  C   UNL     1      43.279 -13.633   3.196  1.00  0.00     0.013 C 
HETATM    7  C   UNL     1      41.253 -12.234   3.646  1.00  0.00     0.013 C 
ENDBRANCH   1   5
BRANCH   1   8
HETATM    8  N   UNL     1      42.030 -15.604   4.613  1.00  0.00    -0.335 N 
HETATM    9  C   UNL     1      41.706 -16.495   5.609  1.00  0.00     0.257 C 
HETATM   10  O   UNL     1      40.548 -16.755   5.918  1.00  0.00    -0.267 OA
HETATM   11  H   UNL     1      43.011 -15.430   4.418  1.00  0.00     0.164 HD
BRANCH   9  12
HETATM   12  C   UNL     1      42.818 -17.119   6.376  1.00  0.00     0.085 A 
HETATM   13  C   UNL     1      44.028 -17.548   5.834  1.00  0.00     0.185 A 
HETATM   14  N   UNL     1      45.040 -18.067   6.581  1.00  0.00    -0.236 NA
HETATM   15  C   UNL     1      44.831 -18.200   7.907  1.00  0.00     0.119 A 
HETATM   16  C   UNL     1      43.655 -17.834   8.535  1.00  0.00     0.020 A 
HETATM   17  C   UNL     1      42.638 -17.287   7.757  1.00  0.00     0.023 A 
BRANCH  13  18
HETATM   18  O   UNL     1      44.231 -17.400   4.466  1.00  0.00    -0.291 OA
BRANCH  18  19
HETATM   19  C   UNL     1      44.081 -18.513   3.673  1.00  0.00     0.078 A 
HETATM   20  C   UNL     1      43.414 -18.468   2.446  1.00  0.00     0.039 A 
HETATM   21  C   UNL     1      43.328 -19.621   1.660  1.00  0.00     0.026 A 
HETATM   22  C   UNL     1      43.931 -20.800   2.095  1.00  0.00     0.034 A 
HETATM   23 CL   UNL     1      43.821 -22.219   1.127  1.00  0.00    -0.084 Cl
HETATM   24  C   UNL     1      44.626 -20.838   3.302  1.00  0.00     0.026 A 
HETATM   25  C   UNL     1      44.709 -19.688   4.091  1.00  0.00     0.039 A 
ENDBRANCH  18  19
ENDBRANCH  13  18
ENDBRANCH   9  12
ENDBRANCH   1   8
TORSDOF 5
ENDMDL
MODEL 9
REMARK VINA RESULT:      -6.6      2.243      5.432
REMARK  5 active torsions:
REMARK  status: ('A' for Active; 'I' for Inactive)
REMARK    1  A    between atoms: C_2  and  C_3 
REMARK    2  A    between atoms: C_3  and  N_4 
REMARK       I    between atoms: N_4  and  C_5 
REMARK    3  A    between atoms: C_5  and  C_6 
REMARK    4  A    between atoms: C_7  and  O_8 
REMARK    5  A    between atoms: O_8  and  C_9 
ROOT
HETATM    1  C   UNL     1      44.063 -18.778   6.322  1.00  0.00     0.121 C 
HETATM    2  C   UNL     1      44.121 -20.262   6.153  1.00  0.00     0.091 C 
HETATM    3  N   UNL     1      44.137 -21.412   5.995  1.00  0.00    -0.195 NA
HETATM    4  C   UNL     1      45.497 -18.242   6.126  1.00  0.00     0.055 C 
ENDROOT
BRANCH   1   5
HETATM    5  C   UNL     1      43.501 -18.423   7.745  1.00  0.00     0.020 C 
HETATM    6  C   UNL     1      43.286 -16.919   7.975  1.00  0.00     0.013 C 
HETATM    7  C   UNL     1      44.369 -18.983   8.886  1.00  0.00     0.013 C 
ENDBRANCH   1   5
BRANCH   1   8
HETATM    8  N   UNL     1      43.180 -18.239   5.260  1.00  0.00    -0.335 N 
HETATM    9  C   UNL     1      43.368 -18.436   3.912  1.00  0.00     0.257 C 
HETATM   10  O   UNL     1      44.272 -19.132   3.462  1.00  0.00    -0.267 OA
HETATM   11  H   UNL     1      42.415 -17.641   5.560  1.00  0.00     0.164 HD
BRANCH   9  12
HETATM   12  C   UNL     1      42.464 -17.723   2.969  1.00  0.00     0.085 A 
HETATM   13  C   UNL     1      41.442 -16.851   3.338  1.00  0.00     0.185 A 
HETATM   14  N   UNL     1      40.672 -16.178   2.441  1.00  0.00    -0.236 NA
HETATM   15  C   UNL     1      40.898 -16.407   1.130  1.00  0.00     0.119 A 
HETATM   16  C   UNL     1      41.867 -17.276   0.663  1.00  0.00     0.020 A 
HETATM   17  C   UNL     1      42.657 -17.941   1.597  1.00  0.00     0.023 A 
BRANCH  13  18
HETATM   18  O   UNL     1      41.223 -16.621   4.692  1.00  0.00    -0.291 OA
BRANCH  18  19
HETATM   19  C   UNL     1      41.312 -15.325   5.144  1.00  0.00     0.078 A 
HETATM   20  C   UNL     1      42.508 -14.604   5.107  1.00  0.00     0.039 A 
HETATM   21  C   UNL     1      42.531 -13.275   5.538  1.00  0.00     0.026 A 
HETATM   22  C   UNL     1      41.354 -12.671   5.978  1.00  0.00     0.034 A 
HETATM   23 CL   UNL     1      41.384 -11.035   6.512  1.00  0.00    -0.084 Cl
HETATM   24  C   UNL     1      40.153 -13.378   5.984  1.00  0.00     0.026 A 
HETATM   25  C   UNL     1      40.129 -14.708   5.556  1.00  0.00     0.039 A 
ENDBRANCH  18  19
ENDBRANCH  13  18
ENDBRANCH   9  12
ENDBRANCH   1   8
TORSDOF 5
ENDMDL
MODEL 10
REMARK VINA RESULT:      -6.5      2.991      5.192
REMARK  5 active torsions:
REMARK  status: ('A' for Active; 'I' for Inactive)
REMARK    1  A    between atoms: C_2  and  C_3 
REMARK    2  A    between atoms: C_3  and  N_4 
REMARK       I    between atoms: N_4  and  C_5 
REMARK    3  A    between atoms: C_5  and  C_6 
REMARK    4  A    between atoms: C_7  and  O_8 
REMARK    5  A    between atoms: O_8  and  C_9 
ROOT
HETATM    1  C   UNL     1      41.262 -13.456  -0.784  1.00  0.00     0.121 C 
HETATM    2  C   UNL     1      41.131 -14.815  -1.393  1.00  0.00     0.091 C 
HETATM    3  N   UNL     1      41.039 -15.886  -1.831  1.00  0.00    -0.195 NA
HETATM    4  C   UNL     1      39.935 -12.713  -1.041  1.00  0.00     0.055 C 
ENDROOT
BRANCH   1   5
HETATM    5  C   UNL     1      42.482 -12.700  -1.423  1.00  0.00     0.020 C 
HETATM    6  C   UNL     1      42.661 -11.262  -0.914  1.00  0.00     0.013 C 
HETATM    7  C   UNL     1      42.437 -12.685  -2.961  1.00  0.00     0.013 C 
ENDBRANCH   1   5
BRANCH   1   8
HETATM    8  N   UNL     1      41.460 -13.635   0.674  1.00  0.00    -0.335 N 
HETATM    9  C   UNL     1      40.586 -14.291   1.507  1.00  0.00     0.257 C 
HETATM   10  O   UNL     1      39.568 -14.843   1.102  1.00  0.00    -0.267 OA
HETATM   11  H   UNL     1      42.278 -13.192   1.083  1.00  0.00     0.164 HD
BRANCH   9  12
HETATM   12  C   UNL     1      40.866 -14.274   2.969  1.00  0.00     0.085 A 
HETATM   13  C   UNL     1      42.081 -14.621   3.559  1.00  0.00     0.185 A 
HETATM   14  N   UNL     1      42.311 -14.541   4.897  1.00  0.00    -0.236 NA
HETATM   15  C   UNL     1      41.290 -14.140   5.683  1.00  0.00     0.119 A 
HETATM   16  C   UNL     1      40.040 -13.805   5.198  1.00  0.00     0.020 A 
HETATM   17  C   UNL     1      39.829 -13.875   3.824  1.00  0.00     0.023 A 
BRANCH  13  18
HETATM   18  O   UNL     1      43.126 -15.027   2.736  1.00  0.00    -0.291 OA
BRANCH  18  19
HETATM   19  C   UNL     1      43.335 -16.379   2.589  1.00  0.00     0.078 A 
HETATM   20  C   UNL     1      43.399 -17.246   3.683  1.00  0.00     0.039 A 
HETATM   21  C   UNL     1      43.570 -18.616   3.472  1.00  0.00     0.026 A 
HETATM   22  C   UNL     1      43.650 -19.112   2.172  1.00  0.00     0.034 A 
HETATM   23 CL   UNL     1      43.864 -20.800   1.914  1.00  0.00    -0.084 Cl
HETATM   24  C   UNL     1      43.553 -18.252   1.078  1.00  0.00     0.026 A 
HETATM   25  C   UNL     1      43.385 -16.881   1.287  1.00  0.00     0.039 A 
ENDBRANCH  18  19
ENDBRANCH  13  18
ENDBRANCH   9  12
ENDBRANCH   1   8
TORSDOF 5
ENDMDL
