MODEL 1
REMARK VINA RESULT:      -9.6      0.000      0.000
REMARK  7 active torsions:
REMARK  status: ('A' for Active; 'I' for Inactive)
REMARK    1  A    between atoms: C_3  and  C_4 
REMARK    2  A    between atoms: C_4  and  N_5 
REMARK    3  A    between atoms: C_9  and  C_10 
REMARK    4  A    between atoms: C_9  and  C_28 
REMARK    5  A    between atoms: N_13  and  C_15 
REMARK    6  A    between atoms: C_15  and  C_16 
REMARK    7  A    between atoms: C_28  and  C_29 
ROOT
HETATM    1  C   UNL     1      45.504 -13.404   7.373  1.00  0.00     0.112 C 
HETATM    2  C   UNL     1      44.233 -13.711   6.715  1.00  0.00    -0.109 C 
HETATM    3  C   UNL     1      43.075 -13.968   6.174  1.00  0.00    -0.087 C 
ENDROOT
BRANCH   3   4
HETATM    4  C   UNL     1      41.725 -14.268   5.544  1.00  0.00     0.230 C 
BRANCH   4   5
HETATM    5  N   UNL     1      41.704 -15.506   4.810  1.00  0.00    -0.257 N 
HETATM    6  C   UNL     1      41.447 -16.716   5.371  1.00  0.00     0.327 C 
HETATM    7  O   UNL     1      41.098 -16.953   6.511  1.00  0.00    -0.247 OA
HETATM    8  N   UNL     1      41.669 -17.685   4.421  1.00  0.00    -0.324 N 
HETATM    9  C   UNL     1      42.222 -17.162   3.183  1.00  0.00     0.123 C 
HETATM   10  H   UNL     1      41.627 -18.667   4.679  1.00  0.00     0.165 HD
HETATM   11  C   UNL     1      42.246 -15.669   3.572  1.00  0.00     0.257 C 
HETATM   12  O   UNL     1      42.686 -14.775   2.865  1.00  0.00    -0.270 OA
BRANCH   9  13
HETATM   13  C   UNL     1      41.275 -17.515   1.987  1.00  0.00     0.027 C 
HETATM   14  C   UNL     1      41.784 -17.185   0.575  1.00  0.00     0.035 C 
HETATM   15  C   UNL     1      41.621 -15.740   0.121  1.00  0.00     0.235 C 
HETATM   16  N   UNL     1      40.257 -15.175   0.433  1.00  0.00    -0.067 N 
HETATM   17  H   UNL     1      39.619 -15.552  -0.279  1.00  0.00     0.280 HD
HETATM   18  C   UNL     1      39.681 -15.515   1.779  1.00  0.00     0.235 C 
HETATM   19  C   UNL     1      39.830 -16.990   2.095  1.00  0.00     0.035 C 
BRANCH  16  20
HETATM   20  C   UNL     1      40.236 -13.659   0.266  1.00  0.00     0.273 C 
BRANCH  20  21
HETATM   21  C   UNL     1      39.191 -13.159  -0.689  1.00  0.00    -0.030 A 
HETATM   22  C   UNL     1      38.858 -13.900  -1.832  1.00  0.00     0.048 A 
HETATM   23  C   UNL     1      37.898 -13.421  -2.721  1.00  0.00     0.102 A 
HETATM   24  C   UNL     1      37.283 -12.187  -2.498  1.00  0.00     0.102 A 
HETATM   25  O   UNL     1      37.614 -14.217  -3.799  1.00  0.00    -0.346 OA
HETATM   26  O   UNL     1      36.357 -11.643  -3.346  1.00  0.00    -0.346 OA
HETATM   27  C   UNL     1      37.597 -11.450  -1.359  1.00  0.00     0.040 A 
HETATM   28  C   UNL     1      36.340 -12.314  -4.612  1.00  0.00     0.202 C 
HETATM   29  C   UNL     1      36.385 -13.822  -4.425  1.00  0.00     0.202 C 
HETATM   30  C   UNL     1      38.547 -11.932  -0.457  1.00  0.00     0.012 A 
ENDBRANCH  20  21
ENDBRANCH  16  20
ENDBRANCH   9  13
BRANCH   9  31
HETATM   31  C   UNL     1      43.709 -17.576   3.006  1.00  0.00     0.080 C 
BRANCH  31  32
HETATM   32  C   UNL     1      44.001 -19.050   3.152  1.00  0.00    -0.052 A 
HETATM   33  C   UNL     1      43.818 -19.932   2.081  1.00  0.00     0.049 A 
HETATM   34  C   UNL     1      44.106 -21.286   2.233  1.00  0.00     0.116 A 
HETATM   35  F   UNL     1      43.918 -22.115   1.198  1.00  0.00    -0.206 F 
HETATM   36  C   UNL     1      44.585 -21.787   3.436  1.00  0.00     0.042 A 
HETATM   37  C   UNL     1      44.783 -20.919   4.506  1.00  0.00     0.003 A 
HETATM   38  C   UNL     1      44.492 -19.559   4.366  1.00  0.00     0.007 A 
ENDBRANCH  31  32
ENDBRANCH   9  31
ENDBRANCH   4   5
ENDBRANCH   3   4
TORSDOF 7
ENDMDL
MODEL 2
REMARK VINA RESULT:      -9.6      2.184      2.615
REMARK  7 active torsions:
REMARK  status: ('A' for Active; 'I' for Inactive)
REMARK    1  A    between atoms: C_3  and  C_4 
REMARK    2  A    between atoms: C_4  and  N_5 
REMARK    3  A    between atoms: C_9  and  C_10 
REMARK    4  A    between atoms: C_9  and  C_28 
REMARK    5  A    between atoms: N_13  and  C_15 
REMARK    6  A    between atoms: C_15  and  C_16 
REMARK    7  A    between atoms: C_28  and  C_29 
ROOT
HETATM    1  C   UNL     1      45.848 -13.587   6.982  1.00  0.00     0.112 C 
HETATM    2  C   UNL     1      44.486 -13.937   6.576  1.00  0.00    -0.109 C 
HETATM    3  C   UNL     1      43.283 -14.228   6.165  1.00  0.00    -0.087 C 
ENDROOT
BRANCH   3   4
HETATM    4  C   UNL     1      41.881 -14.567   5.687  1.00  0.00     0.230 C 
BRANCH   4   5
HETATM    5  N   UNL     1      41.838 -15.719   4.825  1.00  0.00    -0.257 N 
HETATM    6  C   UNL     1      41.477 -16.961   5.238  1.00  0.00     0.327 C 
HETATM    7  O   UNL     1      41.042 -17.292   6.324  1.00  0.00    -0.247 OA
HETATM    8  N   UNL     1      41.706 -17.841   4.206  1.00  0.00    -0.324 N 
HETATM    9  C   UNL     1      42.367 -17.229   3.066  1.00  0.00     0.123 C 
HETATM   10  H   UNL     1      41.592 -18.839   4.356  1.00  0.00     0.165 HD
HETATM   11  C   UNL     1      42.450 -15.789   3.612  1.00  0.00     0.257 C 
HETATM   12  O   UNL     1      42.985 -14.855   3.030  1.00  0.00    -0.270 OA
BRANCH   9  13
HETATM   13  C   UNL     1      41.481 -17.398   1.785  1.00  0.00     0.027 C 
HETATM   14  C   UNL     1      42.020 -16.787   0.481  1.00  0.00     0.035 C 
HETATM   15  C   UNL     1      41.795 -15.292   0.294  1.00  0.00     0.235 C 
HETATM   16  N   UNL     1      40.392 -14.860   0.646  1.00  0.00    -0.067 N 
HETATM   17  H   UNL     1      39.800 -15.127  -0.151  1.00  0.00     0.280 HD
HETATM   18  C   UNL     1      39.790 -15.470   1.880  1.00  0.00     0.235 C 
HETATM   19  C   UNL     1      40.008 -16.970   1.925  1.00  0.00     0.035 C 
BRANCH  16  20
HETATM   20  C   UNL     1      40.295 -13.341   0.759  1.00  0.00     0.273 C 
BRANCH  20  21
HETATM   21  C   UNL     1      40.925 -12.597  -0.382  1.00  0.00    -0.030 A 
HETATM   22  C   UNL     1      40.328 -12.603  -1.652  1.00  0.00     0.048 A 
HETATM   23  C   UNL     1      40.928 -11.922  -2.709  1.00  0.00     0.102 A 
HETATM   24  C   UNL     1      42.140 -11.254  -2.522  1.00  0.00     0.102 A 
HETATM   25  O   UNL     1      40.269 -11.957  -3.910  1.00  0.00    -0.346 OA
HETATM   26  O   UNL     1      42.798 -10.593  -3.523  1.00  0.00    -0.346 OA
HETATM   27  C   UNL     1      42.733 -11.231  -1.262  1.00  0.00     0.040 A 
HETATM   28  C   UNL     1      42.280 -10.937  -4.814  1.00  0.00     0.202 C 
HETATM   29  C   UNL     1      40.759 -10.945  -4.801  1.00  0.00     0.202 C 
HETATM   30  C   UNL     1      42.129 -11.899  -0.196  1.00  0.00     0.012 A 
ENDBRANCH  20  21
ENDBRANCH  16  20
ENDBRANCH   9  13
BRANCH   9  31
HETATM   31  C   UNL     1      43.837 -17.715   2.933  1.00  0.00     0.080 C 
BRANCH  31  32
HETATM   32  C   UNL     1      44.037 -19.212   2.949  1.00  0.00    -0.052 A 
HETATM   33  C   UNL     1      44.585 -19.855   4.065  1.00  0.00     0.049 A 
HETATM   34  C   UNL     1      44.749 -21.238   4.064  1.00  0.00     0.116 A 
HETATM   35  F   UNL     1      45.283 -21.834   5.138  1.00  0.00    -0.206 F 
HETATM   36  C   UNL     1      44.369 -22.005   2.971  1.00  0.00     0.042 A 
HETATM   37  C   UNL     1      43.810 -21.380   1.860  1.00  0.00     0.003 A 
HETATM   38  C   UNL     1      43.646 -19.991   1.848  1.00  0.00     0.007 A 
ENDBRANCH  31  32
ENDBRANCH   9  31
ENDBRANCH   4   5
ENDBRANCH   3   4
TORSDOF 7
ENDMDL
MODEL 3
REMARK VINA RESULT:      -9.6      2.285      2.937
REMARK  7 active torsions:
REMARK  status: ('A' for Active; 'I' for Inactive)
REMARK    1  A    between atoms: C_3  and  C_4 
REMARK    2  A    between atoms: C_4  and  N_5 
REMARK    3  A    between atoms: C_9  and  C_10 
REMARK    4  A    between atoms: C_9  and  C_28 
REMARK    5  A    between atoms: N_13  and  C_15 
REMARK    6  A    between atoms: C_15  and  C_16 
REMARK    7  A    between atoms: C_28  and  C_29 
ROOT
HETATM    1  C   UNL     1      39.435 -12.167   6.071  1.00  0.00     0.112 C 
HETATM    2  C   UNL     1      40.593 -13.039   5.866  1.00  0.00    -0.109 C 
HETATM    3  C   UNL     1      41.604 -13.849   5.720  1.00  0.00    -0.087 C 
ENDROOT
BRANCH   3   4
HETATM    4  C   UNL     1      42.783 -14.794   5.551  1.00  0.00     0.230 C 
BRANCH   4   5
HETATM    5  N   UNL     1      42.495 -15.912   4.692  1.00  0.00    -0.257 N 
HETATM    6  C   UNL     1      42.098 -17.131   5.142  1.00  0.00     0.327 C 
HETATM    7  O   UNL     1      41.820 -17.454   6.280  1.00  0.00    -0.247 OA
HETATM    8  N   UNL     1      42.073 -17.996   4.073  1.00  0.00    -0.324 N 
HETATM    9  C   UNL     1      42.588 -17.410   2.847  1.00  0.00     0.123 C 
HETATM   10  H   UNL     1      41.895 -18.984   4.225  1.00  0.00     0.165 HD
HETATM   11  C   UNL     1      42.888 -15.999   3.393  1.00  0.00     0.257 C 
HETATM   12  O   UNL     1      43.401 -15.098   2.743  1.00  0.00    -0.270 OA
BRANCH   9  13
HETATM   13  C   UNL     1      41.491 -17.464   1.730  1.00  0.00     0.027 C 
HETATM   14  C   UNL     1      41.857 -16.861   0.364  1.00  0.00     0.035 C 
HETATM   15  C   UNL     1      41.737 -15.347   0.242  1.00  0.00     0.235 C 
HETATM   16  N   UNL     1      40.456 -14.810   0.831  1.00  0.00    -0.067 N 
HETATM   17  H   UNL     1      39.719 -15.002   0.141  1.00  0.00     0.280 HD
HETATM   18  C   UNL     1      40.015 -15.405   2.139  1.00  0.00     0.235 C 
HETATM   19  C   UNL     1      40.104 -16.918   2.122  1.00  0.00     0.035 C 
BRANCH  16  20
HETATM   20  C   UNL     1      40.513 -13.292   0.984  1.00  0.00     0.273 C 
BRANCH  20  21
HETATM   21  C   UNL     1      41.079 -12.574  -0.207  1.00  0.00    -0.030 A 
HETATM   22  C   UNL     1      40.409 -12.601  -1.438  1.00  0.00     0.048 A 
HETATM   23  C   UNL     1      40.949 -11.945  -2.542  1.00  0.00     0.102 A 
HETATM   24  C   UNL     1      42.174 -11.281  -2.439  1.00  0.00     0.102 A 
HETATM   25  O   UNL     1      40.221 -11.999  -3.702  1.00  0.00    -0.346 OA
HETATM   26  O   UNL     1      42.776 -10.643  -3.490  1.00  0.00    -0.346 OA
HETATM   27  C   UNL     1      42.840 -11.237  -1.217  1.00  0.00     0.040 A 
HETATM   28  C   UNL     1      42.182 -11.009  -4.742  1.00  0.00     0.202 C 
HETATM   29  C   UNL     1      40.665 -11.008  -4.639  1.00  0.00     0.202 C 
HETATM   30  C   UNL     1      42.296 -11.881  -0.104  1.00  0.00     0.012 A 
ENDBRANCH  20  21
ENDBRANCH  16  20
ENDBRANCH   9  13
BRANCH   9  31
HETATM   31  C   UNL     1      43.966 -18.017   2.463  1.00  0.00     0.080 C 
BRANCH  31  32
HETATM   32  C   UNL     1      44.113 -19.503   2.685  1.00  0.00    -0.052 A 
HETATM   33  C   UNL     1      44.719 -20.004   3.843  1.00  0.00     0.049 A 
HETATM   34  C   UNL     1      44.833 -21.378   4.034  1.00  0.00     0.116 A 
HETATM   35  F   UNL     1      45.423 -21.838   5.145  1.00  0.00    -0.206 F 
HETATM   36  C   UNL     1      44.346 -22.276   3.093  1.00  0.00     0.042 A 
HETATM   37  C   UNL     1      43.730 -21.792   1.943  1.00  0.00     0.003 A 
HETATM   38  C   UNL     1      43.614 -20.414   1.738  1.00  0.00     0.007 A 
ENDBRANCH  31  32
ENDBRANCH   9  31
ENDBRANCH   4   5
ENDBRANCH   3   4
TORSDOF 7
ENDMDL
MODEL 4
REMARK VINA RESULT:      -9.4      3.007      4.244
REMARK  7 active torsions:
REMARK  status: ('A' for Active; 'I' for Inactive)
REMARK    1  A    between atoms: C_3  and  C_4 
REMARK    2  A    between atoms: C_4  and  N_5 
REMARK    3  A    between atoms: C_9  and  C_10 
REMARK    4  A    between atoms: C_9  and  C_28 
REMARK    5  A    between atoms: N_13  and  C_15 
REMARK    6  A    between atoms: C_15  and  C_16 
REMARK    7  A    between atoms: C_28  and  C_29 
ROOT
HETATM    1  C   UNL     1      45.878 -13.589   6.975  1.00  0.00     0.112 C 
HETATM    2  C   UNL     1      44.494 -13.867   6.588  1.00  0.00    -0.109 C 
HETATM    3  C   UNL     1      43.279 -14.130   6.194  1.00  0.00    -0.087 C 
ENDROOT
BRANCH   3   4
HETATM    4  C   UNL     1      41.863 -14.437   5.734  1.00  0.00     0.230 C 
BRANCH   4   5
HETATM    5  N   UNL     1      41.784 -15.576   4.859  1.00  0.00    -0.257 N 
HETATM    6  C   UNL     1      41.474 -16.831   5.274  1.00  0.00     0.327 C 
HETATM    7  O   UNL     1      41.116 -17.186   6.381  1.00  0.00    -0.247 OA
HETATM    8  N   UNL     1      41.650 -17.690   4.215  1.00  0.00    -0.324 N 
HETATM    9  C   UNL     1      42.224 -17.049   3.044  1.00  0.00     0.123 C 
HETATM   10  H   UNL     1      41.563 -18.692   4.355  1.00  0.00     0.165 HD
HETATM   11  C   UNL     1      42.316 -15.616   3.607  1.00  0.00     0.257 C 
HETATM   12  O   UNL     1      42.795 -14.664   3.007  1.00  0.00    -0.270 OA
BRANCH   9  13
HETATM   13  C   UNL     1      41.258 -17.215   1.821  1.00  0.00     0.027 C 
HETATM   14  C   UNL     1      41.810 -16.824   0.441  1.00  0.00     0.035 C 
HETATM   15  C   UNL     1      41.790 -15.338   0.103  1.00  0.00     0.235 C 
HETATM   16  N   UNL     1      40.482 -14.673   0.456  1.00  0.00    -0.067 N 
HETATM   17  H   UNL     1      39.818 -14.930  -0.285  1.00  0.00     0.280 HD
HETATM   18  C   UNL     1      39.863 -15.061   1.770  1.00  0.00     0.235 C 
HETATM   19  C   UNL     1      39.869 -16.564   1.967  1.00  0.00     0.035 C 
BRANCH  16  20
HETATM   20  C   UNL     1      40.607 -13.153   0.410  1.00  0.00     0.273 C 
BRANCH  20  21
HETATM   21  C   UNL     1      40.132 -12.457   1.652  1.00  0.00    -0.030 A 
HETATM   22  C   UNL     1      41.038 -12.105   2.662  1.00  0.00     0.048 A 
HETATM   23  C   UNL     1      40.586 -11.474   3.819  1.00  0.00     0.102 A 
HETATM   24  C   UNL     1      39.225 -11.214   3.995  1.00  0.00     0.102 A 
HETATM   25  O   UNL     1      41.539 -11.142   4.746  1.00  0.00    -0.346 OA
HETATM   26  O   UNL     1      38.709 -10.627   5.118  1.00  0.00    -0.346 OA
HETATM   27  C   UNL     1      38.318 -11.548   2.992  1.00  0.00     0.040 A 
HETATM   28  C   UNL     1      39.659 -10.613   6.192  1.00  0.00     0.202 C 
HETATM   29  C   UNL     1      41.032 -10.191   5.693  1.00  0.00     0.202 C 
HETATM   30  C   UNL     1      38.768 -12.167   1.825  1.00  0.00     0.012 A 
ENDBRANCH  20  21
ENDBRANCH  16  20
ENDBRANCH   9  13
BRANCH   9  31
HETATM   31  C   UNL     1      43.689 -17.505   2.808  1.00  0.00     0.080 C 
BRANCH  31  32
HETATM   32  C   UNL     1      43.930 -18.995   2.863  1.00  0.00    -0.052 A 
HETATM   33  C   UNL     1      44.537 -19.587   3.976  1.00  0.00     0.049 A 
HETATM   34  C   UNL     1      44.738 -20.965   4.012  1.00  0.00     0.116 A 
HETATM   35  F   UNL     1      45.327 -21.512   5.083  1.00  0.00    -0.206 F 
HETATM   36  C   UNL     1      44.337 -21.776   2.959  1.00  0.00     0.042 A 
HETATM   37  C   UNL     1      43.721 -21.202   1.851  1.00  0.00     0.003 A 
HETATM   38  C   UNL     1      43.519 -19.819   1.802  1.00  0.00     0.007 A 
ENDBRANCH  31  32
ENDBRANCH   9  31
ENDBRANCH   4   5
ENDBRANCH   3   4
TORSDOF 7
ENDMDL
MODEL 5
REMARK VINA RESULT:      -9.2      1.241      2.024
REMARK  7 active torsions:
REMARK  status: ('A' for Active; 'I' for Inactive)
REMARK    1  A    between atoms: C_3  and  C_4 
REMARK    2  A    between atoms: C_4  and  N_5 
REMARK    3  A    between atoms: C_9  and  C_10 
REMARK    4  A    between atoms: C_9  and  C_28 
REMARK    5  A    between atoms: N_13  and  C_15 
REMARK    6  A    between atoms: C_15  and  C_16 
REMARK    7  A    between atoms: C_28  and  C_29 
ROOT
HETATM    1  C   UNL     1      38.792 -11.191   3.623  1.00  0.00     0.112 C 
HETATM    2  C   UNL     1      39.675 -12.198   4.215  1.00  0.00    -0.109 C 
HETATM    3  C   UNL     1      40.478 -13.057   4.778  1.00  0.00    -0.087 C 
ENDROOT
BRANCH   3   4
HETATM    4  C   UNL     1      41.415 -14.058   5.434  1.00  0.00     0.230 C 
BRANCH   4   5
HETATM    5  N   UNL     1      41.487 -15.313   4.732  1.00  0.00    -0.257 N 
HETATM    6  C   UNL     1      41.180 -16.512   5.290  1.00  0.00     0.327 C 
HETATM    7  O   UNL     1      40.708 -16.727   6.390  1.00  0.00    -0.247 OA
HETATM    8  N   UNL     1      41.515 -17.501   4.395  1.00  0.00    -0.324 N 
HETATM    9  C   UNL     1      42.198 -17.000   3.214  1.00  0.00     0.123 C 
HETATM   10  H   UNL     1      41.452 -18.476   4.671  1.00  0.00     0.165 HD
HETATM   11  C   UNL     1      42.165 -15.498   3.567  1.00  0.00     0.257 C 
HETATM   12  O   UNL     1      42.673 -14.615   2.891  1.00  0.00    -0.270 OA
BRANCH   9  13
HETATM   13  C   UNL     1      41.393 -17.391   1.928  1.00  0.00     0.027 C 
HETATM   14  C   UNL     1      41.972 -16.937   0.579  1.00  0.00     0.035 C 
HETATM   15  C   UNL     1      41.686 -15.496   0.174  1.00  0.00     0.235 C 
HETATM   16  N   UNL     1      40.248 -15.098   0.395  1.00  0.00    -0.067 N 
HETATM   17  H   UNL     1      39.713 -15.504  -0.384  1.00  0.00     0.280 HD
HETATM   18  C   UNL     1      39.608 -15.565   1.672  1.00  0.00     0.235 C 
HETATM   19  C   UNL     1      39.895 -17.030   1.936  1.00  0.00     0.035 C 
BRANCH  16  20
HETATM   20  C   UNL     1      40.072 -13.585   0.289  1.00  0.00     0.273 C 
BRANCH  20  21
HETATM   21  C   UNL     1      39.020 -13.154  -0.691  1.00  0.00    -0.030 A 
HETATM   22  C   UNL     1      38.765 -13.914  -1.842  1.00  0.00     0.048 A 
HETATM   23  C   UNL     1      37.798 -13.498  -2.755  1.00  0.00     0.102 A 
HETATM   24  C   UNL     1      37.097 -12.308  -2.546  1.00  0.00     0.102 A 
HETATM   25  O   UNL     1      37.593 -14.309  -3.840  1.00  0.00    -0.346 OA
HETATM   26  O   UNL     1      36.158 -11.825  -3.417  1.00  0.00    -0.346 OA
HETATM   27  C   UNL     1      37.333 -11.554  -1.400  1.00  0.00     0.040 A 
HETATM   28  C   UNL     1      36.218 -12.493  -4.684  1.00  0.00     0.202 C 
HETATM   29  C   UNL     1      36.357 -13.996  -4.496  1.00  0.00     0.202 C 
HETATM   30  C   UNL     1      38.291 -11.973  -0.475  1.00  0.00     0.012 A 
ENDBRANCH  20  21
ENDBRANCH  16  20
ENDBRANCH   9  13
BRANCH   9  31
HETATM   31  C   UNL     1      43.699 -17.401   3.213  1.00  0.00     0.080 C 
BRANCH  31  32
HETATM   32  C   UNL     1      43.982 -18.884   3.198  1.00  0.00    -0.052 A 
HETATM   33  C   UNL     1      44.457 -19.540   4.339  1.00  0.00     0.049 A 
HETATM   34  C   UNL     1      44.699 -20.911   4.307  1.00  0.00     0.116 A 
HETATM   35  F   UNL     1      45.160 -21.519   5.408  1.00  0.00    -0.206 F 
HETATM   36  C   UNL     1      44.470 -21.654   3.157  1.00  0.00     0.042 A 
HETATM   37  C   UNL     1      43.986 -21.016   2.018  1.00  0.00     0.003 A 
HETATM   38  C   UNL     1      43.744 -19.639   2.037  1.00  0.00     0.007 A 
ENDBRANCH  31  32
ENDBRANCH   9  31
ENDBRANCH   4   5
ENDBRANCH   3   4
TORSDOF 7
ENDMDL
MODEL 6
REMARK VINA RESULT:      -9.2      3.512      8.674
REMARK  7 active torsions:
REMARK  status: ('A' for Active; 'I' for Inactive)
REMARK    1  A    between atoms: C_3  and  C_4 
REMARK    2  A    between atoms: C_4  and  N_5 
REMARK    3  A    between atoms: C_9  and  C_10 
REMARK    4  A    between atoms: C_9  and  C_28 
REMARK    5  A    between atoms: N_13  and  C_15 
REMARK    6  A    between atoms: C_15  and  C_16 
REMARK    7  A    between atoms: C_28  and  C_29 
ROOT
HETATM    1  C   UNL     1      45.267 -17.791   6.693  1.00  0.00     0.112 C 
HETATM    2  C   UNL     1      44.449 -16.597   6.470  1.00  0.00    -0.109 C 
HETATM    3  C   UNL     1      43.685 -15.565   6.246  1.00  0.00    -0.087 C 
ENDROOT
BRANCH   3   4
HETATM    4  C   UNL     1      42.794 -14.362   5.983  1.00  0.00     0.230 C 
BRANCH   4   5
HETATM    5  N   UNL     1      42.287 -14.314   4.637  1.00  0.00    -0.257 N 
HETATM    6  C   UNL     1      43.014 -13.900   3.568  1.00  0.00     0.327 C 
HETATM    7  O   UNL     1      44.196 -13.614   3.531  1.00  0.00    -0.247 OA
HETATM    8  N   UNL     1      42.176 -13.827   2.480  1.00  0.00    -0.324 N 
HETATM    9  C   UNL     1      40.783 -14.075   2.810  1.00  0.00     0.123 C 
HETATM   10  H   UNL     1      42.514 -13.439   1.605  1.00  0.00     0.165 HD
HETATM   11  C   UNL     1      40.965 -14.354   4.317  1.00  0.00     0.257 C 
HETATM   12  O   UNL     1      40.051 -14.579   5.097  1.00  0.00    -0.270 OA
BRANCH   9  13
HETATM   13  C   UNL     1      40.247 -15.288   1.977  1.00  0.00     0.027 C 
HETATM   14  C   UNL     1      40.276 -16.667   2.656  1.00  0.00     0.035 C 
HETATM   15  C   UNL     1      41.613 -17.398   2.638  1.00  0.00     0.235 C 
HETATM   16  N   UNL     1      42.285 -17.360   1.287  1.00  0.00    -0.067 N 
HETATM   17  H   UNL     1      41.805 -18.060   0.706  1.00  0.00     0.280 HD
HETATM   18  C   UNL     1      42.236 -16.052   0.548  1.00  0.00     0.235 C 
HETATM   19  C   UNL     1      40.844 -15.452   0.566  1.00  0.00     0.035 C 
BRANCH  16  20
HETATM   20  C   UNL     1      43.740 -17.809   1.383  1.00  0.00     0.273 C 
BRANCH  20  21
HETATM   21  C   UNL     1      43.927 -19.168   1.993  1.00  0.00    -0.030 A 
HETATM   22  C   UNL     1      44.322 -19.299   3.332  1.00  0.00     0.048 A 
HETATM   23  C   UNL     1      44.508 -20.564   3.886  1.00  0.00     0.102 A 
HETATM   24  C   UNL     1      44.331 -21.709   3.105  1.00  0.00     0.102 A 
HETATM   25  O   UNL     1      44.870 -20.605   5.206  1.00  0.00    -0.346 OA
HETATM   26  O   UNL     1      44.527 -22.979   3.576  1.00  0.00    -0.346 OA
HETATM   27  C   UNL     1      43.925 -21.590   1.778  1.00  0.00     0.040 A 
HETATM   28  C   UNL     1      45.231 -22.978   4.825  1.00  0.00     0.202 C 
HETATM   29  C   UNL     1      44.673 -21.914   5.758  1.00  0.00     0.202 C 
HETATM   30  C   UNL     1      43.724 -20.325   1.223  1.00  0.00     0.012 A 
ENDBRANCH  20  21
ENDBRANCH  16  20
ENDBRANCH   9  13
BRANCH   9  31
HETATM   31  C   UNL     1      39.938 -12.774   2.721  1.00  0.00     0.080 C 
BRANCH  31  32
HETATM   32  C   UNL     1      39.199 -12.560   1.422  1.00  0.00    -0.052 A 
HETATM   33  C   UNL     1      39.825 -11.950   0.328  1.00  0.00     0.049 A 
HETATM   34  C   UNL     1      39.129 -11.774  -0.866  1.00  0.00     0.116 A 
HETATM   35  F   UNL     1      39.743 -11.182  -1.899  1.00  0.00    -0.206 F 
HETATM   36  C   UNL     1      37.815 -12.201  -1.001  1.00  0.00     0.042 A 
HETATM   37  C   UNL     1      37.185 -12.819   0.076  1.00  0.00     0.003 A 
HETATM   38  C   UNL     1      37.872 -12.997   1.280  1.00  0.00     0.007 A 
ENDBRANCH  31  32
ENDBRANCH   9  31
ENDBRANCH   4   5
ENDBRANCH   3   4
TORSDOF 7
ENDMDL
MODEL 7
REMARK VINA RESULT:      -8.8      3.601      8.203
REMARK  7 active torsions:
REMARK  status: ('A' for Active; 'I' for Inactive)
REMARK    1  A    between atoms: C_3  and  C_4 
REMARK    2  A    between atoms: C_4  and  N_5 
REMARK    3  A    between atoms: C_9  and  C_10 
REMARK    4  A    between atoms: C_9  and  C_28 
REMARK    5  A    between atoms: N_13  and  C_15 
REMARK    6  A    between atoms: C_15  and  C_16 
REMARK    7  A    between atoms: C_28  and  C_29 
ROOT
HETATM    1  C   UNL     1      41.134 -15.350  -3.203  1.00  0.00     0.112 C 
HETATM    2  C   UNL     1      40.765 -15.006  -1.828  1.00  0.00    -0.109 C 
HETATM    3  C   UNL     1      40.463 -14.652  -0.610  1.00  0.00    -0.087 C 
ENDROOT
BRANCH   3   4
HETATM    4  C   UNL     1      40.110 -14.239   0.809  1.00  0.00     0.230 C 
BRANCH   4   5
HETATM    5  N   UNL     1      41.189 -14.435   1.742  1.00  0.00    -0.257 N 
HETATM    6  C   UNL     1      42.180 -13.532   1.955  1.00  0.00     0.327 C 
HETATM    7  O   UNL     1      42.276 -12.406   1.505  1.00  0.00    -0.247 OA
HETATM    8  N   UNL     1      43.118 -14.109   2.778  1.00  0.00    -0.324 N 
HETATM    9  C   UNL     1      42.852 -15.509   3.060  1.00  0.00     0.123 C 
HETATM   10  H   UNL     1      43.989 -13.623   2.973  1.00  0.00     0.165 HD
HETATM   11  C   UNL     1      41.534 -15.642   2.268  1.00  0.00     0.257 C 
HETATM   12  O   UNL     1      40.902 -16.680   2.142  1.00  0.00    -0.270 OA
BRANCH   9  13
HETATM   13  C   UNL     1      42.715 -15.724   4.606  1.00  0.00     0.027 C 
HETATM   14  C   UNL     1      41.299 -15.638   5.197  1.00  0.00     0.035 C 
HETATM   15  C   UNL     1      40.763 -14.237   5.464  1.00  0.00     0.235 C 
HETATM   16  N   UNL     1      41.771 -13.342   6.143  1.00  0.00    -0.067 N 
HETATM   17  H   UNL     1      41.776 -13.614   7.135  1.00  0.00     0.280 HD
HETATM   18  C   UNL     1      43.187 -13.426   5.646  1.00  0.00     0.235 C 
HETATM   19  C   UNL     1      43.640 -14.864   5.489  1.00  0.00     0.035 C 
BRANCH  16  20
HETATM   20  C   UNL     1      41.329 -11.882   6.102  1.00  0.00     0.273 C 
BRANCH  20  21
HETATM   21  C   UNL     1      40.917 -11.326   7.434  1.00  0.00    -0.030 A 
HETATM   22  C   UNL     1      41.872 -10.776   8.302  1.00  0.00     0.048 A 
HETATM   23  C   UNL     1      41.483 -10.276   9.543  1.00  0.00     0.102 A 
HETATM   24  C   UNL     1      40.147 -10.345   9.944  1.00  0.00     0.102 A 
HETATM   25  O   UNL     1      42.472  -9.734  10.320  1.00  0.00    -0.346 OA
HETATM   26  O   UNL     1      39.702  -9.902  11.160  1.00  0.00    -0.346 OA
HETATM   27  C   UNL     1      39.189 -10.877   9.084  1.00  0.00     0.040 A 
HETATM   28  C   UNL     1      40.786  -9.672  12.069  1.00  0.00     0.202 C 
HETATM   29  C   UNL     1      41.923  -8.935  11.377  1.00  0.00     0.202 C 
HETATM   30  C   UNL     1      39.571 -11.366   7.834  1.00  0.00     0.012 A 
ENDBRANCH  20  21
ENDBRANCH  16  20
ENDBRANCH   9  13
BRANCH   9  31
HETATM   31  C   UNL     1      43.871 -16.437   2.342  1.00  0.00     0.080 C 
BRANCH  31  32
HETATM   32  C   UNL     1      43.877 -17.878   2.793  1.00  0.00    -0.052 A 
HETATM   33  C   UNL     1      43.571 -18.914   1.902  1.00  0.00     0.049 A 
HETATM   34  C   UNL     1      43.595 -20.237   2.335  1.00  0.00     0.116 A 
HETATM   35  F   UNL     1      43.292 -21.213   1.469  1.00  0.00    -0.206 F 
HETATM   36  C   UNL     1      43.927 -20.558   3.644  1.00  0.00     0.042 A 
HETATM   37  C   UNL     1      44.244 -19.539   4.537  1.00  0.00     0.003 A 
HETATM   38  C   UNL     1      44.219 -18.206   4.115  1.00  0.00     0.007 A 
ENDBRANCH  31  32
ENDBRANCH   9  31
ENDBRANCH   4   5
ENDBRANCH   3   4
TORSDOF 7
ENDMDL
MODEL 8
REMARK VINA RESULT:      -8.8      2.486      4.720
REMARK  7 active torsions:
REMARK  status: ('A' for Active; 'I' for Inactive)
REMARK    1  A    between atoms: C_3  and  C_4 
REMARK    2  A    between atoms: C_4  and  N_5 
REMARK    3  A    between atoms: C_9  and  C_10 
REMARK    4  A    between atoms: C_9  and  C_28 
REMARK    5  A    between atoms: N_13  and  C_15 
REMARK    6  A    between atoms: C_15  and  C_16 
REMARK    7  A    between atoms: C_28  and  C_29 
ROOT
HETATM    1  C   UNL     1      44.493 -19.717   3.725  1.00  0.00     0.112 C 
HETATM    2  C   UNL     1      44.079 -18.717   4.712  1.00  0.00    -0.109 C 
HETATM    3  C   UNL     1      43.735 -17.857   5.629  1.00  0.00    -0.087 C 
ENDROOT
BRANCH   3   4
HETATM    4  C   UNL     1      43.332 -16.854   6.698  1.00  0.00     0.230 C 
BRANCH   4   5
HETATM    5  N   UNL     1      42.332 -15.921   6.253  1.00  0.00    -0.257 N 
HETATM    6  C   UNL     1      41.041 -16.257   5.998  1.00  0.00     0.327 C 
HETATM    7  O   UNL     1      40.494 -17.325   6.193  1.00  0.00    -0.247 OA
HETATM    8  N   UNL     1      40.415 -15.166   5.441  1.00  0.00    -0.324 N 
HETATM    9  C   UNL     1      41.318 -14.059   5.174  1.00  0.00     0.123 C 
HETATM   10  H   UNL     1      39.467 -15.252   5.087  1.00  0.00     0.165 HD
HETATM   11  C   UNL     1      42.610 -14.697   5.726  1.00  0.00     0.257 C 
HETATM   12  O   UNL     1      43.713 -14.170   5.694  1.00  0.00    -0.270 OA
BRANCH   9  13
HETATM   13  C   UNL     1      40.834 -12.782   5.941  1.00  0.00     0.027 C 
HETATM   14  C   UNL     1      39.319 -12.523   5.975  1.00  0.00     0.035 C 
HETATM   15  C   UNL     1      38.721 -11.861   4.740  1.00  0.00     0.235 C 
HETATM   16  N   UNL     1      39.538 -10.692   4.246  1.00  0.00    -0.067 N 
HETATM   17  H   UNL     1      39.319  -9.904   4.869  1.00  0.00     0.280 HD
HETATM   18  C   UNL     1      41.031 -10.865   4.246  1.00  0.00     0.235 C 
HETATM   19  C   UNL     1      41.523 -11.460   5.551  1.00  0.00     0.035 C 
BRANCH  16  20
HETATM   20  C   UNL     1      39.100 -10.264   2.848  1.00  0.00     0.273 C 
BRANCH  20  21
HETATM   21  C   UNL     1      39.095 -11.374   1.838  1.00  0.00    -0.030 A 
HETATM   22  C   UNL     1      40.284 -11.772   1.211  1.00  0.00     0.048 A 
HETATM   23  C   UNL     1      40.268 -12.793   0.263  1.00  0.00     0.102 A 
HETATM   24  C   UNL     1      39.065 -13.407  -0.091  1.00  0.00     0.102 A 
HETATM   25  O   UNL     1      41.476 -13.138  -0.284  1.00  0.00    -0.346 OA
HETATM   26  O   UNL     1      38.972 -14.393  -1.036  1.00  0.00    -0.346 OA
HETATM   27  C   UNL     1      37.880 -13.029   0.535  1.00  0.00     0.040 A 
HETATM   28  C   UNL     1      40.165 -14.484  -1.825  1.00  0.00     0.202 C 
HETATM   29  C   UNL     1      41.402 -14.410  -0.943  1.00  0.00     0.202 C 
HETATM   30  C   UNL     1      37.893 -12.017   1.496  1.00  0.00     0.012 A 
ENDBRANCH  20  21
ENDBRANCH  16  20
ENDBRANCH   9  13
BRANCH   9  31
HETATM   31  C   UNL     1      41.556 -13.876   3.650  1.00  0.00     0.080 C 
BRANCH  31  32
HETATM   32  C   UNL     1      41.664 -15.149   2.845  1.00  0.00    -0.052 A 
HETATM   33  C   UNL     1      42.912 -15.679   2.497  1.00  0.00     0.049 A 
HETATM   34  C   UNL     1      42.990 -16.860   1.765  1.00  0.00     0.116 A 
HETATM   35  F   UNL     1      44.193 -17.348   1.435  1.00  0.00    -0.206 F 
HETATM   36  C   UNL     1      41.843 -17.539   1.373  1.00  0.00     0.042 A 
HETATM   37  C   UNL     1      40.596 -17.029   1.723  1.00  0.00     0.003 A 
HETATM   38  C   UNL     1      40.506 -15.841   2.454  1.00  0.00     0.007 A 
ENDBRANCH  31  32
ENDBRANCH   9  31
ENDBRANCH   4   5
ENDBRANCH   3   4
TORSDOF 7
ENDMDL
MODEL 9
REMARK VINA RESULT:      -8.7      4.418      8.593
REMARK  7 active torsions:
REMARK  status: ('A' for Active; 'I' for Inactive)
REMARK    1  A    between atoms: C_3  and  C_4 
REMARK    2  A    between atoms: C_4  and  N_5 
REMARK    3  A    between atoms: C_9  and  C_10 
REMARK    4  A    between atoms: C_9  and  C_28 
REMARK    5  A    between atoms: N_13  and  C_15 
REMARK    6  A    between atoms: C_15  and  C_16 
REMARK    7  A    between atoms: C_28  and  C_29 
ROOT
HETATM    1  C   UNL     1      45.312 -12.558   8.541  1.00  0.00     0.112 C 
HETATM    2  C   UNL     1      44.718 -13.581   7.679  1.00  0.00    -0.109 C 
HETATM    3  C   UNL     1      44.230 -14.525   6.924  1.00  0.00    -0.087 C 
ENDROOT
BRANCH   3   4
HETATM    4  C   UNL     1      43.662 -15.626   6.043  1.00  0.00     0.230 C 
BRANCH   4   5
HETATM    5  N   UNL     1      42.832 -15.129   4.978  1.00  0.00    -0.257 N 
HETATM    6  C   UNL     1      43.196 -14.125   4.139  1.00  0.00     0.327 C 
HETATM    7  O   UNL     1      44.273 -13.566   4.064  1.00  0.00    -0.247 OA
HETATM    8  N   UNL     1      42.110 -13.802   3.359  1.00  0.00    -0.324 N 
HETATM    9  C   UNL     1      40.898 -14.509   3.739  1.00  0.00     0.123 C 
HETATM   10  H   UNL     1      42.154 -13.002   2.735  1.00  0.00     0.165 HD
HETATM   11  C   UNL     1      41.494 -15.357   4.883  1.00  0.00     0.257 C 
HETATM   12  O   UNL     1      40.850 -16.120   5.589  1.00  0.00    -0.270 OA
BRANCH   9  13
HETATM   13  C   UNL     1      40.360 -15.334   2.520  1.00  0.00     0.027 C 
HETATM   14  C   UNL     1      40.296 -16.860   2.687  1.00  0.00     0.035 C 
HETATM   15  C   UNL     1      41.601 -17.617   2.470  1.00  0.00     0.235 C 
HETATM   16  N   UNL     1      42.347 -17.160   1.240  1.00  0.00    -0.067 N 
HETATM   17  H   UNL     1      41.873 -17.592   0.437  1.00  0.00     0.280 HD
HETATM   18  C   UNL     1      42.393 -15.679   0.993  1.00  0.00     0.235 C 
HETATM   19  C   UNL     1      41.028 -15.042   1.163  1.00  0.00     0.035 C 
BRANCH  16  20
HETATM   20  C   UNL     1      43.776 -17.698   1.232  1.00  0.00     0.273 C 
BRANCH  20  21
HETATM   21  C   UNL     1      43.954 -18.985   1.983  1.00  0.00    -0.030 A 
HETATM   22  C   UNL     1      44.227 -18.974   3.358  1.00  0.00     0.048 A 
HETATM   23  C   UNL     1      44.406 -20.174   4.045  1.00  0.00     0.102 A 
HETATM   24  C   UNL     1      44.346 -21.392   3.364  1.00  0.00     0.102 A 
HETATM   25  O   UNL     1      44.645 -20.077   5.391  1.00  0.00    -0.346 OA
HETATM   26  O   UNL     1      44.544 -22.603   3.970  1.00  0.00    -0.346 OA
HETATM   27  C   UNL     1      44.063 -21.414   2.001  1.00  0.00     0.040 A 
HETATM   28  C   UNL     1      45.127 -22.456   5.271  1.00  0.00     0.202 C 
HETATM   29  C   UNL     1      44.445 -21.338   6.044  1.00  0.00     0.202 C 
HETATM   30  C   UNL     1      43.867 -20.216   1.312  1.00  0.00     0.012 A 
ENDBRANCH  20  21
ENDBRANCH  16  20
ENDBRANCH   9  13
BRANCH   9  31
HETATM   31  C   UNL     1      39.871 -13.557   4.410  1.00  0.00     0.080 C 
BRANCH  31  32
HETATM   32  C   UNL     1      40.422 -12.239   4.901  1.00  0.00    -0.052 A 
HETATM   33  C   UNL     1      41.012 -12.130   6.166  1.00  0.00     0.049 A 
HETATM   34  C   UNL     1      41.525 -10.909   6.594  1.00  0.00     0.116 A 
HETATM   35  F   UNL     1      42.079 -10.823   7.811  1.00  0.00    -0.206 F 
HETATM   36  C   UNL     1      41.472  -9.783   5.783  1.00  0.00     0.042 A 
HETATM   37  C   UNL     1      40.899  -9.881   4.518  1.00  0.00     0.003 A 
HETATM   38  C   UNL     1      40.376 -11.101   4.079  1.00  0.00     0.007 A 
ENDBRANCH  31  32
ENDBRANCH   9  31
ENDBRANCH   4   5
ENDBRANCH   3   4
TORSDOF 7
ENDMDL
MODEL 10
REMARK VINA RESULT:      -8.7      2.057      2.882
REMARK  7 active torsions:
REMARK  status: ('A' for Active; 'I' for Inactive)
REMARK    1  A    between atoms: C_3  and  C_4 
REMARK    2  A    between atoms: C_4  and  N_5 
REMARK    3  A    between atoms: C_9  and  C_10 
REMARK    4  A    between atoms: C_9  and  C_28 
REMARK    5  A    between atoms: N_13  and  C_15 
REMARK    6  A    between atoms: C_15  and  C_16 
REMARK    7  A    between atoms: C_28  and  C_29 
ROOT
HETATM    1  C   UNL     1      45.446 -13.435   7.463  1.00  0.00     0.112 C 
HETATM    2  C   UNL     1      44.175 -13.648   6.768  1.00  0.00    -0.109 C 
HETATM    3  C   UNL     1      43.029 -13.872   6.189  1.00  0.00    -0.087 C 
ENDROOT
BRANCH   3   4
HETATM    4  C   UNL     1      41.693 -14.134   5.514  1.00  0.00     0.230 C 
BRANCH   4   5
HETATM    5  N   UNL     1      41.660 -15.372   4.781  1.00  0.00    -0.257 N 
HETATM    6  C   UNL     1      41.416 -16.582   5.347  1.00  0.00     0.327 C 
HETATM    7  O   UNL     1      41.090 -16.819   6.494  1.00  0.00    -0.247 OA
HETATM    8  N   UNL     1      41.622 -17.552   4.394  1.00  0.00    -0.324 N 
HETATM    9  C   UNL     1      42.149 -17.028   3.145  1.00  0.00     0.123 C 
HETATM   10  H   UNL     1      41.586 -18.533   4.654  1.00  0.00     0.165 HD
HETATM   11  C   UNL     1      42.177 -15.535   3.533  1.00  0.00     0.257 C 
HETATM   12  O   UNL     1      42.602 -14.640   2.816  1.00  0.00    -0.270 OA
BRANCH   9  13
HETATM   13  C   UNL     1      41.179 -17.384   1.968  1.00  0.00     0.027 C 
HETATM   14  C   UNL     1      41.720 -17.204   0.541  1.00  0.00     0.035 C 
HETATM   15  C   UNL     1      41.688 -15.787  -0.019  1.00  0.00     0.235 C 
HETATM   16  N   UNL     1      40.377 -15.084   0.238  1.00  0.00    -0.067 N 
HETATM   17  H   UNL     1      39.711 -15.455  -0.451  1.00  0.00     0.280 HD
HETATM   18  C   UNL     1      39.768 -15.272   1.599  1.00  0.00     0.235 C 
HETATM   19  C   UNL     1      39.785 -16.728   2.023  1.00  0.00     0.035 C 
BRANCH  16  20
HETATM   20  C   UNL     1      40.490 -13.588  -0.040  1.00  0.00     0.273 C 
BRANCH  20  21
HETATM   21  C   UNL     1      39.690 -12.726   0.892  1.00  0.00    -0.030 A 
HETATM   22  C   UNL     1      38.588 -11.999   0.420  1.00  0.00     0.048 A 
HETATM   23  C   UNL     1      37.860 -11.189   1.290  1.00  0.00     0.102 A 
HETATM   24  C   UNL     1      38.239 -11.072   2.629  1.00  0.00     0.102 A 
HETATM   25  O   UNL     1      36.784 -10.531   0.754  1.00  0.00    -0.346 OA
HETATM   26  O   UNL     1      37.588 -10.271   3.528  1.00  0.00    -0.346 OA
HETATM   27  C   UNL     1      39.323 -11.801   3.111  1.00  0.00     0.040 A 
HETATM   28  C   UNL     1      36.709  -9.347   2.875  1.00  0.00     0.202 C 
HETATM   29  C   UNL     1      35.911 -10.042   1.783  1.00  0.00     0.202 C 
HETATM   30  C   UNL     1      40.047 -12.625   2.247  1.00  0.00     0.012 A 
ENDBRANCH  20  21
ENDBRANCH  16  20
ENDBRANCH   9  13
BRANCH   9  31
HETATM   31  C   UNL     1      43.633 -17.439   2.939  1.00  0.00     0.080 C 
BRANCH  31  32
HETATM   32  C   UNL     1      43.940 -18.906   3.127  1.00  0.00    -0.052 A 
HETATM   33  C   UNL     1      43.742 -19.823   2.089  1.00  0.00     0.049 A 
HETATM   34  C   UNL     1      44.043 -21.169   2.279  1.00  0.00     0.116 A 
HETATM   35  F   UNL     1      43.840 -22.033   1.276  1.00  0.00    -0.206 F 
HETATM   36  C   UNL     1      44.550 -21.628   3.488  1.00  0.00     0.042 A 
HETATM   37  C   UNL     1      44.762 -20.723   4.525  1.00  0.00     0.003 A 
HETATM   38  C   UNL     1      44.459 -19.370   4.347  1.00  0.00     0.007 A 
ENDBRANCH  31  32
ENDBRANCH   9  31
ENDBRANCH   4   5
ENDBRANCH   3   4
TORSDOF 7
ENDMDL
