MODEL 1
REMARK VINA RESULT:      -8.0      0.000      0.000
REMARK  6 active torsions:
REMARK  status: ('A' for Active; 'I' for Inactive)
REMARK    1  A    between atoms: C_2  and  C_3 
REMARK    2  A    between atoms: C_3  and  N_4 
REMARK       I    between atoms: N_4  and  C_5 
REMARK    3  A    between atoms: C_5  and  C_6 
REMARK    4  A    between atoms: C_11  and  C_12 
REMARK    5  A    between atoms: C_15  and  O_16 
REMARK    6  A    between atoms: C_21  and  C_22 
ROOT
HETATM    1  C   UNL     1      42.553 -12.364   6.634  1.00  0.00     0.170 A 
HETATM    2  N   UNL     1      41.646 -12.496   5.633  1.00  0.00    -0.163 NA
HETATM    3  N   UNL     1      41.975 -13.660   5.052  1.00  0.00    -0.238 N 
HETATM    4  C   UNL     1      43.116 -14.226   5.556  1.00  0.00     0.145 A 
HETATM    5  N   UNL     1      43.625 -15.366   5.023  1.00  0.00    -0.365 N 
HETATM    6  C   UNL     1      43.170 -15.826   3.715  1.00  0.00     0.118 C 
HETATM    7  C   UNL     1      41.652 -15.629   3.611  1.00  0.00     0.066 C 
HETATM    8  C   UNL     1      41.273 -14.161   3.880  1.00  0.00     0.221 C 
HETATM    9  C   UNL     1      43.502 -13.422   6.604  1.00  0.00     0.115 A 
HETATM   10 CL   UNL     1      44.837 -13.660   7.624  1.00  0.00    -0.077 Cl
HETATM   11  H   UNL     1      44.568 -15.660   5.283  1.00  0.00     0.162 HD
ENDROOT
BRANCH   6  12
HETATM   12  C   UNL     1      43.535 -17.283   3.506  1.00  0.00    -0.035 A 
HETATM   13  C   UNL     1      43.551 -17.861   2.229  1.00  0.00     0.012 A 
HETATM   14  C   UNL     1      43.932 -19.194   2.056  1.00  0.00     0.037 A 
HETATM   15  C   UNL     1      44.319 -19.973   3.147  1.00  0.00     0.068 A 
HETATM   16  C   UNL     1      44.307 -19.409   4.422  1.00  0.00     0.037 A 
HETATM   17  C   UNL     1      43.920 -18.074   4.599  1.00  0.00     0.012 A 
BRANCH  15  18
HETATM   18  O   UNL     1      44.680 -21.254   2.835  1.00  0.00    -0.356 OA
HETATM   19  C   UNL     1      44.014 -21.861   1.735  1.00  0.00     0.210 C 
ENDBRANCH  15  18
ENDBRANCH   6  12
BRANCH   8  20
HETATM   20  C   UNL     1      39.771 -14.040   4.020  1.00  0.00     0.409 C 
HETATM   21  F   UNL     1      39.328 -14.453   5.227  1.00  0.00    -0.169 F 
HETATM   22  F   UNL     1      39.315 -12.787   3.807  1.00  0.00    -0.169 F 
HETATM   23  F   UNL     1      39.162 -14.824   3.090  1.00  0.00    -0.169 F 
ENDBRANCH   8  20
BRANCH   1  24
HETATM   24  C   UNL     1      42.477 -11.230   7.570  1.00  0.00     0.273 C 
HETATM   25  N   UNL     1      43.003 -11.521   8.811  1.00  0.00    -0.356 N 
HETATM   26  H   UNL     1      43.340 -12.473   8.937  1.00  0.00     0.162 HD
HETATM   27  O   UNL     1      42.006 -10.135   7.282  1.00  0.00    -0.266 OA
BRANCH  25  28
HETATM   28  C   UNL     1      43.058 -10.568   9.893  1.00  0.00     0.122 C 
BRANCH  28  29
HETATM   29  C   UNL     1      44.257 -10.811  10.804  1.00  0.00     0.015 C 
HETATM   30  C   UNL     1      45.550 -10.889  10.010  1.00  0.00     0.006 C 
ENDBRANCH  28  29
ENDBRANCH  25  28
ENDBRANCH   1  24
TORSDOF 6
ENDMDL
MODEL 2
REMARK VINA RESULT:      -7.7      1.583      2.308
REMARK  6 active torsions:
REMARK  status: ('A' for Active; 'I' for Inactive)
REMARK    1  A    between atoms: C_2  and  C_3 
REMARK    2  A    between atoms: C_3  and  N_4 
REMARK       I    between atoms: N_4  and  C_5 
REMARK    3  A    between atoms: C_5  and  C_6 
REMARK    4  A    between atoms: C_11  and  C_12 
REMARK    5  A    between atoms: C_15  and  O_16 
REMARK    6  A    between atoms: C_21  and  C_22 
ROOT
HETATM    1  C   UNL     1      41.993 -12.946   4.984  1.00  0.00     0.170 A 
HETATM    2  N   UNL     1      41.318 -13.308   3.863  1.00  0.00    -0.163 NA
HETATM    3  N   UNL     1      41.779 -14.539   3.593  1.00  0.00    -0.238 N 
HETATM    4  C   UNL     1      42.798 -14.941   4.416  1.00  0.00     0.145 A 
HETATM    5  N   UNL     1      43.425 -16.129   4.224  1.00  0.00    -0.365 N 
HETATM    6  C   UNL     1      43.261 -16.844   2.962  1.00  0.00     0.118 C 
HETATM    7  C   UNL     1      41.796 -16.752   2.517  1.00  0.00     0.066 C 
HETATM    8  C   UNL     1      41.347 -15.283   2.420  1.00  0.00     0.221 C 
HETATM    9  C   UNL     1      42.943 -13.939   5.348  1.00  0.00     0.115 A 
HETATM   10 CL   UNL     1      44.038 -13.913   6.644  1.00  0.00    -0.077 Cl
HETATM   11  H   UNL     1      44.297 -16.318   4.721  1.00  0.00     0.162 HD
ENDROOT
BRANCH   6  12
HETATM   12  C   UNL     1      43.684 -18.292   3.113  1.00  0.00    -0.035 A 
HETATM   13  C   UNL     1      44.137 -18.802   4.339  1.00  0.00     0.012 A 
HETATM   14  C   UNL     1      44.482 -20.150   4.466  1.00  0.00     0.037 A 
HETATM   15  C   UNL     1      44.369 -21.020   3.381  1.00  0.00     0.068 A 
HETATM   16  C   UNL     1      43.920 -20.525   2.158  1.00  0.00     0.037 A 
HETATM   17  C   UNL     1      43.579 -19.173   2.025  1.00  0.00     0.012 A 
BRANCH  15  18
HETATM   18  O   UNL     1      44.726 -22.313   3.646  1.00  0.00    -0.356 OA
HETATM   19  C   UNL     1      45.196 -22.594   4.958  1.00  0.00     0.210 C 
ENDBRANCH  15  18
ENDBRANCH   6  12
BRANCH   8  20
HETATM   20  C   UNL     1      39.847 -15.221   2.226  1.00  0.00     0.409 C 
HETATM   21  F   UNL     1      39.481 -14.300   1.307  1.00  0.00    -0.169 F 
HETATM   22  F   UNL     1      39.304 -16.408   1.875  1.00  0.00    -0.169 F 
HETATM   23  F   UNL     1      39.250 -14.866   3.395  1.00  0.00    -0.169 F 
ENDBRANCH   8  20
BRANCH   1  24
HETATM   24  C   UNL     1      41.705 -11.666   5.652  1.00  0.00     0.273 C 
HETATM   25  N   UNL     1      41.525 -11.798   7.013  1.00  0.00    -0.356 N 
HETATM   26  H   UNL     1      41.578 -12.747   7.376  1.00  0.00     0.162 HD
HETATM   27  O   UNL     1      41.640 -10.589   5.069  1.00  0.00    -0.266 OA
BRANCH  25  28
HETATM   28  C   UNL     1      41.249 -10.686   7.888  1.00  0.00     0.122 C 
BRANCH  28  29
HETATM   29  C   UNL     1      42.367 -10.469   8.903  1.00  0.00     0.015 C 
HETATM   30  C   UNL     1      41.842 -10.523  10.328  1.00  0.00     0.006 C 
ENDBRANCH  28  29
ENDBRANCH  25  28
ENDBRANCH   1  24
TORSDOF 6
ENDMDL
MODEL 3
REMARK VINA RESULT:      -7.7      4.199      7.546
REMARK  6 active torsions:
REMARK  status: ('A' for Active; 'I' for Inactive)
REMARK    1  A    between atoms: C_2  and  C_3 
REMARK    2  A    between atoms: C_3  and  N_4 
REMARK       I    between atoms: N_4  and  C_5 
REMARK    3  A    between atoms: C_5  and  C_6 
REMARK    4  A    between atoms: C_11  and  C_12 
REMARK    5  A    between atoms: C_15  and  O_16 
REMARK    6  A    between atoms: C_21  and  C_22 
ROOT
HETATM    1  C   UNL     1      43.552 -17.809   4.092  1.00  0.00     0.170 A 
HETATM    2  N   UNL     1      42.910 -16.838   4.788  1.00  0.00    -0.163 NA
HETATM    3  N   UNL     1      42.187 -16.197   3.855  1.00  0.00    -0.238 N 
HETATM    4  C   UNL     1      42.420 -16.636   2.579  1.00  0.00     0.145 A 
HETATM    5  N   UNL     1      41.825 -16.039   1.515  1.00  0.00    -0.365 N 
HETATM    6  C   UNL     1      41.197 -14.730   1.670  1.00  0.00     0.118 C 
HETATM    7  C   UNL     1      40.439 -14.689   3.003  1.00  0.00     0.066 C 
HETATM    8  C   UNL     1      41.376 -15.032   4.175  1.00  0.00     0.221 C 
HETATM    9  C   UNL     1      43.282 -17.701   2.700  1.00  0.00     0.115 A 
HETATM   10 CL   UNL     1      43.888 -18.662   1.439  1.00  0.00    -0.077 Cl
HETATM   11  H   UNL     1      42.158 -16.251   0.573  1.00  0.00     0.162 HD
ENDROOT
BRANCH   6  12
HETATM   12  C   UNL     1      40.260 -14.449   0.512  1.00  0.00    -0.035 A 
HETATM   13  C   UNL     1      40.684 -14.558  -0.820  1.00  0.00     0.012 A 
HETATM   14  C   UNL     1      39.792 -14.335  -1.872  1.00  0.00     0.037 A 
HETATM   15  C   UNL     1      38.458 -14.015  -1.619  1.00  0.00     0.068 A 
HETATM   16  C   UNL     1      38.025 -13.904  -0.299  1.00  0.00     0.037 A 
HETATM   17  C   UNL     1      38.918 -14.120   0.758  1.00  0.00     0.012 A 
BRANCH  15  18
HETATM   18  O   UNL     1      37.691 -13.837  -2.737  1.00  0.00    -0.356 OA
HETATM   19  C   UNL     1      37.380 -14.998  -3.496  1.00  0.00     0.210 C 
ENDBRANCH  15  18
ENDBRANCH   6  12
BRANCH   8  20
HETATM   20  C   UNL     1      40.564 -15.231   5.436  1.00  0.00     0.409 C 
HETATM   21  F   UNL     1      40.238 -16.525   5.644  1.00  0.00    -0.169 F 
HETATM   22  F   UNL     1      41.178 -14.765   6.545  1.00  0.00    -0.169 F 
HETATM   23  F   UNL     1      39.394 -14.544   5.339  1.00  0.00    -0.169 F 
ENDBRANCH   8  20
BRANCH   1  24
HETATM   24  C   UNL     1      44.400 -18.793   4.785  1.00  0.00     0.273 C 
HETATM   25  N   UNL     1      44.150 -20.091   4.391  1.00  0.00    -0.356 N 
HETATM   26  H   UNL     1      43.403 -20.211   3.710  1.00  0.00     0.162 HD
HETATM   27  O   UNL     1      45.247 -18.498   5.621  1.00  0.00    -0.266 OA
BRANCH  25  28
HETATM   28  C   UNL     1      44.863 -21.230   4.915  1.00  0.00     0.122 C 
BRANCH  28  29
HETATM   29  C   UNL     1      44.688 -22.464   4.035  1.00  0.00     0.015 C 
HETATM   30  C   UNL     1      44.347 -22.082   2.605  1.00  0.00     0.006 C 
ENDBRANCH  28  29
ENDBRANCH  25  28
ENDBRANCH   1  24
TORSDOF 6
ENDMDL
MODEL 4
REMARK VINA RESULT:      -7.7      4.580      7.138
REMARK  6 active torsions:
REMARK  status: ('A' for Active; 'I' for Inactive)
REMARK    1  A    between atoms: C_2  and  C_3 
REMARK    2  A    between atoms: C_3  and  N_4 
REMARK       I    between atoms: N_4  and  C_5 
REMARK    3  A    between atoms: C_5  and  C_6 
REMARK    4  A    between atoms: C_11  and  C_12 
REMARK    5  A    between atoms: C_15  and  O_16 
REMARK    6  A    between atoms: C_21  and  C_22 
ROOT
HETATM    1  C   UNL     1      39.924 -14.038  -0.086  1.00  0.00     0.170 A 
HETATM    2  N   UNL     1      39.687 -13.833   1.235  1.00  0.00    -0.163 NA
HETATM    3  N   UNL     1      40.362 -14.824   1.840  1.00  0.00    -0.238 N 
HETATM    4  C   UNL     1      40.925 -15.721   0.971  1.00  0.00     0.145 A 
HETATM    5  N   UNL     1      41.575 -16.822   1.425  1.00  0.00    -0.365 N 
HETATM    6  C   UNL     1      41.406 -17.248   2.812  1.00  0.00     0.118 C 
HETATM    7  C   UNL     1      41.410 -16.014   3.722  1.00  0.00     0.066 C 
HETATM    8  C   UNL     1      40.331 -15.008   3.283  1.00  0.00     0.221 C 
HETATM    9  C   UNL     1      40.682 -15.224  -0.289  1.00  0.00     0.115 A 
HETATM   10 CL   UNL     1      41.183 -15.905  -1.760  1.00  0.00    -0.077 Cl
HETATM   11  H   UNL     1      41.814 -17.567   0.769  1.00  0.00     0.162 HD
ENDROOT
BRANCH   6  12
HETATM   12  C   UNL     1      42.507 -18.211   3.210  1.00  0.00    -0.035 A 
HETATM   13  C   UNL     1      42.917 -18.347   4.544  1.00  0.00     0.012 A 
HETATM   14  C   UNL     1      43.905 -19.271   4.895  1.00  0.00     0.037 A 
HETATM   15  C   UNL     1      44.493 -20.087   3.928  1.00  0.00     0.068 A 
HETATM   16  C   UNL     1      44.093 -19.961   2.599  1.00  0.00     0.037 A 
HETATM   17  C   UNL     1      43.107 -19.031   2.243  1.00  0.00     0.012 A 
BRANCH  15  18
HETATM   18  O   UNL     1      45.434 -20.955   4.409  1.00  0.00    -0.356 OA
HETATM   19  C   UNL     1      44.962 -22.058   5.171  1.00  0.00     0.210 C 
ENDBRANCH  15  18
ENDBRANCH   6  12
BRANCH   8  20
HETATM   20  C   UNL     1      40.516 -13.703   4.028  1.00  0.00     0.409 C 
HETATM   21  F   UNL     1      41.458 -12.915   3.466  1.00  0.00    -0.169 F 
HETATM   22  F   UNL     1      39.377 -12.987   4.141  1.00  0.00    -0.169 F 
HETATM   23  F   UNL     1      40.927 -13.958   5.299  1.00  0.00    -0.169 F 
ENDBRANCH   8  20
BRANCH   1  24
HETATM   24  C   UNL     1      39.410 -13.096  -1.094  1.00  0.00     0.273 C 
HETATM   25  N   UNL     1      38.292 -13.568  -1.750  1.00  0.00    -0.356 N 
HETATM   26  H   UNL     1      37.986 -14.502  -1.487  1.00  0.00     0.162 HD
HETATM   27  O   UNL     1      39.912 -12.002  -1.327  1.00  0.00    -0.266 OA
BRANCH  25  28
HETATM   28  C   UNL     1      37.596 -12.821  -2.769  1.00  0.00     0.122 C 
BRANCH  28  29
HETATM   29  C   UNL     1      37.063 -13.727  -3.874  1.00  0.00     0.015 C 
HETATM   30  C   UNL     1      37.540 -15.159  -3.695  1.00  0.00     0.006 C 
ENDBRANCH  28  29
ENDBRANCH  25  28
ENDBRANCH   1  24
TORSDOF 6
ENDMDL
MODEL 5
REMARK VINA RESULT:      -7.5      2.942      3.719
REMARK  6 active torsions:
REMARK  status: ('A' for Active; 'I' for Inactive)
REMARK    1  A    between atoms: C_2  and  C_3 
REMARK    2  A    between atoms: C_3  and  N_4 
REMARK       I    between atoms: N_4  and  C_5 
REMARK    3  A    between atoms: C_5  and  C_6 
REMARK    4  A    between atoms: C_11  and  C_12 
REMARK    5  A    between atoms: C_15  and  O_16 
REMARK    6  A    between atoms: C_21  and  C_22 
ROOT
HETATM    1  C   UNL     1      41.369 -12.940   3.339  1.00  0.00     0.170 A 
HETATM    2  N   UNL     1      41.423 -13.297   2.030  1.00  0.00    -0.163 NA
HETATM    3  N   UNL     1      41.970 -14.523   2.053  1.00  0.00    -0.238 N 
HETATM    4  C   UNL     1      42.375 -14.924   3.298  1.00  0.00     0.145 A 
HETATM    5  N   UNL     1      43.017 -16.106   3.478  1.00  0.00    -0.365 N 
HETATM    6  C   UNL     1      43.580 -16.811   2.330  1.00  0.00     0.118 C 
HETATM    7  C   UNL     1      42.598 -16.726   1.155  1.00  0.00     0.066 C 
HETATM    8  C   UNL     1      42.259 -15.259   0.832  1.00  0.00     0.221 C 
HETATM    9  C   UNL     1      41.975 -13.929   4.161  1.00  0.00     0.115 A 
HETATM   10 CL   UNL     1      42.180 -13.907   5.845  1.00  0.00    -0.077 Cl
HETATM   11  H   UNL     1      43.477 -16.293   4.371  1.00  0.00     0.162 HD
ENDROOT
BRANCH   6  12
HETATM   12  C   UNL     1      43.867 -18.258   2.684  1.00  0.00    -0.035 A 
HETATM   13  C   UNL     1      44.292 -18.630   3.967  1.00  0.00     0.012 A 
HETATM   14  C   UNL     1      44.510 -19.974   4.283  1.00  0.00     0.037 A 
HETATM   15  C   UNL     1      44.295 -20.973   3.334  1.00  0.00     0.068 A 
HETATM   16  C   UNL     1      43.872 -20.615   2.055  1.00  0.00     0.037 A 
HETATM   17  C   UNL     1      43.658 -19.268   1.733  1.00  0.00     0.012 A 
BRANCH  15  18
HETATM   18  O   UNL     1      44.533 -22.244   3.778  1.00  0.00    -0.356 OA
HETATM   19  C   UNL     1      45.091 -22.377   5.079  1.00  0.00     0.210 C 
ENDBRANCH  15  18
ENDBRANCH   6  12
BRANCH   8  20
HETATM   20  C   UNL     1      41.111 -15.206  -0.152  1.00  0.00     0.409 C 
HETATM   21  F   UNL     1      39.905 -15.250   0.456  1.00  0.00    -0.169 F 
HETATM   22  F   UNL     1      41.143 -14.117  -0.951  1.00  0.00    -0.169 F 
HETATM   23  F   UNL     1      41.170 -16.282  -0.981  1.00  0.00    -0.169 F 
ENDBRANCH   8  20
BRANCH   1  24
HETATM   24  C   UNL     1      40.749 -11.668   3.744  1.00  0.00     0.273 C 
HETATM   25  N   UNL     1      41.635 -10.811   4.363  1.00  0.00    -0.356 N 
HETATM   26  H   UNL     1      42.579 -11.168   4.492  1.00  0.00     0.162 HD
HETATM   27  O   UNL     1      39.571 -11.388   3.548  1.00  0.00    -0.266 OA
BRANCH  25  28
HETATM   28  C   UNL     1      41.269  -9.498   4.836  1.00  0.00     0.122 C 
BRANCH  28  29
HETATM   29  C   UNL     1      41.344  -9.399   6.356  1.00  0.00     0.015 C 
HETATM   30  C   UNL     1      40.089  -9.950   7.011  1.00  0.00     0.006 C 
ENDBRANCH  28  29
ENDBRANCH  25  28
ENDBRANCH   1  24
TORSDOF 6
ENDMDL
MODEL 6
REMARK VINA RESULT:      -7.5      4.247      6.730
REMARK  6 active torsions:
REMARK  status: ('A' for Active; 'I' for Inactive)
REMARK    1  A    between atoms: C_2  and  C_3 
REMARK    2  A    between atoms: C_3  and  N_4 
REMARK       I    between atoms: N_4  and  C_5 
REMARK    3  A    between atoms: C_5  and  C_6 
REMARK    4  A    between atoms: C_11  and  C_12 
REMARK    5  A    between atoms: C_15  and  O_16 
REMARK    6  A    between atoms: C_21  and  C_22 
ROOT
HETATM    1  C   UNL     1      43.393 -17.104   4.707  1.00  0.00     0.170 A 
HETATM    2  N   UNL     1      42.768 -15.935   4.997  1.00  0.00    -0.163 NA
HETATM    3  N   UNL     1      42.265 -15.538   3.817  1.00  0.00    -0.238 N 
HETATM    4  C   UNL     1      42.633 -16.333   2.764  1.00  0.00     0.145 A 
HETATM    5  N   UNL     1      42.270 -16.022   1.493  1.00  0.00    -0.365 N 
HETATM    6  C   UNL     1      41.776 -14.684   1.183  1.00  0.00     0.118 C 
HETATM    7  C   UNL     1      40.839 -14.220   2.305  1.00  0.00     0.066 C 
HETATM    8  C   UNL     1      41.551 -14.279   3.669  1.00  0.00     0.221 C 
HETATM    9  C   UNL     1      43.344 -17.375   3.312  1.00  0.00     0.115 A 
HETATM   10 CL   UNL     1      44.019 -18.690   2.477  1.00  0.00    -0.077 Cl
HETATM   11  H   UNL     1      42.712 -16.513   0.714  1.00  0.00     0.162 HD
ENDROOT
BRANCH   6  12
HETATM   12  C   UNL     1      41.055 -14.680  -0.151  1.00  0.00    -0.035 A 
HETATM   13  C   UNL     1      41.431 -15.542  -1.192  1.00  0.00     0.012 A 
HETATM   14  C   UNL     1      40.725 -15.550  -2.398  1.00  0.00     0.037 A 
HETATM   15  C   UNL     1      39.625 -14.714  -2.587  1.00  0.00     0.068 A 
HETATM   16  C   UNL     1      39.243 -13.853  -1.559  1.00  0.00     0.037 A 
HETATM   17  C   UNL     1      39.951 -13.837  -0.351  1.00  0.00     0.012 A 
BRANCH  15  18
HETATM   18  O   UNL     1      39.019 -14.833  -3.807  1.00  0.00    -0.356 OA
HETATM   19  C   UNL     1      38.856 -16.149  -4.318  1.00  0.00     0.210 C 
ENDBRANCH  15  18
ENDBRANCH   6  12
BRANCH   8  20
HETATM   20  C   UNL     1      40.545 -14.060   4.779  1.00  0.00     0.409 C 
HETATM   21  F   UNL     1      39.967 -15.211   5.189  1.00  0.00    -0.169 F 
HETATM   22  F   UNL     1      41.069 -13.442   5.859  1.00  0.00    -0.169 F 
HETATM   23  F   UNL     1      39.543 -13.255   4.335  1.00  0.00    -0.169 F 
ENDBRANCH   8  20
BRANCH   1  24
HETATM   24  C   UNL     1      44.016 -17.906   5.773  1.00  0.00     0.273 C 
HETATM   25  N   UNL     1      43.401 -19.127   5.956  1.00  0.00    -0.356 N 
HETATM   26  H   UNL     1      42.589 -19.306   5.369  1.00  0.00     0.162 HD
HETATM   27  O   UNL     1      44.985 -17.539   6.429  1.00  0.00    -0.266 OA
BRANCH  25  28
HETATM   28  C   UNL     1      43.838 -20.097   6.930  1.00  0.00     0.122 C 
BRANCH  28  29
HETATM   29  C   UNL     1      44.022 -21.480   6.313  1.00  0.00     0.015 C 
HETATM   30  C   UNL     1      44.860 -21.415   5.047  1.00  0.00     0.006 C 
ENDBRANCH  28  29
ENDBRANCH  25  28
ENDBRANCH   1  24
TORSDOF 6
ENDMDL
MODEL 7
REMARK VINA RESULT:      -7.5      4.407      6.202
REMARK  6 active torsions:
REMARK  status: ('A' for Active; 'I' for Inactive)
REMARK    1  A    between atoms: C_2  and  C_3 
REMARK    2  A    between atoms: C_3  and  N_4 
REMARK       I    between atoms: N_4  and  C_5 
REMARK    3  A    between atoms: C_5  and  C_6 
REMARK    4  A    between atoms: C_11  and  C_12 
REMARK    5  A    between atoms: C_15  and  O_16 
REMARK    6  A    between atoms: C_21  and  C_22 
ROOT
HETATM    1  C   UNL     1      41.378 -13.729   0.319  1.00  0.00     0.170 A 
HETATM    2  N   UNL     1      41.655 -13.493   1.626  1.00  0.00    -0.163 NA
HETATM    3  N   UNL     1      42.061 -14.686   2.089  1.00  0.00    -0.238 N 
HETATM    4  C   UNL     1      41.950 -15.701   1.175  1.00  0.00     0.145 A 
HETATM    5  N   UNL     1      42.247 -16.981   1.512  1.00  0.00    -0.365 N 
HETATM    6  C   UNL     1      42.367 -17.356   2.918  1.00  0.00     0.118 C 
HETATM    7  C   UNL     1      43.114 -16.248   3.673  1.00  0.00     0.066 C 
HETATM    8  C   UNL     1      42.410 -14.892   3.486  1.00  0.00     0.221 C 
HETATM    9  C   UNL     1      41.534 -15.107   0.006  1.00  0.00     0.115 A 
HETATM   10 CL   UNL     1      41.264 -15.879  -1.481  1.00  0.00    -0.077 Cl
HETATM   11  H   UNL     1      41.975 -17.738   0.883  1.00  0.00     0.162 HD
ENDROOT
BRANCH   6  12
HETATM   12  C   UNL     1      43.094 -18.680   3.055  1.00  0.00    -0.035 A 
HETATM   13  C   UNL     1      43.762 -19.032   4.237  1.00  0.00     0.012 A 
HETATM   14  C   UNL     1      44.389 -20.275   4.356  1.00  0.00     0.037 A 
HETATM   15  C   UNL     1      44.351 -21.197   3.309  1.00  0.00     0.068 A 
HETATM   16  C   UNL     1      43.690 -20.857   2.130  1.00  0.00     0.037 A 
HETATM   17  C   UNL     1      43.065 -19.609   2.005  1.00  0.00     0.012 A 
BRANCH  15  18
HETATM   18  O   UNL     1      44.992 -22.377   3.563  1.00  0.00    -0.356 OA
HETATM   19  C   UNL     1      45.256 -22.685   4.926  1.00  0.00     0.210 C 
ENDBRANCH  15  18
ENDBRANCH   6  12
BRANCH   8  20
HETATM   20  C   UNL     1      43.290 -13.783   4.023  1.00  0.00     0.409 C 
HETATM   21  F   UNL     1      43.572 -13.935   5.336  1.00  0.00    -0.169 F 
HETATM   22  F   UNL     1      44.456 -13.655   3.353  1.00  0.00    -0.169 F 
HETATM   23  F   UNL     1      42.650 -12.590   3.896  1.00  0.00    -0.169 F 
ENDBRANCH   8  20
BRANCH   1  24
HETATM   24  C   UNL     1      40.969 -12.629  -0.571  1.00  0.00     0.273 C 
HETATM   25  N   UNL     1      42.031 -12.054  -1.237  1.00  0.00    -0.356 N 
HETATM   26  H   UNL     1      42.950 -12.429  -1.012  1.00  0.00     0.162 HD
HETATM   27  O   UNL     1      39.808 -12.262  -0.717  1.00  0.00    -0.266 OA
BRANCH  25  28
HETATM   28  C   UNL     1      41.884 -10.970  -2.178  1.00  0.00     0.122 C 
BRANCH  28  29
HETATM   29  C   UNL     1      42.445  -9.661  -1.629  1.00  0.00     0.015 C 
HETATM   30  C   UNL     1      43.926  -9.782  -1.313  1.00  0.00     0.006 C 
ENDBRANCH  28  29
ENDBRANCH  25  28
ENDBRANCH   1  24
TORSDOF 6
ENDMDL
MODEL 8
REMARK VINA RESULT:      -7.4      2.983      8.133
REMARK  6 active torsions:
REMARK  status: ('A' for Active; 'I' for Inactive)
REMARK    1  A    between atoms: C_2  and  C_3 
REMARK    2  A    between atoms: C_3  and  N_4 
REMARK       I    between atoms: N_4  and  C_5 
REMARK    3  A    between atoms: C_5  and  C_6 
REMARK    4  A    between atoms: C_11  and  C_12 
REMARK    5  A    between atoms: C_15  and  O_16 
REMARK    6  A    between atoms: C_21  and  C_22 
ROOT
HETATM    1  C   UNL     1      42.957 -18.447   5.729  1.00  0.00     0.170 A 
HETATM    2  N   UNL     1      42.321 -18.196   4.557  1.00  0.00    -0.163 NA
HETATM    3  N   UNL     1      41.843 -16.951   4.711  1.00  0.00    -0.238 N 
HETATM    4  C   UNL     1      42.042 -16.433   5.964  1.00  0.00     0.145 A 
HETATM    5  N   UNL     1      41.550 -15.215   6.303  1.00  0.00    -0.365 N 
HETATM    6  C   UNL     1      40.531 -14.583   5.471  1.00  0.00     0.118 C 
HETATM    7  C   UNL     1      40.879 -14.804   3.993  1.00  0.00     0.066 C 
HETATM    8  C   UNL     1      41.035 -16.304   3.688  1.00  0.00     0.221 C 
HETATM    9  C   UNL     1      42.787 -17.370   6.642  1.00  0.00     0.115 A 
HETATM   10 CL   UNL     1      43.363 -17.248   8.233  1.00  0.00    -0.077 Cl
HETATM   11  H   UNL     1      41.541 -14.937   7.286  1.00  0.00     0.162 HD
ENDROOT
BRANCH   6  12
HETATM   12  C   UNL     1      40.435 -13.102   5.782  1.00  0.00    -0.035 A 
HETATM   13  C   UNL     1      39.540 -12.609   6.743  1.00  0.00     0.012 A 
HETATM   14  C   UNL     1      39.497 -11.246   7.044  1.00  0.00     0.037 A 
HETATM   15  C   UNL     1      40.354 -10.348   6.406  1.00  0.00     0.068 A 
HETATM   16  C   UNL     1      41.247 -10.826   5.449  1.00  0.00     0.037 A 
HETATM   17  C   UNL     1      41.288 -12.192   5.140  1.00  0.00     0.012 A 
BRANCH  15  18
HETATM   18  O   UNL     1      40.217  -9.047   6.804  1.00  0.00    -0.356 OA
HETATM   19  C   UNL     1      41.304  -8.476   7.522  1.00  0.00     0.210 C 
ENDBRANCH  15  18
ENDBRANCH   6  12
BRANCH   8  20
HETATM   20  C   UNL     1      41.618 -16.485   2.303  1.00  0.00     0.409 C 
HETATM   21  F   UNL     1      41.099 -15.618   1.406  1.00  0.00    -0.169 F 
HETATM   22  F   UNL     1      42.964 -16.371   2.271  1.00  0.00    -0.169 F 
HETATM   23  F   UNL     1      41.336 -17.735   1.848  1.00  0.00    -0.169 F 
ENDBRANCH   8  20
BRANCH   1  24
HETATM   24  C   UNL     1      43.694 -19.707   5.927  1.00  0.00     0.273 C 
HETATM   25  N   UNL     1      44.327 -20.145   4.783  1.00  0.00    -0.356 N 
HETATM   26  H   UNL     1      44.184 -19.576   3.952  1.00  0.00     0.162 HD
HETATM   27  O   UNL     1      43.750 -20.306   6.996  1.00  0.00    -0.266 OA
BRANCH  25  28
HETATM   28  C   UNL     1      45.125 -21.346   4.729  1.00  0.00     0.122 C 
BRANCH  28  29
HETATM   29  C   UNL     1      44.633 -22.308   3.652  1.00  0.00     0.015 C 
HETATM   30  C   UNL     1      44.243 -21.568   2.384  1.00  0.00     0.006 C 
ENDBRANCH  28  29
ENDBRANCH  25  28
ENDBRANCH   1  24
TORSDOF 6
ENDMDL
MODEL 9
REMARK VINA RESULT:      -7.4      3.732      8.525
REMARK  6 active torsions:
REMARK  status: ('A' for Active; 'I' for Inactive)
REMARK    1  A    between atoms: C_2  and  C_3 
REMARK    2  A    between atoms: C_3  and  N_4 
REMARK       I    between atoms: N_4  and  C_5 
REMARK    3  A    between atoms: C_5  and  C_6 
REMARK    4  A    between atoms: C_11  and  C_12 
REMARK    5  A    between atoms: C_15  and  O_16 
REMARK    6  A    between atoms: C_21  and  C_22 
ROOT
HETATM    1  C   UNL     1      43.017 -18.356   3.163  1.00  0.00     0.170 A 
HETATM    2  N   UNL     1      43.678 -17.890   4.252  1.00  0.00    -0.163 NA
HETATM    3  N   UNL     1      43.107 -16.699   4.491  1.00  0.00    -0.238 N 
HETATM    4  C   UNL     1      42.191 -16.326   3.543  1.00  0.00     0.145 A 
HETATM    5  N   UNL     1      41.581 -15.114   3.598  1.00  0.00    -0.365 N 
HETATM    6  C   UNL     1      42.120 -14.066   4.460  1.00  0.00     0.118 C 
HETATM    7  C   UNL     1      42.557 -14.685   5.793  1.00  0.00     0.066 C 
HETATM    8  C   UNL     1      43.564 -15.826   5.561  1.00  0.00     0.221 C 
HETATM    9  C   UNL     1      42.089 -17.393   2.680  1.00  0.00     0.115 A 
HETATM   10 CL   UNL     1      41.071 -17.507   1.327  1.00  0.00    -0.077 Cl
HETATM   11  H   UNL     1      41.056 -14.783   2.787  1.00  0.00     0.162 HD
ENDROOT
BRANCH   6  12
HETATM   12  C   UNL     1      41.085 -12.981   4.687  1.00  0.00    -0.035 A 
HETATM   13  C   UNL     1      41.228 -12.033   5.710  1.00  0.00     0.012 A 
HETATM   14  C   UNL     1      40.284 -11.016   5.875  1.00  0.00     0.037 A 
HETATM   15  C   UNL     1      39.188 -10.914   5.017  1.00  0.00     0.068 A 
HETATM   16  C   UNL     1      39.036 -11.852   3.996  1.00  0.00     0.037 A 
HETATM   17  C   UNL     1      39.978 -12.876   3.832  1.00  0.00     0.012 A 
BRANCH  15  18
HETATM   18  O   UNL     1      38.350  -9.867   5.281  1.00  0.00    -0.356 OA
HETATM   19  C   UNL     1      38.877  -8.804   6.065  1.00  0.00     0.210 C 
ENDBRANCH  15  18
ENDBRANCH   6  12
BRANCH   8  20
HETATM   20  C   UNL     1      43.788 -16.579   6.855  1.00  0.00     0.409 C 
HETATM   21  F   UNL     1      43.821 -15.763   7.931  1.00  0.00    -0.169 F 
HETATM   22  F   UNL     1      42.864 -17.539   7.080  1.00  0.00    -0.169 F 
HETATM   23  F   UNL     1      44.988 -17.217   6.810  1.00  0.00    -0.169 F 
ENDBRANCH   8  20
BRANCH   1  24
HETATM   24  C   UNL     1      43.305 -19.697   2.627  1.00  0.00     0.273 C 
HETATM   25  N   UNL     1      44.336 -20.330   3.289  1.00  0.00    -0.356 N 
HETATM   26  H   UNL     1      44.784 -19.792   4.028  1.00  0.00     0.162 HD
HETATM   27  O   UNL     1      42.692 -20.209   1.696  1.00  0.00    -0.266 OA
BRANCH  25  28
HETATM   28  C   UNL     1      44.793 -21.659   2.960  1.00  0.00     0.122 C 
BRANCH  28  29
HETATM   29  C   UNL     1      44.706 -22.602   4.155  1.00  0.00     0.015 C 
HETATM   30  C   UNL     1      44.689 -21.836   5.467  1.00  0.00     0.006 C 
ENDBRANCH  28  29
ENDBRANCH  25  28
ENDBRANCH   1  24
TORSDOF 6
ENDMDL
MODEL 10
REMARK VINA RESULT:      -7.3      4.986      7.580
REMARK  6 active torsions:
REMARK  status: ('A' for Active; 'I' for Inactive)
REMARK    1  A    between atoms: C_2  and  C_3 
REMARK    2  A    between atoms: C_3  and  N_4 
REMARK       I    between atoms: N_4  and  C_5 
REMARK    3  A    between atoms: C_5  and  C_6 
REMARK    4  A    between atoms: C_11  and  C_12 
REMARK    5  A    between atoms: C_15  and  O_16 
REMARK    6  A    between atoms: C_21  and  C_22 
ROOT
HETATM    1  C   UNL     1      43.089 -17.057   3.392  1.00  0.00     0.170 A 
HETATM    2  N   UNL     1      43.065 -15.700   3.372  1.00  0.00    -0.163 NA
HETATM    3  N   UNL     1      42.428 -15.407   2.227  1.00  0.00    -0.238 N 
HETATM    4  C   UNL     1      42.144 -16.503   1.456  1.00  0.00     0.145 A 
HETATM    5  N   UNL     1      41.572 -16.368   0.232  1.00  0.00    -0.365 N 
HETATM    6  C   UNL     1      41.552 -15.064  -0.423  1.00  0.00     0.118 C 
HETATM    7  C   UNL     1      41.232 -13.982   0.616  1.00  0.00     0.066 C 
HETATM    8  C   UNL     1      42.233 -14.035   1.784  1.00  0.00     0.221 C 
HETATM    9  C   UNL     1      42.536 -17.594   2.197  1.00  0.00     0.115 A 
HETATM   10 CL   UNL     1      42.389 -19.225   1.753  1.00  0.00    -0.077 Cl
HETATM   11  H   UNL     1      41.548 -17.171  -0.398  1.00  0.00     0.162 HD
ENDROOT
BRANCH   6  12
HETATM   12  C   UNL     1      40.531 -15.048  -1.544  1.00  0.00    -0.035 A 
HETATM   13  C   UNL     1      40.655 -15.884  -2.663  1.00  0.00     0.012 A 
HETATM   14  C   UNL     1      39.680 -15.883  -3.664  1.00  0.00     0.037 A 
HETATM   15  C   UNL     1      38.557 -15.062  -3.564  1.00  0.00     0.068 A 
HETATM   16  C   UNL     1      38.423 -14.227  -2.456  1.00  0.00     0.037 A 
HETATM   17  C   UNL     1      39.401 -14.221  -1.454  1.00  0.00     0.012 A 
BRANCH  15  18
HETATM   18  O   UNL     1      37.676 -15.169  -4.604  1.00  0.00    -0.356 OA
HETATM   19  C   UNL     1      36.459 -14.442  -4.495  1.00  0.00     0.210 C 
ENDBRANCH  15  18
ENDBRANCH   6  12
BRANCH   8  20
HETATM   20  C   UNL     1      41.755 -13.136   2.905  1.00  0.00     0.409 C 
HETATM   21  F   UNL     1      40.817 -13.726   3.678  1.00  0.00    -0.169 F 
HETATM   22  F   UNL     1      42.754 -12.707   3.707  1.00  0.00    -0.169 F 
HETATM   23  F   UNL     1      41.186 -12.018   2.383  1.00  0.00    -0.169 F 
ENDBRANCH   8  20
BRANCH   1  24
HETATM   24  C   UNL     1      43.644 -17.780   4.549  1.00  0.00     0.273 C 
HETATM   25  N   UNL     1      44.374 -18.893   4.186  1.00  0.00    -0.356 N 
HETATM   26  H   UNL     1      44.410 -19.093   3.190  1.00  0.00     0.162 HD
HETATM   27  O   UNL     1      43.486 -17.432   5.714  1.00  0.00    -0.266 OA
BRANCH  25  28
HETATM   28  C   UNL     1      45.032 -19.754   5.139  1.00  0.00     0.122 C 
BRANCH  28  29
HETATM   29  C   UNL     1      44.789 -21.229   4.833  1.00  0.00     0.015 C 
HETATM   30  C   UNL     1      44.580 -21.460   3.346  1.00  0.00     0.006 C 
ENDBRANCH  28  29
ENDBRANCH  25  28
ENDBRANCH   1  24
TORSDOF 6
ENDMDL
