MODEL 1
REMARK VINA RESULT:      -9.1      0.000      0.000
REMARK  4 active torsions:
REMARK  status: ('A' for Active; 'I' for Inactive)
REMARK    1  A    between atoms: N_4  and  C_5 
REMARK    2  A    between atoms: C_14  and  C_15 
REMARK       I    between atoms: C_15  and  N_16 
REMARK    3  A    between atoms: N_16  and  N_17 
REMARK       I    between atoms: N_17  and  C_18 
REMARK       I    between atoms: C_18  and  N_19 
REMARK    4  A    between atoms: N_19  and  C_20 
ROOT
HETATM    1  C   UNL     1      44.212 -12.914   8.135  1.00  0.00     0.277 C 
HETATM    2  N   UNL     1      43.428 -11.821   8.449  1.00  0.00    -0.261 N 
HETATM    3  O   UNL     1      45.192 -13.211   8.819  1.00  0.00    -0.265 OA
HETATM    4  H   UNL     1      42.684 -11.498   7.829  1.00  0.00     0.190 HD
ENDROOT
BRANCH   1   5
HETATM    5  C   UNL     1      43.792 -13.664   6.960  1.00  0.00     0.077 A 
HETATM    6  S   UNL     1      44.437 -15.255   6.628  1.00  0.00    -0.064 SA
HETATM    7  C   UNL     1      43.488 -15.388   5.268  1.00  0.00     0.113 A 
HETATM    8  N   UNL     1      43.202 -16.280   4.264  1.00  0.00    -0.226 N 
HETATM    9  C   UNL     1      42.737 -14.302   5.061  1.00  0.00     0.027 A 
HETATM   10  N   UNL     1      42.278 -15.712   3.400  1.00  0.00    -0.171 NA
HETATM   11  C   UNL     1      42.001 -14.495   3.908  1.00  0.00     0.064 A 
HETATM   12  C   UNL     1      41.041 -13.591   3.235  1.00  0.00     0.073 C 
HETATM   13  C   UNL     1      42.856 -13.280   5.998  1.00  0.00     0.041 A 
BRANCH   8  14
HETATM   14  C   UNL     1      43.680 -17.603   4.028  1.00  0.00     0.059 A 
HETATM   15  C   UNL     1      43.571 -18.145   2.735  1.00  0.00     0.031 A 
HETATM   16  C   UNL     1      44.012 -19.443   2.468  1.00  0.00     0.002 A 
HETATM   17  C   UNL     1      44.569 -20.214   3.485  1.00  0.00     0.000 A 
HETATM   18  C   UNL     1      44.686 -19.686   4.768  1.00  0.00     0.002 A 
HETATM   19  C   UNL     1      44.244 -18.387   5.042  1.00  0.00     0.031 A 
ENDBRANCH   8  14
ENDBRANCH   1   5
BRANCH   2  20
HETATM   20  N   UNL     1      43.842 -10.913   9.439  1.00  0.00    -0.249 N 
HETATM   21  C   UNL     1      42.925 -10.681  10.456  1.00  0.00     0.339 C 
HETATM   22  N   UNL     1      43.348  -9.699  11.322  1.00  0.00    -0.308 N 
HETATM   23  O   UNL     1      41.890 -11.338  10.529  1.00  0.00    -0.245 OA
HETATM   24  H   UNL     1      44.256  -9.301  11.128  1.00  0.00     0.170 HD
HETATM   25  H   UNL     1      44.440 -10.163   9.105  1.00  0.00     0.192 HD
BRANCH  22  26
HETATM   26  C   UNL     1      42.692  -9.242  12.484  1.00  0.00     0.038 A 
HETATM   27  C   UNL     1      41.486  -8.537  12.473  1.00  0.00     0.053 A 
HETATM   28  C   UNL     1      40.897  -8.137  13.675  1.00  0.00     0.036 A 
HETATM   29 CL   UNL     1      39.404  -7.277  13.651  1.00  0.00    -0.084 Cl
HETATM   30  C   UNL     1      41.501  -8.427  14.895  1.00  0.00     0.024 A 
HETATM   31  C   UNL     1      42.705  -9.125  14.915  1.00  0.00     0.004 A 
HETATM   32  C   UNL     1      43.296  -9.531  13.715  1.00  0.00     0.029 A 
ENDBRANCH  22  26
ENDBRANCH   2  20
TORSDOF 4
ENDMDL
MODEL 2
REMARK VINA RESULT:      -9.0      4.246     10.726
REMARK  4 active torsions:
REMARK  status: ('A' for Active; 'I' for Inactive)
REMARK    1  A    between atoms: N_4  and  C_5 
REMARK    2  A    between atoms: C_14  and  C_15 
REMARK       I    between atoms: C_15  and  N_16 
REMARK    3  A    between atoms: N_16  and  N_17 
REMARK       I    between atoms: N_17  and  C_18 
REMARK       I    between atoms: C_18  and  N_19 
REMARK    4  A    between atoms: N_19  and  C_20 
ROOT
HETATM    1  C   UNL     1      44.670 -12.768   8.551  1.00  0.00     0.277 C 
HETATM    2  N   UNL     1      44.136 -13.553   7.549  1.00  0.00    -0.261 N 
HETATM    3  O   UNL     1      45.848 -12.884   8.890  1.00  0.00    -0.265 OA
HETATM    4  H   UNL     1      43.138 -13.547   7.336  1.00  0.00     0.190 HD
ENDROOT
BRANCH   1   5
HETATM    5  C   UNL     1      43.747 -11.817   9.155  1.00  0.00     0.077 A 
HETATM    6  S   UNL     1      43.755 -11.524  10.878  1.00  0.00    -0.064 SA
HETATM    7  C   UNL     1      42.548 -10.389  10.721  1.00  0.00     0.113 A 
HETATM    8  N   UNL     1      41.814  -9.516  11.485  1.00  0.00    -0.226 N 
HETATM    9  C   UNL     1      42.149 -10.241   9.453  1.00  0.00     0.027 A 
HETATM   10  N   UNL     1      40.918  -8.841  10.670  1.00  0.00    -0.171 NA
HETATM   11  C   UNL     1      41.139  -9.298   9.422  1.00  0.00     0.064 A 
HETATM   12  C   UNL     1      40.351  -8.794   8.276  1.00  0.00     0.073 C 
HETATM   13  C   UNL     1      42.801 -11.022   8.505  1.00  0.00     0.041 A 
BRANCH   8  14
HETATM   14  C   UNL     1      41.864  -9.230  12.881  1.00  0.00     0.059 A 
HETATM   15  C   UNL     1      41.743  -7.895  13.306  1.00  0.00     0.031 A 
HETATM   16  C   UNL     1      41.803  -7.572  14.664  1.00  0.00     0.002 A 
HETATM   17  C   UNL     1      41.980  -8.575  15.612  1.00  0.00     0.000 A 
HETATM   18  C   UNL     1      42.097  -9.901  15.204  1.00  0.00     0.002 A 
HETATM   19  C   UNL     1      42.039 -10.230  13.845  1.00  0.00     0.031 A 
ENDBRANCH   8  14
ENDBRANCH   1   5
BRANCH   2  20
HETATM   20  N   UNL     1      44.870 -14.633   7.027  1.00  0.00    -0.249 N 
HETATM   21  C   UNL     1      44.206 -15.852   7.008  1.00  0.00     0.339 C 
HETATM   22  N   UNL     1      45.022 -16.880   6.595  1.00  0.00    -0.308 N 
HETATM   23  O   UNL     1      43.017 -15.923   7.306  1.00  0.00    -0.245 OA
HETATM   24  H   UNL     1      45.964 -16.621   6.342  1.00  0.00     0.170 HD
HETATM   25  H   UNL     1      45.869 -14.594   7.208  1.00  0.00     0.192 HD
BRANCH  22  26
HETATM   26  C   UNL     1      44.667 -18.234   6.417  1.00  0.00     0.038 A 
HETATM   27  C   UNL     1      44.848 -18.938   5.224  1.00  0.00     0.053 A 
HETATM   28  C   UNL     1      44.483 -20.284   5.142  1.00  0.00     0.036 A 
HETATM   29 CL   UNL     1      44.721 -21.146   3.669  1.00  0.00    -0.084 Cl
HETATM   30  C   UNL     1      43.930 -20.940   6.239  1.00  0.00     0.024 A 
HETATM   31  C   UNL     1      43.741 -20.244   7.429  1.00  0.00     0.004 A 
HETATM   32  C   UNL     1      44.109 -18.898   7.517  1.00  0.00     0.029 A 
ENDBRANCH  22  26
ENDBRANCH   2  20
TORSDOF 4
ENDMDL
MODEL 3
REMARK VINA RESULT:      -8.8      7.410     11.609
REMARK  4 active torsions:
REMARK  status: ('A' for Active; 'I' for Inactive)
REMARK    1  A    between atoms: N_4  and  C_5 
REMARK    2  A    between atoms: C_14  and  C_15 
REMARK       I    between atoms: C_15  and  N_16 
REMARK    3  A    between atoms: N_16  and  N_17 
REMARK       I    between atoms: N_17  and  C_18 
REMARK       I    between atoms: C_18  and  N_19 
REMARK    4  A    between atoms: N_19  and  C_20 
ROOT
HETATM    1  C   UNL     1      41.438 -14.600  -0.258  1.00  0.00     0.277 C 
HETATM    2  N   UNL     1      40.511 -15.266  -1.035  1.00  0.00    -0.261 N 
HETATM    3  O   UNL     1      41.776 -13.446  -0.522  1.00  0.00    -0.265 OA
HETATM    4  H   UNL     1      40.306 -16.257  -0.896  1.00  0.00     0.190 HD
ENDROOT
BRANCH   1   5
HETATM    5  C   UNL     1      41.965 -15.357   0.868  1.00  0.00     0.077 A 
HETATM    6  S   UNL     1      42.298 -17.067   0.727  1.00  0.00    -0.064 SA
HETATM    7  C   UNL     1      42.855 -17.119   2.295  1.00  0.00     0.113 A 
HETATM    8  N   UNL     1      43.391 -18.005   3.196  1.00  0.00    -0.226 N 
HETATM    9  C   UNL     1      42.787 -15.928   2.900  1.00  0.00     0.027 A 
HETATM   10  N   UNL     1      43.626 -17.348   4.395  1.00  0.00    -0.171 NA
HETATM   11  C   UNL     1      43.251 -16.070   4.193  1.00  0.00     0.064 A 
HETATM   12  C   UNL     1      43.360 -15.066   5.275  1.00  0.00     0.073 C 
HETATM   13  C   UNL     1      42.296 -14.874   2.135  1.00  0.00     0.041 A 
BRANCH   8  14
HETATM   14  C   UNL     1      43.723 -19.385   3.062  1.00  0.00     0.059 A 
HETATM   15  C   UNL     1      44.437 -20.017   4.095  1.00  0.00     0.031 A 
HETATM   16  C   UNL     1      44.795 -21.363   3.994  1.00  0.00     0.002 A 
HETATM   17  C   UNL     1      44.442 -22.095   2.864  1.00  0.00     0.000 A 
HETATM   18  C   UNL     1      43.732 -21.482   1.836  1.00  0.00     0.002 A 
HETATM   19  C   UNL     1      43.372 -20.133   1.931  1.00  0.00     0.031 A 
ENDBRANCH   8  14
ENDBRANCH   1   5
BRANCH   2  20
HETATM   20  N   UNL     1      40.078 -14.713  -2.253  1.00  0.00    -0.249 N 
HETATM   21  C   UNL     1      38.751 -14.306  -2.285  1.00  0.00     0.339 C 
HETATM   22  N   UNL     1      38.368 -13.885  -3.537  1.00  0.00    -0.308 N 
HETATM   23  O   UNL     1      38.067 -14.317  -1.265  1.00  0.00    -0.245 OA
HETATM   24  H   UNL     1      39.086 -13.902  -4.247  1.00  0.00     0.170 HD
HETATM   25  H   UNL     1      40.514 -15.113  -3.080  1.00  0.00     0.192 HD
BRANCH  22  26
HETATM   26  C   UNL     1      37.113 -13.368  -3.919  1.00  0.00     0.038 A 
HETATM   27  C   UNL     1      36.688 -12.065  -3.644  1.00  0.00     0.053 A 
HETATM   28  C   UNL     1      35.432 -11.631  -4.075  1.00  0.00     0.036 A 
HETATM   29 CL   UNL     1      34.923 -10.019  -3.740  1.00  0.00    -0.084 Cl
HETATM   30  C   UNL     1      34.585 -12.486  -4.775  1.00  0.00     0.024 A 
HETATM   31  C   UNL     1      34.997 -13.787  -5.048  1.00  0.00     0.004 A 
HETATM   32  C   UNL     1      36.255 -14.225  -4.623  1.00  0.00     0.029 A 
ENDBRANCH  22  26
ENDBRANCH   2  20
TORSDOF 4
ENDMDL
MODEL 4
REMARK VINA RESULT:      -8.8      4.421     10.760
REMARK  4 active torsions:
REMARK  status: ('A' for Active; 'I' for Inactive)
REMARK    1  A    between atoms: N_4  and  C_5 
REMARK    2  A    between atoms: C_14  and  C_15 
REMARK       I    between atoms: C_15  and  N_16 
REMARK    3  A    between atoms: N_16  and  N_17 
REMARK       I    between atoms: N_17  and  C_18 
REMARK       I    between atoms: C_18  and  N_19 
REMARK    4  A    between atoms: N_19  and  C_20 
ROOT
HETATM    1  C   UNL     1      42.754 -13.668   3.713  1.00  0.00     0.277 C 
HETATM    2  N   UNL     1      42.679 -15.021   3.980  1.00  0.00    -0.261 N 
HETATM    3  O   UNL     1      43.191 -13.256   2.638  1.00  0.00    -0.265 OA
HETATM    4  H   UNL     1      42.426 -15.373   4.904  1.00  0.00     0.190 HD
ENDROOT
BRANCH   1   5
HETATM    5  C   UNL     1      42.283 -12.797   4.780  1.00  0.00     0.077 A 
HETATM    6  S   UNL     1      43.026 -12.827   6.362  1.00  0.00    -0.064 SA
HETATM    7  C   UNL     1      42.013 -11.619   6.894  1.00  0.00     0.113 A 
HETATM    8  N   UNL     1      41.768 -10.864   8.014  1.00  0.00    -0.226 N 
HETATM    9  C   UNL     1      41.156 -11.219   5.949  1.00  0.00     0.027 A 
HETATM   10  N   UNL     1      40.711 -10.002   7.760  1.00  0.00    -0.171 NA
HETATM   11  C   UNL     1      40.348 -10.233   6.483  1.00  0.00     0.064 A 
HETATM   12  C   UNL     1      39.233  -9.484   5.863  1.00  0.00     0.073 C 
HETATM   13  C   UNL     1      41.263 -11.846   4.712  1.00  0.00     0.041 A 
BRANCH   8  14
HETATM   14  C   UNL     1      42.416 -10.843   9.284  1.00  0.00     0.059 A 
HETATM   15  C   UNL     1      41.629 -10.760  10.447  1.00  0.00     0.031 A 
HETATM   16  C   UNL     1      42.227 -10.720  11.709  1.00  0.00     0.002 A 
HETATM   17  C   UNL     1      43.613 -10.768  11.827  1.00  0.00     0.000 A 
HETATM   18  C   UNL     1      44.402 -10.855  10.683  1.00  0.00     0.002 A 
HETATM   19  C   UNL     1      43.809 -10.893   9.416  1.00  0.00     0.031 A 
ENDBRANCH   8  14
ENDBRANCH   1   5
BRANCH   2  20
HETATM   20  N   UNL     1      43.278 -15.949   3.111  1.00  0.00    -0.249 N 
HETATM   21  C   UNL     1      43.269 -17.268   3.546  1.00  0.00     0.339 C 
HETATM   22  N   UNL     1      43.972 -18.097   2.703  1.00  0.00    -0.308 N 
HETATM   23  O   UNL     1      42.654 -17.588   4.559  1.00  0.00    -0.245 OA
HETATM   24  H   UNL     1      44.373 -17.660   1.887  1.00  0.00     0.170 HD
HETATM   25  H   UNL     1      44.068 -15.588   2.582  1.00  0.00     0.192 HD
BRANCH  22  26
HETATM   26  C   UNL     1      44.131 -19.494   2.816  1.00  0.00     0.038 A 
HETATM   27  C   UNL     1      44.620 -20.136   3.957  1.00  0.00     0.053 A 
HETATM   28  C   UNL     1      44.729 -21.528   3.986  1.00  0.00     0.036 A 
HETATM   29 CL   UNL     1      45.323 -22.310   5.402  1.00  0.00    -0.084 Cl
HETATM   30  C   UNL     1      44.359 -22.295   2.884  1.00  0.00     0.024 A 
HETATM   31  C   UNL     1      43.876 -21.664   1.741  1.00  0.00     0.004 A 
HETATM   32  C   UNL     1      43.762 -20.271   1.709  1.00  0.00     0.029 A 
ENDBRANCH  22  26
ENDBRANCH   2  20
TORSDOF 4
ENDMDL
MODEL 5
REMARK VINA RESULT:      -8.8      3.011      3.760
REMARK  4 active torsions:
REMARK  status: ('A' for Active; 'I' for Inactive)
REMARK    1  A    between atoms: N_4  and  C_5 
REMARK    2  A    between atoms: C_14  and  C_15 
REMARK       I    between atoms: C_15  and  N_16 
REMARK    3  A    between atoms: N_16  and  N_17 
REMARK       I    between atoms: N_17  and  C_18 
REMARK       I    between atoms: C_18  and  N_19 
REMARK    4  A    between atoms: N_19  and  C_20 
ROOT
HETATM    1  C   UNL     1      39.287 -12.949   5.660  1.00  0.00     0.277 C 
HETATM    2  N   UNL     1      39.718 -13.228   6.942  1.00  0.00    -0.261 N 
HETATM    3  O   UNL     1      38.457 -12.065   5.446  1.00  0.00    -0.265 OA
HETATM    4  H   UNL     1      40.317 -14.029   7.145  1.00  0.00     0.190 HD
ENDROOT
BRANCH   1   5
HETATM    5  C   UNL     1      39.883 -13.767   4.612  1.00  0.00     0.077 A 
HETATM    6  S   UNL     1      40.955 -15.091   5.002  1.00  0.00    -0.064 SA
HETATM    7  C   UNL     1      41.121 -15.471   3.391  1.00  0.00     0.113 A 
HETATM    8  N   UNL     1      41.745 -16.387   2.581  1.00  0.00    -0.226 N 
HETATM    9  C   UNL     1      40.425 -14.649   2.598  1.00  0.00     0.027 A 
HETATM   10  N   UNL     1      41.451 -16.099   1.257  1.00  0.00    -0.171 NA
HETATM   11  C   UNL     1      40.635 -15.027   1.286  1.00  0.00     0.064 A 
HETATM   12  C   UNL     1      40.115 -14.433   0.035  1.00  0.00     0.073 C 
HETATM   13  C   UNL     1      39.685 -13.657   3.235  1.00  0.00     0.041 A 
BRANCH   8  14
HETATM   14  C   UNL     1      42.569 -17.506   2.902  1.00  0.00     0.059 A 
HETATM   15  C   UNL     1      42.885 -18.430   1.890  1.00  0.00     0.031 A 
HETATM   16  C   UNL     1      43.675 -19.548   2.168  1.00  0.00     0.002 A 
HETATM   17  C   UNL     1      44.161 -19.756   3.456  1.00  0.00     0.000 A 
HETATM   18  C   UNL     1      43.859 -18.845   4.465  1.00  0.00     0.002 A 
HETATM   19  C   UNL     1      43.066 -17.725   4.193  1.00  0.00     0.031 A 
ENDBRANCH   8  14
ENDBRANCH   1   5
BRANCH   2  20
HETATM   20  N   UNL     1      39.078 -12.642   8.048  1.00  0.00    -0.249 N 
HETATM   21  C   UNL     1      39.665 -11.481   8.532  1.00  0.00     0.339 C 
HETATM   22  N   UNL     1      39.056 -11.031   9.680  1.00  0.00    -0.308 N 
HETATM   23  O   UNL     1      40.599 -10.954   7.933  1.00  0.00    -0.245 OA
HETATM   24  H   UNL     1      38.266 -11.572  10.002  1.00  0.00     0.170 HD
HETATM   25  H   UNL     1      38.642 -13.302   8.686  1.00  0.00     0.192 HD
BRANCH  22  26
HETATM   26  C   UNL     1      39.364  -9.865  10.411  1.00  0.00     0.038 A 
HETATM   27  C   UNL     1      40.627  -9.585  10.940  1.00  0.00     0.053 A 
HETATM   28  C   UNL     1      40.847  -8.395  11.638  1.00  0.00     0.036 A 
HETATM   29 CL   UNL     1      42.411  -8.055  12.276  1.00  0.00    -0.084 Cl
HETATM   30  C   UNL     1      39.817  -7.477  11.822  1.00  0.00     0.024 A 
HETATM   31  C   UNL     1      38.554  -7.750  11.304  1.00  0.00     0.004 A 
HETATM   32  C   UNL     1      38.330  -8.937  10.601  1.00  0.00     0.029 A 
ENDBRANCH  22  26
ENDBRANCH   2  20
TORSDOF 4
ENDMDL
MODEL 6
REMARK VINA RESULT:      -8.6      7.070     10.473
REMARK  4 active torsions:
REMARK  status: ('A' for Active; 'I' for Inactive)
REMARK    1  A    between atoms: N_4  and  C_5 
REMARK    2  A    between atoms: C_14  and  C_15 
REMARK       I    between atoms: C_15  and  N_16 
REMARK    3  A    between atoms: N_16  and  N_17 
REMARK       I    between atoms: N_17  and  C_18 
REMARK       I    between atoms: C_18  and  N_19 
REMARK    4  A    between atoms: N_19  and  C_20 
ROOT
HETATM    1  C   UNL     1      42.539 -14.453   1.951  1.00  0.00     0.277 C 
HETATM    2  N   UNL     1      41.929 -14.930   0.808  1.00  0.00    -0.261 N 
HETATM    3  O   UNL     1      42.743 -13.249   2.108  1.00  0.00    -0.265 OA
HETATM    4  H   UNL     1      41.857 -15.930   0.615  1.00  0.00     0.190 HD
ENDROOT
BRANCH   1   5
HETATM    5  C   UNL     1      42.910 -15.467   2.928  1.00  0.00     0.077 A 
HETATM    6  S   UNL     1      43.184 -17.125   2.446  1.00  0.00    -0.064 SA
HETATM    7  C   UNL     1      43.567 -17.548   4.009  1.00  0.00     0.113 A 
HETATM    8  N   UNL     1      43.965 -18.640   4.740  1.00  0.00    -0.226 N 
HETATM    9  C   UNL     1      43.484 -16.513   4.852  1.00  0.00     0.027 A 
HETATM   10  N   UNL     1      44.098 -18.272   6.071  1.00  0.00    -0.171 NA
HETATM   11  C   UNL     1      43.800 -16.959   6.121  1.00  0.00     0.064 A 
HETATM   12  C   UNL     1      43.835 -16.221   7.403  1.00  0.00     0.073 C 
HETATM   13  C   UNL     1      43.123 -15.290   4.296  1.00  0.00     0.041 A 
BRANCH   8  14
HETATM   14  C   UNL     1      44.251 -19.977   4.337  1.00  0.00     0.059 A 
HETATM   15  C   UNL     1      44.159 -20.311   2.974  1.00  0.00     0.031 A 
HETATM   16  C   UNL     1      44.415 -21.615   2.542  1.00  0.00     0.002 A 
HETATM   17  C   UNL     1      44.769 -22.598   3.462  1.00  0.00     0.000 A 
HETATM   18  C   UNL     1      44.868 -22.278   4.813  1.00  0.00     0.002 A 
HETATM   19  C   UNL     1      44.611 -20.974   5.252  1.00  0.00     0.031 A 
ENDBRANCH   8  14
ENDBRANCH   1   5
BRANCH   2  20
HETATM   20  N   UNL     1      41.702 -14.075  -0.284  1.00  0.00    -0.249 N 
HETATM   21  C   UNL     1      40.374 -13.931  -0.663  1.00  0.00     0.339 C 
HETATM   22  N   UNL     1      40.240 -13.175  -1.805  1.00  0.00    -0.308 N 
HETATM   23  O   UNL     1      39.473 -14.422   0.011  1.00  0.00    -0.245 OA
HETATM   24  H   UNL     1      41.096 -12.811  -2.197  1.00  0.00     0.170 HD
HETATM   25  H   UNL     1      42.439 -14.072  -0.983  1.00  0.00     0.192 HD
BRANCH  22  26
HETATM   26  C   UNL     1      39.040 -12.795  -2.442  1.00  0.00     0.038 A 
HETATM   27  C   UNL     1      38.231 -13.670  -3.171  1.00  0.00     0.053 A 
HETATM   28  C   UNL     1      37.049 -13.210  -3.756  1.00  0.00     0.036 A 
HETATM   29 CL   UNL     1      36.053 -14.300  -4.644  1.00  0.00    -0.084 Cl
HETATM   30  C   UNL     1      36.663 -11.878  -3.629  1.00  0.00     0.024 A 
HETATM   31  C   UNL     1      37.466 -10.997  -2.909  1.00  0.00     0.004 A 
HETATM   32  C   UNL     1      38.648 -11.455  -2.319  1.00  0.00     0.029 A 
ENDBRANCH  22  26
ENDBRANCH   2  20
TORSDOF 4
ENDMDL
MODEL 7
REMARK VINA RESULT:      -8.6      6.538      8.909
REMARK  4 active torsions:
REMARK  status: ('A' for Active; 'I' for Inactive)
REMARK    1  A    between atoms: N_4  and  C_5 
REMARK    2  A    between atoms: C_14  and  C_15 
REMARK       I    between atoms: C_15  and  N_16 
REMARK    3  A    between atoms: N_16  and  N_17 
REMARK       I    between atoms: N_17  and  C_18 
REMARK       I    between atoms: C_18  and  N_19 
REMARK    4  A    between atoms: N_19  and  C_20 
ROOT
HETATM    1  C   UNL     1      42.867 -14.109   4.727  1.00  0.00     0.277 C 
HETATM    2  N   UNL     1      42.289 -13.909   3.488  1.00  0.00    -0.261 N 
HETATM    3  O   UNL     1      43.086 -13.164   5.485  1.00  0.00    -0.265 OA
HETATM    4  H   UNL     1      42.206 -14.665   2.807  1.00  0.00     0.190 HD
ENDROOT
BRANCH   1   5
HETATM    5  C   UNL     1      43.183 -15.493   5.050  1.00  0.00     0.077 A 
HETATM    6  S   UNL     1      43.272 -16.712   3.800  1.00  0.00    -0.064 SA
HETATM    7  C   UNL     1      43.685 -17.872   4.920  1.00  0.00     0.113 A 
HETATM    8  N   UNL     1      44.010 -19.204   4.988  1.00  0.00    -0.226 N 
HETATM    9  C   UNL     1      43.744 -17.383   6.163  1.00  0.00     0.027 A 
HETATM   10  N   UNL     1      44.241 -19.548   6.312  1.00  0.00    -0.171 NA
HETATM   11  C   UNL     1      44.075 -18.415   7.021  1.00  0.00     0.064 A 
HETATM   12  C   UNL     1      44.242 -18.406   8.491  1.00  0.00     0.073 C 
HETATM   13  C   UNL     1      43.477 -16.025   6.306  1.00  0.00     0.041 A 
BRANCH   8  14
HETATM   14  C   UNL     1      44.145 -20.185   3.963  1.00  0.00     0.059 A 
HETATM   15  C   UNL     1      43.730 -19.866   2.658  1.00  0.00     0.031 A 
HETATM   16  C   UNL     1      43.830 -20.806   1.629  1.00  0.00     0.002 A 
HETATM   17  C   UNL     1      44.349 -22.071   1.888  1.00  0.00     0.000 A 
HETATM   18  C   UNL     1      44.768 -22.397   3.175  1.00  0.00     0.002 A 
HETATM   19  C   UNL     1      44.668 -21.461   4.210  1.00  0.00     0.031 A 
ENDBRANCH   8  14
ENDBRANCH   1   5
BRANCH   2  20
HETATM   20  N   UNL     1      42.117 -12.607   2.988  1.00  0.00    -0.249 N 
HETATM   21  C   UNL     1      42.109 -12.495   1.604  1.00  0.00     0.339 C 
HETATM   22  N   UNL     1      42.054 -11.185   1.190  1.00  0.00    -0.308 N 
HETATM   23  O   UNL     1      42.119 -13.498   0.894  1.00  0.00    -0.245 OA
HETATM   24  H   UNL     1      42.003 -10.492   1.922  1.00  0.00     0.170 HD
HETATM   25  H   UNL     1      42.527 -11.874   3.560  1.00  0.00     0.192 HD
BRANCH  22  26
HETATM   26  C   UNL     1      41.988 -10.710  -0.137  1.00  0.00     0.038 A 
HETATM   27  C   UNL     1      40.797 -10.546  -0.849  1.00  0.00     0.053 A 
HETATM   28  C   UNL     1      40.824 -10.053  -2.156  1.00  0.00     0.036 A 
HETATM   29 CL   UNL     1      39.349  -9.844  -3.022  1.00  0.00    -0.084 Cl
HETATM   30  C   UNL     1      42.030  -9.723  -2.768  1.00  0.00     0.024 A 
HETATM   31  C   UNL     1      43.222  -9.888  -2.068  1.00  0.00     0.004 A 
HETATM   32  C   UNL     1      43.200 -10.378  -0.759  1.00  0.00     0.029 A 
ENDBRANCH  22  26
ENDBRANCH   2  20
TORSDOF 4
ENDMDL
MODEL 8
REMARK VINA RESULT:      -8.5      5.008     10.934
REMARK  4 active torsions:
REMARK  status: ('A' for Active; 'I' for Inactive)
REMARK    1  A    between atoms: N_4  and  C_5 
REMARK    2  A    between atoms: C_14  and  C_15 
REMARK       I    between atoms: C_15  and  N_16 
REMARK    3  A    between atoms: N_16  and  N_17 
REMARK       I    between atoms: N_17  and  C_18 
REMARK       I    between atoms: C_18  and  N_19 
REMARK    4  A    between atoms: N_19  and  C_20 
ROOT
HETATM    1  C   UNL     1      42.172 -13.655   2.976  1.00  0.00     0.277 C 
HETATM    2  N   UNL     1      42.328 -14.920   3.509  1.00  0.00    -0.261 N 
HETATM    3  O   UNL     1      42.703 -13.345   1.910  1.00  0.00    -0.265 OA
HETATM    4  H   UNL     1      41.989 -15.156   4.442  1.00  0.00     0.190 HD
ENDROOT
BRANCH   1   5
HETATM    5  C   UNL     1      41.350 -12.746   3.762  1.00  0.00     0.077 A 
HETATM    6  S   UNL     1      41.675 -12.475   5.459  1.00  0.00    -0.064 SA
HETATM    7  C   UNL     1      40.423 -11.383   5.554  1.00  0.00     0.113 A 
HETATM    8  N   UNL     1      39.819 -10.547   6.461  1.00  0.00    -0.226 N 
HETATM    9  C   UNL     1      39.786 -11.233   4.388  1.00  0.00     0.027 A 
HETATM   10  N   UNL     1      38.763  -9.894   5.843  1.00  0.00    -0.171 NA
HETATM   11  C   UNL     1      38.759 -10.327   4.567  1.00  0.00     0.064 A 
HETATM   12  C   UNL     1      37.751  -9.836   3.601  1.00  0.00     0.073 C 
HETATM   13  C   UNL     1      40.272 -11.978   3.318  1.00  0.00     0.041 A 
BRANCH   8  14
HETATM   14  C   UNL     1      40.123 -10.277   7.827  1.00  0.00     0.059 A 
HETATM   15  C   UNL     1      39.686 -11.181   8.812  1.00  0.00     0.031 A 
HETATM   16  C   UNL     1      39.950 -10.943  10.163  1.00  0.00     0.002 A 
HETATM   17  C   UNL     1      40.655  -9.806  10.547  1.00  0.00     0.000 A 
HETATM   18  C   UNL     1      41.097  -8.907   9.580  1.00  0.00     0.002 A 
HETATM   19  C   UNL     1      40.834  -9.138   8.226  1.00  0.00     0.031 A 
ENDBRANCH   8  14
ENDBRANCH   1   5
BRANCH   2  20
HETATM   20  N   UNL     1      43.250 -15.819   2.944  1.00  0.00    -0.249 N 
HETATM   21  C   UNL     1      43.042 -17.157   3.248  1.00  0.00     0.339 C 
HETATM   22  N   UNL     1      44.045 -17.962   2.760  1.00  0.00    -0.308 N 
HETATM   23  O   UNL     1      42.037 -17.513   3.859  1.00  0.00    -0.245 OA
HETATM   24  H   UNL     1      44.771 -17.494   2.236  1.00  0.00     0.170 HD
HETATM   25  H   UNL     1      44.193 -15.454   2.846  1.00  0.00     0.192 HD
BRANCH  22  26
HETATM   26  C   UNL     1      44.133 -19.367   2.847  1.00  0.00     0.038 A 
HETATM   27  C   UNL     1      44.643 -20.051   3.953  1.00  0.00     0.053 A 
HETATM   28  C   UNL     1      44.677 -21.448   3.959  1.00  0.00     0.036 A 
HETATM   29 CL   UNL     1      45.298 -22.282   5.333  1.00  0.00    -0.084 Cl
HETATM   30  C   UNL     1      44.211 -22.176   2.868  1.00  0.00     0.024 A 
HETATM   31  C   UNL     1      43.706 -21.503   1.759  1.00  0.00     0.004 A 
HETATM   32  C   UNL     1      43.666 -20.105   1.750  1.00  0.00     0.029 A 
ENDBRANCH  22  26
ENDBRANCH   2  20
TORSDOF 4
ENDMDL
MODEL 9
REMARK VINA RESULT:      -8.4      9.075     12.377
REMARK  4 active torsions:
REMARK  status: ('A' for Active; 'I' for Inactive)
REMARK    1  A    between atoms: N_4  and  C_5 
REMARK    2  A    between atoms: C_14  and  C_15 
REMARK       I    between atoms: C_15  and  N_16 
REMARK    3  A    between atoms: N_16  and  N_17 
REMARK       I    between atoms: N_17  and  C_18 
REMARK       I    between atoms: C_18  and  N_19 
REMARK    4  A    between atoms: N_19  and  C_20 
ROOT
HETATM    1  C   UNL     1      41.131 -15.151  -1.448  1.00  0.00     0.277 C 
HETATM    2  N   UNL     1      41.041 -15.190  -0.071  1.00  0.00    -0.261 N 
HETATM    3  O   UNL     1      40.949 -16.163  -2.125  1.00  0.00    -0.265 OA
HETATM    4  H   UNL     1      41.298 -14.388   0.507  1.00  0.00     0.190 HD
ENDROOT
BRANCH   1   5
HETATM    5  C   UNL     1      41.448 -13.848  -2.015  1.00  0.00     0.077 A 
HETATM    6  S   UNL     1      40.793 -13.353  -3.558  1.00  0.00    -0.064 SA
HETATM    7  C   UNL     1      41.547 -11.874  -3.437  1.00  0.00     0.113 A 
HETATM    8  N   UNL     1      41.671 -10.693  -4.126  1.00  0.00    -0.226 N 
HETATM    9  C   UNL     1      42.261 -11.756  -2.313  1.00  0.00     0.027 A 
HETATM   10  N   UNL     1      42.509  -9.842  -3.422  1.00  0.00    -0.171 NA
HETATM   11  C   UNL     1      42.861 -10.511  -2.307  1.00  0.00     0.064 A 
HETATM   12  C   UNL     1      43.765  -9.901  -1.307  1.00  0.00     0.073 C 
HETATM   13  C   UNL     1      42.239 -12.847  -1.449  1.00  0.00     0.041 A 
BRANCH   8  14
HETATM   14  C   UNL     1      41.086 -10.264  -5.354  1.00  0.00     0.059 A 
HETATM   15  C   UNL     1      39.685 -10.231  -5.464  1.00  0.00     0.031 A 
HETATM   16  C   UNL     1      39.074  -9.832  -6.656  1.00  0.00     0.002 A 
HETATM   17  C   UNL     1      39.852  -9.459  -7.748  1.00  0.00     0.000 A 
HETATM   18  C   UNL     1      41.241  -9.484  -7.649  1.00  0.00     0.002 A 
HETATM   19  C   UNL     1      41.858  -9.884  -6.459  1.00  0.00     0.031 A 
ENDBRANCH   8  14
ENDBRANCH   1   5
BRANCH   2  20
HETATM   20  N   UNL     1      40.931 -16.421   0.598  1.00  0.00    -0.249 N 
HETATM   21  C   UNL     1      42.095 -16.877   1.204  1.00  0.00     0.339 C 
HETATM   22  N   UNL     1      41.943 -18.136   1.737  1.00  0.00    -0.308 N 
HETATM   23  O   UNL     1      43.096 -16.168   1.250  1.00  0.00    -0.245 OA
HETATM   24  H   UNL     1      41.025 -18.547   1.645  1.00  0.00     0.170 HD
HETATM   25  H   UNL     1      40.280 -17.077   0.177  1.00  0.00     0.192 HD
BRANCH  22  26
HETATM   26  C   UNL     1      42.900 -18.880   2.457  1.00  0.00     0.038 A 
HETATM   27  C   UNL     1      43.371 -18.529   3.725  1.00  0.00     0.053 A 
HETATM   28  C   UNL     1      44.309 -19.336   4.373  1.00  0.00     0.036 A 
HETATM   29 CL   UNL     1      44.874 -18.899   5.941  1.00  0.00    -0.084 Cl
HETATM   30  C   UNL     1      44.792 -20.493   3.768  1.00  0.00     0.024 A 
HETATM   31  C   UNL     1      44.334 -20.848   2.503  1.00  0.00     0.004 A 
HETATM   32  C   UNL     1      43.392 -20.045   1.852  1.00  0.00     0.029 A 
ENDBRANCH  22  26
ENDBRANCH   2  20
TORSDOF 4
ENDMDL
MODEL 10
REMARK VINA RESULT:      -8.3      6.965     10.340
REMARK  4 active torsions:
REMARK  status: ('A' for Active; 'I' for Inactive)
REMARK    1  A    between atoms: N_4  and  C_5 
REMARK    2  A    between atoms: C_14  and  C_15 
REMARK       I    between atoms: C_15  and  N_16 
REMARK    3  A    between atoms: N_16  and  N_17 
REMARK       I    between atoms: N_17  and  C_18 
REMARK       I    between atoms: C_18  and  N_19 
REMARK    4  A    between atoms: N_19  and  C_20 
ROOT
HETATM    1  C   UNL     1      40.871 -15.016   1.822  1.00  0.00     0.277 C 
HETATM    2  N   UNL     1      40.722 -15.485   0.532  1.00  0.00    -0.261 N 
HETATM    3  O   UNL     1      40.343 -13.963   2.181  1.00  0.00    -0.265 OA
HETATM    4  H   UNL     1      41.244 -16.293   0.190  1.00  0.00     0.190 HD
ENDROOT
BRANCH   1   5
HETATM    5  C   UNL     1      41.682 -15.850   2.698  1.00  0.00     0.077 A 
HETATM    6  S   UNL     1      42.030 -17.514   2.289  1.00  0.00    -0.064 SA
HETATM    7  C   UNL     1      42.953 -17.690   3.663  1.00  0.00     0.113 A 
HETATM    8  N   UNL     1      43.722 -18.629   4.304  1.00  0.00    -0.226 N 
HETATM    9  C   UNL     1      42.992 -16.573   4.397  1.00  0.00     0.027 A 
HETATM   10  N   UNL     1      44.219 -18.084   5.479  1.00  0.00    -0.171 NA
HETATM   11  C   UNL     1      43.761 -16.817   5.519  1.00  0.00     0.064 A 
HETATM   12  C   UNL     1      44.095 -15.923   6.650  1.00  0.00     0.073 C 
HETATM   13  C   UNL     1      42.294 -15.479   3.896  1.00  0.00     0.041 A 
BRANCH   8  14
HETATM   14  C   UNL     1      44.059 -19.965   3.940  1.00  0.00     0.059 A 
HETATM   15  C   UNL     1      44.492 -20.854   4.940  1.00  0.00     0.031 A 
HETATM   16  C   UNL     1      44.847 -22.167   4.620  1.00  0.00     0.002 A 
HETATM   17  C   UNL     1      44.770 -22.609   3.303  1.00  0.00     0.000 A 
HETATM   18  C   UNL     1      44.338 -21.740   2.305  1.00  0.00     0.002 A 
HETATM   19  C   UNL     1      43.983 -20.423   2.619  1.00  0.00     0.031 A 
ENDBRANCH   8  14
ENDBRANCH   1   5
BRANCH   2  20
HETATM   20  N   UNL     1      40.127 -14.677  -0.452  1.00  0.00    -0.249 N 
HETATM   21  C   UNL     1      40.958 -13.722  -1.023  1.00  0.00     0.339 C 
HETATM   22  N   UNL     1      40.280 -12.895  -1.888  1.00  0.00    -0.308 N 
HETATM   23  O   UNL     1      42.158 -13.699  -0.762  1.00  0.00    -0.245 OA
HETATM   24  H   UNL     1      39.298 -13.097  -2.014  1.00  0.00     0.170 HD
HETATM   25  H   UNL     1      39.143 -14.477  -0.299  1.00  0.00     0.192 HD
BRANCH  22  26
HETATM   26  C   UNL     1      40.816 -11.850  -2.670  1.00  0.00     0.038 A 
HETATM   27  C   UNL     1      40.767 -10.501  -2.310  1.00  0.00     0.053 A 
HETATM   28  C   UNL     1      41.339  -9.533  -3.138  1.00  0.00     0.036 A 
HETATM   29 CL   UNL     1      41.283  -7.873  -2.679  1.00  0.00    -0.084 Cl
HETATM   30  C   UNL     1      41.960  -9.894  -4.331  1.00  0.00     0.024 A 
HETATM   31  C   UNL     1      42.008 -11.235  -4.701  1.00  0.00     0.004 A 
HETATM   32  C   UNL     1      41.440 -12.207  -3.873  1.00  0.00     0.029 A 
ENDBRANCH  22  26
ENDBRANCH   2  20
TORSDOF 4
ENDMDL
