MODEL 1
REMARK VINA RESULT:      -8.9      0.000      0.000
REMARK  3 active torsions:
REMARK  status: ('A' for Active; 'I' for Inactive)
REMARK    1  A    between atoms: C_2  and  C_3 
REMARK    2  A    between atoms: C_9  and  C_10 
REMARK    3  A    between atoms: C_21  and  N_22 
ROOT
HETATM    1  C   UNL     1      44.635 -20.585   4.811  1.00  0.00     0.066 A 
HETATM    2  N   UNL     1      44.448 -21.754   5.449  1.00  0.00    -0.177 NA
HETATM    3  N   UNL     1      44.046 -21.399   6.688  1.00  0.00    -0.256 N 
HETATM    4  H   UNL     1      43.855 -22.127   7.368  1.00  0.00     0.191 HD
HETATM    5  C   UNL     1      43.986 -20.054   6.852  1.00  0.00     0.175 A 
HETATM    6  C   UNL     1      44.334 -19.488   5.652  1.00  0.00     0.035 A 
HETATM    7  C   UNL     1      44.381 -18.007   5.515  1.00  0.00     0.104 A 
HETATM    8  C   UNL     1      44.166 -17.349   6.875  1.00  0.00     0.067 A 
HETATM    9  C   UNL     1      44.459 -15.860   6.953  1.00  0.00     0.020 C 
HETATM   10  N   UNL     1      44.703 -14.624   7.017  1.00  0.00    -0.096 N 
HETATM   11  C   UNL     1      43.838 -18.039   8.000  1.00  0.00     0.139 A 
HETATM   12  O   UNL     1      43.674 -19.439   7.988  1.00  0.00    -0.279 OA
ENDROOT
BRANCH   7  13
HETATM   13  C   UNL     1      43.298 -17.645   4.506  1.00  0.00    -0.043 A 
HETATM   14  C   UNL     1      43.580 -17.453   3.139  1.00  0.00     0.033 A 
HETATM   15  C   UNL     1      42.568 -17.119   2.231  1.00  0.00     0.056 A 
HETATM   16 CL   UNL     1      43.017 -16.891   0.578  1.00  0.00    -0.083 Cl
HETATM   17  C   UNL     1      41.252 -16.982   2.677  1.00  0.00     0.055 A 
HETATM   18 CL   UNL     1      39.951 -16.568   1.618  1.00  0.00    -0.083 Cl
HETATM   19  C   UNL     1      40.954 -17.181   4.028  1.00  0.00     0.026 A 
HETATM   20  C   UNL     1      41.967 -17.514   4.934  1.00  0.00     0.010 A 
ENDBRANCH   7  13
BRANCH  11  21
HETATM   21  N   UNL     1      43.650 -17.490   9.247  1.00  0.00    -0.282 NA
HETATM   22  H   UNL     1      44.488 -17.367   9.810  1.00  0.00     0.126 HD
HETATM   23  H   UNL     1      43.064 -16.659   9.218  1.00  0.00     0.126 HD
ENDBRANCH  11  21
BRANCH   1  24
HETATM   24  C   UNL     1      45.122 -20.576   3.401  1.00  0.00     0.057 C 
HETATM   25  C   UNL     1      44.076 -21.074   2.416  1.00  0.00     0.011 C 
ENDBRANCH   1  24
TORSDOF 3
ENDMDL
MODEL 2
REMARK VINA RESULT:      -7.2      2.338      2.805
REMARK  3 active torsions:
REMARK  status: ('A' for Active; 'I' for Inactive)
REMARK    1  A    between atoms: C_2  and  C_3 
REMARK    2  A    between atoms: C_9  and  C_10 
REMARK    3  A    between atoms: C_21  and  N_22 
ROOT
HETATM    1  C   UNL     1      43.774 -18.028   3.406  1.00  0.00     0.066 A 
HETATM    2  N   UNL     1      43.552 -19.350   3.509  1.00  0.00    -0.177 NA
HETATM    3  N   UNL     1      43.319 -19.549   4.823  1.00  0.00    -0.256 N 
HETATM    4  H   UNL     1      43.137 -20.492   5.151  1.00  0.00     0.191 HD
HETATM    5  C   UNL     1      43.396 -18.405   5.547  1.00  0.00     0.175 A 
HETATM    6  C   UNL     1      43.663 -17.390   4.664  1.00  0.00     0.035 A 
HETATM    7  C   UNL     1      43.827 -15.997   5.160  1.00  0.00     0.104 A 
HETATM    8  C   UNL     1      43.817 -15.982   6.687  1.00  0.00     0.067 A 
HETATM    9  C   UNL     1      44.248 -14.682   7.346  1.00  0.00     0.020 C 
HETATM   10  N   UNL     1      44.606 -13.604   7.894  1.00  0.00    -0.096 N 
HETATM   11  C   UNL     1      43.551 -17.077   7.447  1.00  0.00     0.139 A 
HETATM   12  O   UNL     1      43.263 -18.328   6.867  1.00  0.00    -0.279 OA
ENDROOT
BRANCH   7  13
HETATM   13  C   UNL     1      42.678 -15.199   4.556  1.00  0.00    -0.043 A 
HETATM   14  C   UNL     1      42.871 -14.298   3.488  1.00  0.00     0.033 A 
HETATM   15  C   UNL     1      41.801 -13.574   2.950  1.00  0.00     0.056 A 
HETATM   16 CL   UNL     1      42.142 -12.485   1.652  1.00  0.00    -0.083 Cl
HETATM   17  C   UNL     1      40.515 -13.748   3.465  1.00  0.00     0.055 A 
HETATM   18 CL   UNL     1      39.146 -12.889   2.856  1.00  0.00    -0.083 Cl
HETATM   19  C   UNL     1      40.305 -14.647   4.515  1.00  0.00     0.026 A 
HETATM   20  C   UNL     1      41.376 -15.368   5.053  1.00  0.00     0.010 A 
ENDBRANCH   7  13
BRANCH  11  21
HETATM   21  N   UNL     1      43.547 -17.112   8.822  1.00  0.00    -0.282 NA
HETATM   22  H   UNL     1      43.485 -18.036   9.243  1.00  0.00     0.126 HD
HETATM   23  H   UNL     1      44.287 -16.540   9.225  1.00  0.00     0.126 HD
ENDBRANCH  11  21
BRANCH   1  24
HETATM   24  C   UNL     1      44.106 -17.430   2.080  1.00  0.00     0.057 C 
HETATM   25  C   UNL     1      42.892 -17.299   1.174  1.00  0.00     0.011 C 
ENDBRANCH   1  24
TORSDOF 3
ENDMDL
MODEL 3
REMARK VINA RESULT:      -7.2      3.104      5.289
REMARK  3 active torsions:
REMARK  status: ('A' for Active; 'I' for Inactive)
REMARK    1  A    between atoms: C_2  and  C_3 
REMARK    2  A    between atoms: C_9  and  C_10 
REMARK    3  A    between atoms: C_21  and  N_22 
ROOT
HETATM    1  C   UNL     1      41.708 -15.108   2.766  1.00  0.00     0.066 A 
HETATM    2  N   UNL     1      41.981 -13.964   2.112  1.00  0.00    -0.177 NA
HETATM    3  N   UNL     1      42.923 -13.363   2.867  1.00  0.00    -0.256 N 
HETATM    4  H   UNL     1      43.281 -12.460   2.576  1.00  0.00     0.191 HD
HETATM    5  C   UNL     1      43.243 -14.080   3.974  1.00  0.00     0.175 A 
HETATM    6  C   UNL     1      42.498 -15.231   3.933  1.00  0.00     0.035 A 
HETATM    7  C   UNL     1      42.611 -16.228   5.031  1.00  0.00     0.104 A 
HETATM    8  C   UNL     1      43.485 -15.673   6.153  1.00  0.00     0.067 A 
HETATM    9  C   UNL     1      43.473 -16.451   7.459  1.00  0.00     0.020 C 
HETATM   10  N   UNL     1      43.463 -17.096   8.543  1.00  0.00    -0.096 N 
HETATM   11  C   UNL     1      44.161 -14.496   6.067  1.00  0.00     0.139 A 
HETATM   12  O   UNL     1      44.099 -13.691   4.912  1.00  0.00    -0.279 OA
ENDROOT
BRANCH   7  13
HETATM   13  C   UNL     1      43.195 -17.485   4.398  1.00  0.00    -0.043 A 
HETATM   14  C   UNL     1      43.512 -18.630   5.157  1.00  0.00     0.033 A 
HETATM   15  C   UNL     1      44.049 -19.773   4.553  1.00  0.00     0.056 A 
HETATM   16 CL   UNL     1      44.418 -21.120   5.571  1.00  0.00    -0.083 Cl
HETATM   17  C   UNL     1      44.268 -19.793   3.174  1.00  0.00     0.055 A 
HETATM   18 CL   UNL     1      44.929 -21.164   2.358  1.00  0.00    -0.083 Cl
HETATM   19  C   UNL     1      43.946 -18.670   2.406  1.00  0.00     0.026 A 
HETATM   20  C   UNL     1      43.411 -17.528   3.011  1.00  0.00     0.010 A 
ENDBRANCH   7  13
BRANCH  11  21
HETATM   21  N   UNL     1      44.945 -13.951   7.057  1.00  0.00    -0.282 NA
HETATM   22  H   UNL     1      45.894 -14.310   7.121  1.00  0.00     0.126 HD
HETATM   23  H   UNL     1      44.903 -12.934   7.067  1.00  0.00     0.126 HD
ENDBRANCH  11  21
BRANCH   1  24
HETATM   24  C   UNL     1      40.668 -16.038   2.237  1.00  0.00     0.057 C 
HETATM   25  C   UNL     1      39.347 -15.341   1.954  1.00  0.00     0.011 C 
ENDBRANCH   1  24
TORSDOF 3
ENDMDL
MODEL 4
REMARK VINA RESULT:      -6.9      3.886      5.220
REMARK  3 active torsions:
REMARK  status: ('A' for Active; 'I' for Inactive)
REMARK    1  A    between atoms: C_2  and  C_3 
REMARK    2  A    between atoms: C_9  and  C_10 
REMARK    3  A    between atoms: C_21  and  N_22 
ROOT
HETATM    1  C   UNL     1      44.038 -19.794   4.059  1.00  0.00     0.066 A 
HETATM    2  N   UNL     1      44.968 -20.401   3.301  1.00  0.00    -0.177 NA
HETATM    3  N   UNL     1      44.903 -19.762   2.115  1.00  0.00    -0.256 N 
HETATM    4  H   UNL     1      45.514 -20.062   1.363  1.00  0.00     0.191 HD
HETATM    5  C   UNL     1      43.961 -18.786   2.098  1.00  0.00     0.175 A 
HETATM    6  C   UNL     1      43.394 -18.755   3.347  1.00  0.00     0.035 A 
HETATM    7  C   UNL     1      42.302 -17.790   3.643  1.00  0.00     0.104 A 
HETATM    8  C   UNL     1      41.881 -17.068   2.366  1.00  0.00     0.067 A 
HETATM    9  C   UNL     1      40.598 -16.257   2.445  1.00  0.00     0.020 C 
HETATM   10  N   UNL     1      39.533 -15.585   2.511  1.00  0.00    -0.096 N 
HETATM   11  C   UNL     1      42.529 -17.205   1.178  1.00  0.00     0.139 A 
HETATM   12  O   UNL     1      43.654 -18.043   1.041  1.00  0.00    -0.279 OA
ENDROOT
BRANCH   7  13
HETATM   13  C   UNL     1      42.854 -16.842   4.701  1.00  0.00    -0.043 A 
HETATM   14  C   UNL     1      42.927 -17.199   6.063  1.00  0.00     0.033 A 
HETATM   15  C   UNL     1      43.436 -16.311   7.018  1.00  0.00     0.056 A 
HETATM   16 CL   UNL     1      43.471 -16.836   8.664  1.00  0.00    -0.083 Cl
HETATM   17  C   UNL     1      43.893 -15.052   6.622  1.00  0.00     0.055 A 
HETATM   18 CL   UNL     1      44.532 -13.902   7.741  1.00  0.00    -0.083 Cl
HETATM   19  C   UNL     1      43.840 -14.689   5.273  1.00  0.00     0.026 A 
HETATM   20  C   UNL     1      43.329 -15.577   4.321  1.00  0.00     0.010 A 
ENDBRANCH   7  13
BRANCH  11  21
HETATM   21  N   UNL     1      42.176 -16.588   0.000  1.00  0.00    -0.282 NA
HETATM   22  H   UNL     1      41.256 -16.155  -0.017  1.00  0.00     0.126 HD
HETATM   23  H   UNL     1      42.911 -15.976  -0.350  1.00  0.00     0.126 HD
ENDBRANCH  11  21
BRANCH   1  24
HETATM   24  C   UNL     1      43.793 -20.262   5.455  1.00  0.00     0.057 C 
HETATM   25  C   UNL     1      44.484 -21.581   5.761  1.00  0.00     0.011 C 
ENDBRANCH   1  24
TORSDOF 3
ENDMDL
MODEL 5
REMARK VINA RESULT:      -6.8      3.709      4.940
REMARK  3 active torsions:
REMARK  status: ('A' for Active; 'I' for Inactive)
REMARK    1  A    between atoms: C_2  and  C_3 
REMARK    2  A    between atoms: C_9  and  C_10 
REMARK    3  A    between atoms: C_21  and  N_22 
ROOT
HETATM    1  C   UNL     1      42.458 -17.060   3.357  1.00  0.00     0.066 A 
HETATM    2  N   UNL     1      42.160 -18.170   4.055  1.00  0.00    -0.177 NA
HETATM    3  N   UNL     1      41.352 -17.738   5.045  1.00  0.00    -0.256 N 
HETATM    4  H   UNL     1      41.004 -18.408   5.721  1.00  0.00     0.191 HD
HETATM    5  C   UNL     1      41.141 -16.398   4.999  1.00  0.00     0.175 A 
HETATM    6  C   UNL     1      41.819 -15.924   3.905  1.00  0.00     0.035 A 
HETATM    7  C   UNL     1      41.798 -14.469   3.592  1.00  0.00     0.104 A 
HETATM    8  C   UNL     1      41.102 -13.703   4.714  1.00  0.00     0.067 A 
HETATM    9  C   UNL     1      41.241 -12.190   4.679  1.00  0.00     0.020 C 
HETATM   10  N   UNL     1      41.358 -10.935   4.650  1.00  0.00    -0.096 N 
HETATM   11  C   UNL     1      40.477 -14.306   5.761  1.00  0.00     0.139 A 
HETATM   12  O   UNL     1      40.431 -15.709   5.885  1.00  0.00    -0.279 OA
ENDROOT
BRANCH   7  13
HETATM   13  C   UNL     1      41.078 -14.339   2.255  1.00  0.00    -0.043 A 
HETATM   14  C   UNL     1      39.674 -14.396   2.150  1.00  0.00     0.033 A 
HETATM   15  C   UNL     1      39.035 -14.276   0.910  1.00  0.00     0.056 A 
HETATM   16 CL   UNL     1      37.309 -14.372   0.885  1.00  0.00    -0.083 Cl
HETATM   17  C   UNL     1      39.793 -14.084  -0.247  1.00  0.00     0.055 A 
HETATM   18 CL   UNL     1      39.077 -13.930  -1.811  1.00  0.00    -0.083 Cl
HETATM   19  C   UNL     1      41.186 -14.012  -0.157  1.00  0.00     0.026 A 
HETATM   20  C   UNL     1      41.823 -14.135   1.082  1.00  0.00     0.010 A 
ENDBRANCH   7  13
BRANCH  11  21
HETATM   21  N   UNL     1      39.853 -13.657   6.799  1.00  0.00    -0.282 NA
HETATM   22  H   UNL     1      38.892 -13.933   6.984  1.00  0.00     0.126 HD
HETATM   23  H   UNL     1      40.427 -13.629   7.639  1.00  0.00     0.126 HD
ENDBRANCH  11  21
BRANCH   1  24
HETATM   24  C   UNL     1      43.377 -17.142   2.184  1.00  0.00     0.057 C 
HETATM   25  C   UNL     1      44.003 -18.518   2.024  1.00  0.00     0.011 C 
ENDBRANCH   1  24
TORSDOF 3
ENDMDL
MODEL 6
REMARK VINA RESULT:      -6.8      3.724      4.737
REMARK  3 active torsions:
REMARK  status: ('A' for Active; 'I' for Inactive)
REMARK    1  A    between atoms: C_2  and  C_3 
REMARK    2  A    between atoms: C_9  and  C_10 
REMARK    3  A    between atoms: C_21  and  N_22 
ROOT
HETATM    1  C   UNL     1      42.686 -16.985   3.424  1.00  0.00     0.066 A 
HETATM    2  N   UNL     1      42.395 -18.119   4.086  1.00  0.00    -0.177 NA
HETATM    3  N   UNL     1      41.525 -17.735   5.043  1.00  0.00    -0.256 N 
HETATM    4  H   UNL     1      41.170 -18.431   5.689  1.00  0.00     0.191 HD
HETATM    5  C   UNL     1      41.269 -16.403   5.012  1.00  0.00     0.175 A 
HETATM    6  C   UNL     1      41.981 -15.883   3.962  1.00  0.00     0.035 A 
HETATM    7  C   UNL     1      41.923 -14.424   3.675  1.00  0.00     0.104 A 
HETATM    8  C   UNL     1      41.147 -13.706   4.776  1.00  0.00     0.067 A 
HETATM    9  C   UNL     1      41.234 -12.188   4.776  1.00  0.00     0.020 C 
HETATM   10  N   UNL     1      41.308 -10.929   4.776  1.00  0.00    -0.096 N 
HETATM   11  C   UNL     1      40.496 -14.351   5.780  1.00  0.00     0.139 A 
HETATM   12  O   UNL     1      40.493 -15.757   5.876  1.00  0.00    -0.279 OA
ENDROOT
BRANCH   7  13
HETATM   13  C   UNL     1      41.263 -14.292   2.307  1.00  0.00    -0.043 A 
HETATM   14  C   UNL     1      41.954 -13.783   1.188  1.00  0.00     0.033 A 
HETATM   15  C   UNL     1      41.327 -13.669  -0.058  1.00  0.00     0.056 A 
HETATM   16 CL   UNL     1      42.253 -13.021  -1.365  1.00  0.00    -0.083 Cl
HETATM   17  C   UNL     1      39.999 -14.073  -0.208  1.00  0.00     0.055 A 
HETATM   18 CL   UNL     1      39.157 -13.960  -1.712  1.00  0.00    -0.083 Cl
HETATM   19  C   UNL     1      39.305 -14.591   0.889  1.00  0.00     0.026 A 
HETATM   20  C   UNL     1      39.932 -14.703   2.134  1.00  0.00     0.010 A 
ENDBRANCH   7  13
BRANCH  11  21
HETATM   21  N   UNL     1      39.800 -13.745   6.800  1.00  0.00    -0.282 NA
HETATM   22  H   UNL     1      39.513 -12.784   6.632  1.00  0.00     0.126 HD
HETATM   23  H   UNL     1      39.045 -14.330   7.153  1.00  0.00     0.126 HD
ENDBRANCH  11  21
BRANCH   1  24
HETATM   24  C   UNL     1      43.661 -17.011   2.295  1.00  0.00     0.057 C 
HETATM   25  C   UNL     1      43.012 -17.369   0.967  1.00  0.00     0.011 C 
ENDBRANCH   1  24
TORSDOF 3
ENDMDL
MODEL 7
REMARK VINA RESULT:      -6.7      8.192     10.333
REMARK  3 active torsions:
REMARK  status: ('A' for Active; 'I' for Inactive)
REMARK    1  A    between atoms: C_2  and  C_3 
REMARK    2  A    between atoms: C_9  and  C_10 
REMARK    3  A    between atoms: C_21  and  N_22 
ROOT
HETATM    1  C   UNL     1      41.718 -11.055  12.543  1.00  0.00     0.066 A 
HETATM    2  N   UNL     1      40.790 -11.847  13.108  1.00  0.00    -0.177 NA
HETATM    3  N   UNL     1      39.830 -11.963  12.166  1.00  0.00    -0.256 N 
HETATM    4  H   UNL     1      39.004 -12.513  12.374  1.00  0.00     0.191 HD
HETATM    5  C   UNL     1      40.118 -11.265  11.039  1.00  0.00     0.175 A 
HETATM    6  C   UNL     1      41.344 -10.682  11.230  1.00  0.00     0.035 A 
HETATM    7  C   UNL     1      41.934  -9.825  10.167  1.00  0.00     0.104 A 
HETATM    8  C   UNL     1      40.922  -9.616   9.044  1.00  0.00     0.067 A 
HETATM    9  C   UNL     1      41.268  -8.545   8.022  1.00  0.00     0.020 C 
HETATM   10  N   UNL     1      41.554  -7.656   7.174  1.00  0.00    -0.096 N 
HETATM   11  C   UNL     1      39.721 -10.251   8.986  1.00  0.00     0.139 A 
HETATM   12  O   UNL     1      39.319 -11.164   9.982  1.00  0.00    -0.279 OA
ENDROOT
BRANCH   7  13
HETATM   13  C   UNL     1      43.194 -10.544   9.699  1.00  0.00    -0.043 A 
HETATM   14  C   UNL     1      43.158 -11.562   8.724  1.00  0.00     0.033 A 
HETATM   15  C   UNL     1      44.328 -12.209   8.311  1.00  0.00     0.056 A 
HETATM   16 CL   UNL     1      44.179 -13.453   7.121  1.00  0.00    -0.083 Cl
HETATM   17  C   UNL     1      45.558 -11.841   8.861  1.00  0.00     0.055 A 
HETATM   18 CL   UNL     1      47.043 -12.595   8.405  1.00  0.00    -0.083 Cl
HETATM   19  C   UNL     1      45.611 -10.825   9.819  1.00  0.00     0.026 A 
HETATM   20  C   UNL     1      44.441 -10.179  10.232  1.00  0.00     0.010 A 
ENDBRANCH   7  13
BRANCH  11  21
HETATM   21  N   UNL     1      38.774 -10.081   8.003  1.00  0.00    -0.282 NA
HETATM   22  H   UNL     1      39.056 -10.349   7.064  1.00  0.00     0.126 HD
HETATM   23  H   UNL     1      37.868 -10.460   8.271  1.00  0.00     0.126 HD
ENDBRANCH  11  21
BRANCH   1  24
HETATM   24  C   UNL     1      42.937 -10.670  13.314  1.00  0.00     0.057 C 
HETATM   25  C   UNL     1      42.978  -9.185  13.641  1.00  0.00     0.011 C 
ENDBRANCH   1  24
TORSDOF 3
ENDMDL
MODEL 8
REMARK VINA RESULT:      -6.6      4.446      6.151
REMARK  3 active torsions:
REMARK  status: ('A' for Active; 'I' for Inactive)
REMARK    1  A    between atoms: C_2  and  C_3 
REMARK    2  A    between atoms: C_9  and  C_10 
REMARK    3  A    between atoms: C_21  and  N_22 
ROOT
HETATM    1  C   UNL     1      42.639 -17.815   4.318  1.00  0.00     0.066 A 
HETATM    2  N   UNL     1      43.752 -18.452   3.911  1.00  0.00    -0.177 NA
HETATM    3  N   UNL     1      43.925 -18.044   2.637  1.00  0.00    -0.256 N 
HETATM    4  H   UNL     1      44.708 -18.411   2.108  1.00  0.00     0.191 HD
HETATM    5  C   UNL     1      42.957 -17.186   2.227  1.00  0.00     0.175 A 
HETATM    6  C   UNL     1      42.118 -16.989   3.294  1.00  0.00     0.035 A 
HETATM    7  C   UNL     1      40.933 -16.102   3.153  1.00  0.00     0.104 A 
HETATM    8  C   UNL     1      40.777 -15.665   1.699  1.00  0.00     0.067 A 
HETATM    9  C   UNL     1      39.465 -14.986   1.340  1.00  0.00     0.020 C 
HETATM   10  N   UNL     1      38.376 -14.423   1.042  1.00  0.00    -0.096 N 
HETATM   11  C   UNL     1      41.686 -15.947   0.728  1.00  0.00     0.139 A 
HETATM   12  O   UNL     1      42.859 -16.678   1.003  1.00  0.00    -0.279 OA
ENDROOT
BRANCH   7  13
HETATM   13  C   UNL     1      41.172 -14.930   4.098  1.00  0.00    -0.043 A 
HETATM   14  C   UNL     1      40.169 -14.448   4.963  1.00  0.00     0.033 A 
HETATM   15  C   UNL     1      40.411 -13.368   5.821  1.00  0.00     0.056 A 
HETATM   16 CL   UNL     1      39.114 -12.843   6.835  1.00  0.00    -0.083 Cl
HETATM   17  C   UNL     1      41.668 -12.759   5.835  1.00  0.00     0.055 A 
HETATM   18 CL   UNL     1      42.041 -11.422   6.862  1.00  0.00    -0.083 Cl
HETATM   19  C   UNL     1      42.676 -13.234   4.991  1.00  0.00     0.026 A 
HETATM   20  C   UNL     1      42.432 -14.312   4.133  1.00  0.00     0.010 A 
ENDBRANCH   7  13
BRANCH  11  21
HETATM   21  N   UNL     1      41.579 -15.588  -0.595  1.00  0.00    -0.282 NA
HETATM   22  H   UNL     1      40.788 -15.980  -1.100  1.00  0.00     0.126 HD
HETATM   23  H   UNL     1      41.681 -14.584  -0.733  1.00  0.00     0.126 HD
ENDBRANCH  11  21
BRANCH   1  24
HETATM   24  C   UNL     1      42.107 -18.048   5.692  1.00  0.00     0.057 C 
HETATM   25  C   UNL     1      42.661 -17.064   6.710  1.00  0.00     0.011 C 
ENDBRANCH   1  24
TORSDOF 3
ENDMDL
MODEL 9
REMARK VINA RESULT:      -6.4      4.746      7.131
REMARK  3 active torsions:
REMARK  status: ('A' for Active; 'I' for Inactive)
REMARK    1  A    between atoms: C_2  and  C_3 
REMARK    2  A    between atoms: C_9  and  C_10 
REMARK    3  A    between atoms: C_21  and  N_22 
ROOT
HETATM    1  C   UNL     1      40.668 -12.910   3.587  1.00  0.00     0.066 A 
HETATM    2  N   UNL     1      39.376 -12.623   3.350  1.00  0.00    -0.177 NA
HETATM    3  N   UNL     1      38.928 -13.668   2.624  1.00  0.00    -0.256 N 
HETATM    4  H   UNL     1      37.964 -13.667   2.309  1.00  0.00     0.191 HD
HETATM    5  C   UNL     1      39.892 -14.592   2.388  1.00  0.00     0.175 A 
HETATM    6  C   UNL     1      41.029 -14.153   3.017  1.00  0.00     0.035 A 
HETATM    7  C   UNL     1      42.282 -14.951   2.927  1.00  0.00     0.104 A 
HETATM    8  C   UNL     1      42.094 -16.113   1.956  1.00  0.00     0.067 A 
HETATM    9  C   UNL     1      43.355 -16.854   1.544  1.00  0.00     0.020 C 
HETATM   10  N   UNL     1      44.402 -17.468   1.202  1.00  0.00    -0.096 N 
HETATM   11  C   UNL     1      40.900 -16.429   1.384  1.00  0.00     0.139 A 
HETATM   12  O   UNL     1      39.732 -15.688   1.654  1.00  0.00    -0.279 OA
ENDROOT
BRANCH   7  13
HETATM   13  C   UNL     1      42.588 -15.413   4.347  1.00  0.00    -0.043 A 
HETATM   14  C   UNL     1      43.479 -14.716   5.187  1.00  0.00     0.033 A 
HETATM   15  C   UNL     1      43.746 -15.160   6.487  1.00  0.00     0.056 A 
HETATM   16 CL   UNL     1      44.864 -14.244   7.434  1.00  0.00    -0.083 Cl
HETATM   17  C   UNL     1      43.115 -16.307   6.973  1.00  0.00     0.055 A 
HETATM   18 CL   UNL     1      43.395 -16.919   8.563  1.00  0.00    -0.083 Cl
HETATM   19  C   UNL     1      42.219 -17.002   6.156  1.00  0.00     0.026 A 
HETATM   20  C   UNL     1      41.954 -16.558   4.857  1.00  0.00     0.010 A 
ENDBRANCH   7  13
BRANCH  11  21
HETATM   21  N   UNL     1      40.688 -17.455   0.494  1.00  0.00    -0.282 NA
HETATM   22  H   UNL     1      40.704 -18.393   0.885  1.00  0.00     0.126 HD
HETATM   23  H   UNL     1      39.883 -17.286  -0.105  1.00  0.00     0.126 HD
ENDBRANCH  11  21
BRANCH   1  24
HETATM   24  C   UNL     1      41.518 -11.949   4.349  1.00  0.00     0.057 C 
HETATM   25  C   UNL     1      41.183 -11.919   5.832  1.00  0.00     0.011 C 
ENDBRANCH   1  24
TORSDOF 3
ENDMDL
MODEL 10
REMARK VINA RESULT:      -6.4      6.647      8.592
REMARK  3 active torsions:
REMARK  status: ('A' for Active; 'I' for Inactive)
REMARK    1  A    between atoms: C_2  and  C_3 
REMARK    2  A    between atoms: C_9  and  C_10 
REMARK    3  A    between atoms: C_21  and  N_22 
ROOT
HETATM    1  C   UNL     1      40.916 -14.451  -2.566  1.00  0.00     0.066 A 
HETATM    2  N   UNL     1      41.787 -14.512  -3.588  1.00  0.00    -0.177 NA
HETATM    3  N   UNL     1      42.709 -13.570  -3.300  1.00  0.00    -0.256 N 
HETATM    4  H   UNL     1      43.473 -13.419  -3.949  1.00  0.00     0.191 HD
HETATM    5  C   UNL     1      42.442 -12.915  -2.143  1.00  0.00     0.175 A 
HETATM    6  C   UNL     1      41.303 -13.472  -1.621  1.00  0.00     0.035 A 
HETATM    7  C   UNL     1      40.738 -12.951  -0.347  1.00  0.00     0.104 A 
HETATM    8  C   UNL     1      41.500 -11.703   0.091  1.00  0.00     0.067 A 
HETATM    9  C   UNL     1      40.874 -10.896   1.217  1.00  0.00     0.020 C 
HETATM   10  N   UNL     1      40.354 -10.227   2.151  1.00  0.00    -0.096 N 
HETATM   11  C   UNL     1      42.618 -11.247  -0.535  1.00  0.00     0.139 A 
HETATM   12  O   UNL     1      43.158 -11.906  -1.657  1.00  0.00    -0.279 OA
ENDROOT
BRANCH   7  13
HETATM   13  C   UNL     1      40.846 -14.091   0.658  1.00  0.00    -0.043 A 
HETATM   14  C   UNL     1      42.086 -14.646   1.032  1.00  0.00     0.033 A 
HETATM   15  C   UNL     1      42.161 -15.694   1.956  1.00  0.00     0.056 A 
HETATM   16 CL   UNL     1      43.728 -16.315   2.340  1.00  0.00    -0.083 Cl
HETATM   17  C   UNL     1      40.993 -16.199   2.531  1.00  0.00     0.055 A 
HETATM   18 CL   UNL     1      41.004 -17.493   3.675  1.00  0.00    -0.083 Cl
HETATM   19  C   UNL     1      39.756 -15.651   2.179  1.00  0.00     0.026 A 
HETATM   20  C   UNL     1      39.683 -14.604   1.255  1.00  0.00     0.010 A 
ENDBRANCH   7  13
BRANCH  11  21
HETATM   21  N   UNL     1      43.326 -10.121  -0.185  1.00  0.00    -0.282 NA
HETATM   22  H   UNL     1      43.015  -9.250  -0.607  1.00  0.00     0.126 HD
HETATM   23  H   UNL     1      43.463 -10.049   0.822  1.00  0.00     0.126 HD
ENDBRANCH  11  21
BRANCH   1  24
HETATM   24  C   UNL     1      39.718 -15.340  -2.553  1.00  0.00     0.057 C 
HETATM   25  C   UNL     1      39.363 -15.865  -3.935  1.00  0.00     0.011 C 
ENDBRANCH   1  24
TORSDOF 3
ENDMDL
