MODEL 1
REMARK VINA RESULT:      -8.6      0.000      0.000
REMARK  14 active torsions:
REMARK  status: ('A' for Active; 'I' for Inactive)
REMARK    1  A    between atoms: C_2  and  O_3 
REMARK    2  A    between atoms: O_3  and  C_4 
REMARK    3  A    between atoms: C_5  and  O_6 
REMARK    4  A    between atoms: C_9  and  C_10 
REMARK    5  A    between atoms: N_11  and  C_12 
REMARK    6  A    between atoms: C_12  and  C_13 
REMARK    7  A    between atoms: C_13  and  C_14 
REMARK    8  A    between atoms: C_14  and  N_15 
REMARK    9  A    between atoms: C_24  and  O_25 
REMARK   10  A    between atoms: C_26  and  C_27 
REMARK   11  A    between atoms: C_27  and  C_28 
REMARK   12  A    between atoms: C_32  and  O_33 
REMARK   13  A    between atoms: O_33  and  C_34 
REMARK   14  A    between atoms: C_34  and  C_35 
ROOT
HETATM    1  C   UNL     1      39.698 -13.484  -0.357  1.00  0.00     0.161 C 
HETATM    2  N   UNL     1      40.490 -12.313  -0.725  1.00  0.00    -0.333 N 
HETATM    3  C   UNL     1      41.696 -12.299  -0.055  1.00  0.00     0.278 C 
HETATM    4  O   UNL     1      42.597 -11.482  -0.141  1.00  0.00    -0.265 OA
HETATM    5  C   UNL     1      41.716 -13.462   0.859  1.00  0.00     0.146 C 
HETATM    6  C   UNL     1      40.535 -14.075   0.735  1.00  0.00     0.059 C 
ENDROOT
BRANCH   6   7
HETATM    7  C   UNL     1      39.968 -15.173   1.547  1.00  0.00     0.193 C 
HETATM    8  O   UNL     1      38.815 -15.082   1.958  1.00  0.00    -0.287 OA
BRANCH   7   9
HETATM    9  C   UNL     1      40.808 -16.326   1.970  1.00  0.00     0.015 A 
HETATM   10  C   UNL     1      41.013 -16.532   3.341  1.00  0.00     0.025 A 
HETATM   11  C   UNL     1      41.850 -17.566   3.796  1.00  0.00    -0.028 A 
HETATM   12  C   UNL     1      42.066 -17.758   5.272  1.00  0.00     0.051 C 
HETATM   13  C   UNL     1      42.485 -18.406   2.864  1.00  0.00     0.074 A 
HETATM   14  C   UNL     1      42.301 -18.180   1.498  1.00  0.00     0.038 A 
HETATM   15  C   UNL     1      41.480 -17.138   1.053  1.00  0.00     0.018 A 
BRANCH  13  16
HETATM   16  O   UNL     1      43.279 -19.391   3.390  1.00  0.00    -0.350 OA
BRANCH  16  17
HETATM   17  C   UNL     1      44.508 -19.677   2.719  1.00  0.00     0.179 C 
BRANCH  17  18
HETATM   18  C   UNL     1      44.688 -21.198   2.622  1.00  0.00     0.002 C 
HETATM   19  C   UNL     1      44.615 -21.860   3.999  1.00  0.00     0.011 C 
HETATM   20  C   UNL     1      43.640 -21.797   1.687  1.00  0.00     0.011 C 
ENDBRANCH  17  18
ENDBRANCH  16  17
ENDBRANCH  13  16
ENDBRANCH   7   9
ENDBRANCH   6   7
BRANCH   1  21
HETATM   21  C   UNL     1      39.500 -14.347  -1.595  1.00  0.00    -0.028 A 
HETATM   22  C   UNL     1      40.538 -15.154  -2.104  1.00  0.00     0.012 A 
HETATM   23  C   UNL     1      40.369 -15.870  -3.287  1.00  0.00     0.040 A 
HETATM   24  C   UNL     1      39.160 -15.788  -3.961  1.00  0.00     0.099 A 
HETATM   25  C   UNL     1      38.097 -15.024  -3.470  1.00  0.00     0.102 A 
HETATM   26  C   UNL     1      38.274 -14.300  -2.289  1.00  0.00     0.049 A 
BRANCH  24  27
HETATM   27  O   UNL     1      39.028 -16.485  -5.129  1.00  0.00    -0.358 OA
HETATM   28  H   UNL     1      38.233 -17.040  -5.011  1.00  0.00     0.218 HD
ENDBRANCH  24  27
BRANCH  25  29
HETATM   29  O   UNL     1      36.966 -15.045  -4.242  1.00  0.00    -0.349 OA
BRANCH  29  30
HETATM   30  C   UNL     1      36.402 -13.782  -4.595  1.00  0.00     0.171 C 
HETATM   31  C   UNL     1      34.956 -14.011  -4.994  1.00  0.00     0.034 C 
ENDBRANCH  29  30
ENDBRANCH  25  29
ENDBRANCH   1  21
BRANCH   5  32
HETATM   32  O   UNL     1      42.741 -13.729   1.714  1.00  0.00    -0.355 OA
HETATM   33  H   UNL     1      42.970 -12.886   2.155  1.00  0.00     0.218 HD
ENDBRANCH   5  32
BRANCH   2  34
HETATM   34  C   UNL     1      39.852 -11.144  -1.313  1.00  0.00     0.129 C 
BRANCH  34  35
HETATM   35  C   UNL     1      39.597  -9.990  -0.345  1.00  0.00     0.048 C 
BRANCH  35  36
HETATM   36  C   UNL     1      38.319 -10.192   0.460  1.00  0.00     0.236 C 
BRANCH  36  37
HETATM   37  N   UNL     1      38.645 -10.220   1.939  1.00  0.00    -0.067 N 
HETATM   38  H   UNL     1      39.638  -9.983   2.056  1.00  0.00     0.280 HD
HETATM   39  C   UNL     1      37.828  -9.198   2.739  1.00  0.00     0.261 C 
HETATM   40  C   UNL     1      38.215  -9.286   4.220  1.00  0.00     0.195 C 
HETATM   41  O   UNL     1      38.017 -10.611   4.727  1.00  0.00    -0.388 OA
HETATM   42  C   UNL     1      38.810 -11.576   4.028  1.00  0.00     0.195 C 
HETATM   43  C   UNL     1      38.448 -11.610   2.539  1.00  0.00     0.261 C 
ENDBRANCH  36  37
ENDBRANCH  35  36
ENDBRANCH  34  35
ENDBRANCH   2  34
TORSDOF 14
ENDMDL
MODEL 2
REMARK VINA RESULT:      -8.5      4.614      9.923
REMARK  14 active torsions:
REMARK  status: ('A' for Active; 'I' for Inactive)
REMARK    1  A    between atoms: C_2  and  O_3 
REMARK    2  A    between atoms: O_3  and  C_4 
REMARK    3  A    between atoms: C_5  and  O_6 
REMARK    4  A    between atoms: C_9  and  C_10 
REMARK    5  A    between atoms: N_11  and  C_12 
REMARK    6  A    between atoms: C_12  and  C_13 
REMARK    7  A    between atoms: C_13  and  C_14 
REMARK    8  A    between atoms: C_14  and  N_15 
REMARK    9  A    between atoms: C_24  and  O_25 
REMARK   10  A    between atoms: C_26  and  C_27 
REMARK   11  A    between atoms: C_27  and  C_28 
REMARK   12  A    between atoms: C_32  and  O_33 
REMARK   13  A    between atoms: O_33  and  C_34 
REMARK   14  A    between atoms: C_34  and  C_35 
ROOT
HETATM    1  C   UNL     1      40.794 -14.395   4.353  1.00  0.00     0.161 C 
HETATM    2  N   UNL     1      41.512 -14.434   3.081  1.00  0.00    -0.333 N 
HETATM    3  C   UNL     1      41.935 -13.173   2.711  1.00  0.00     0.278 C 
HETATM    4  O   UNL     1      42.575 -12.852   1.724  1.00  0.00    -0.265 OA
HETATM    5  C   UNL     1      41.438 -12.217   3.724  1.00  0.00     0.146 C 
HETATM    6  C   UNL     1      40.717 -12.920   4.604  1.00  0.00     0.059 C 
ENDROOT
BRANCH   6   7
HETATM    7  C   UNL     1      39.856 -12.432   5.700  1.00  0.00     0.193 C 
HETATM    8  O   UNL     1      38.636 -12.510   5.585  1.00  0.00    -0.287 OA
BRANCH   7   9
HETATM    9  C   UNL     1      40.438 -11.743   6.884  1.00  0.00     0.015 A 
HETATM   10  C   UNL     1      39.565 -11.262   7.869  1.00  0.00     0.025 A 
HETATM   11  C   UNL     1      40.055 -10.546   8.976  1.00  0.00    -0.028 A 
HETATM   12  C   UNL     1      39.097 -10.028  10.014  1.00  0.00     0.051 C 
HETATM   13  C   UNL     1      41.437 -10.316   9.098  1.00  0.00     0.074 A 
HETATM   14  C   UNL     1      42.300 -10.772   8.100  1.00  0.00     0.038 A 
HETATM   15  C   UNL     1      41.803 -11.469   6.992  1.00  0.00     0.018 A 
BRANCH  13  16
HETATM   16  O   UNL     1      41.831  -9.616  10.208  1.00  0.00    -0.350 OA
BRANCH  16  17
HETATM   17  C   UNL     1      43.083  -9.967  10.799  1.00  0.00     0.179 C 
BRANCH  17  18
HETATM   18  C   UNL     1      42.874 -11.143  11.763  1.00  0.00     0.002 C 
HETATM   19  C   UNL     1      43.954 -12.213  11.585  1.00  0.00     0.011 C 
HETATM   20  C   UNL     1      42.850 -10.647  13.207  1.00  0.00     0.011 C 
ENDBRANCH  17  18
ENDBRANCH  16  17
ENDBRANCH  13  16
ENDBRANCH   7   9
ENDBRANCH   6   7
BRANCH   1  21
HETATM   21  C   UNL     1      41.569 -15.213   5.375  1.00  0.00    -0.028 A 
HETATM   22  C   UNL     1      41.037 -16.394   5.930  1.00  0.00     0.012 A 
HETATM   23  C   UNL     1      41.721 -17.083   6.929  1.00  0.00     0.040 A 
HETATM   24  C   UNL     1      42.943 -16.599   7.370  1.00  0.00     0.099 A 
HETATM   25  C   UNL     1      43.518 -15.448   6.822  1.00  0.00     0.102 A 
HETATM   26  C   UNL     1      42.824 -14.755   5.827  1.00  0.00     0.049 A 
BRANCH  24  27
HETATM   27  O   UNL     1      43.584 -17.284   8.365  1.00  0.00    -0.358 OA
HETATM   28  H   UNL     1      42.931 -17.932   8.695  1.00  0.00     0.218 HD
ENDBRANCH  24  27
BRANCH  25  29
HETATM   29  O   UNL     1      44.728 -15.096   7.356  1.00  0.00    -0.349 OA
BRANCH  29  30
HETATM   30  C   UNL     1      45.264 -13.833   6.963  1.00  0.00     0.171 C 
HETATM   31  C   UNL     1      45.302 -12.940   8.190  1.00  0.00     0.034 C 
ENDBRANCH  29  30
ENDBRANCH  25  29
ENDBRANCH   1  21
BRANCH   5  32
HETATM   32  O   UNL     1      41.630 -10.872   3.646  1.00  0.00    -0.355 OA
HETATM   33  H   UNL     1      41.894 -10.570   4.538  1.00  0.00     0.218 HD
ENDBRANCH   5  32
BRANCH   2  34
HETATM   34  C   UNL     1      41.338 -15.553   2.167  1.00  0.00     0.129 C 
BRANCH  34  35
HETATM   35  C   UNL     1      42.556 -16.463   2.018  1.00  0.00     0.048 C 
BRANCH  35  36
HETATM   36  C   UNL     1      42.159 -17.909   1.748  1.00  0.00     0.236 C 
BRANCH  36  37
HETATM   37  N   UNL     1      42.832 -18.821   2.754  1.00  0.00    -0.067 N 
HETATM   38  H   UNL     1      42.102 -19.321   3.276  1.00  0.00     0.280 HD
HETATM   39  C   UNL     1      43.725 -19.872   2.086  1.00  0.00     0.261 C 
HETATM   40  C   UNL     1      44.366 -20.753   3.165  1.00  0.00     0.195 C 
HETATM   41  O   UNL     1      45.113 -19.965   4.098  1.00  0.00    -0.388 OA
HETATM   42  C   UNL     1      44.288 -19.009   4.772  1.00  0.00     0.195 C 
HETATM   43  C   UNL     1      43.650 -18.035   3.776  1.00  0.00     0.261 C 
ENDBRANCH  36  37
ENDBRANCH  35  36
ENDBRANCH  34  35
ENDBRANCH   2  34
TORSDOF 14
ENDMDL
MODEL 3
REMARK VINA RESULT:      -8.4      2.243      4.074
REMARK  14 active torsions:
REMARK  status: ('A' for Active; 'I' for Inactive)
REMARK    1  A    between atoms: C_2  and  O_3 
REMARK    2  A    between atoms: O_3  and  C_4 
REMARK    3  A    between atoms: C_5  and  O_6 
REMARK    4  A    between atoms: C_9  and  C_10 
REMARK    5  A    between atoms: N_11  and  C_12 
REMARK    6  A    between atoms: C_12  and  C_13 
REMARK    7  A    between atoms: C_13  and  C_14 
REMARK    8  A    between atoms: C_14  and  N_15 
REMARK    9  A    between atoms: C_24  and  O_25 
REMARK   10  A    between atoms: C_26  and  C_27 
REMARK   11  A    between atoms: C_27  and  C_28 
REMARK   12  A    between atoms: C_32  and  O_33 
REMARK   13  A    between atoms: O_33  and  C_34 
REMARK   14  A    between atoms: C_34  and  C_35 
ROOT
HETATM    1  C   UNL     1      39.702 -13.369  -0.486  1.00  0.00     0.161 C 
HETATM    2  N   UNL     1      40.519 -12.229  -0.896  1.00  0.00    -0.333 N 
HETATM    3  C   UNL     1      41.721 -12.211  -0.218  1.00  0.00     0.278 C 
HETATM    4  O   UNL     1      42.639 -11.417  -0.330  1.00  0.00    -0.265 OA
HETATM    5  C   UNL     1      41.713 -13.336   0.742  1.00  0.00     0.146 C 
HETATM    6  C   UNL     1      40.520 -13.931   0.635  1.00  0.00     0.059 C 
ENDROOT
BRANCH   6   7
HETATM    7  C   UNL     1      39.927 -14.984   1.486  1.00  0.00     0.193 C 
HETATM    8  O   UNL     1      38.790 -14.831   1.925  1.00  0.00    -0.287 OA
BRANCH   7   9
HETATM    9  C   UNL     1      40.725 -16.164   1.915  1.00  0.00     0.015 A 
HETATM   10  C   UNL     1      40.940 -16.359   3.286  1.00  0.00     0.025 A 
HETATM   11  C   UNL     1      41.741 -17.420   3.744  1.00  0.00    -0.028 A 
HETATM   12  C   UNL     1      41.968 -17.602   5.220  1.00  0.00     0.051 C 
HETATM   13  C   UNL     1      42.328 -18.298   2.816  1.00  0.00     0.074 A 
HETATM   14  C   UNL     1      42.135 -18.084   1.449  1.00  0.00     0.038 A 
HETATM   15  C   UNL     1      41.351 -17.015   1.000  1.00  0.00     0.018 A 
BRANCH  13  16
HETATM   16  O   UNL     1      43.089 -19.308   3.345  1.00  0.00    -0.350 OA
BRANCH  16  17
HETATM   17  C   UNL     1      44.402 -19.492   2.813  1.00  0.00     0.179 C 
BRANCH  17  18
HETATM   18  C   UNL     1      44.691 -20.995   2.694  1.00  0.00     0.002 C 
HETATM   19  C   UNL     1      44.695 -21.676   4.065  1.00  0.00     0.011 C 
HETATM   20  C   UNL     1      43.669 -21.660   1.774  1.00  0.00     0.011 C 
ENDBRANCH  17  18
ENDBRANCH  16  17
ENDBRANCH  13  16
ENDBRANCH   7   9
ENDBRANCH   6   7
BRANCH   1  21
HETATM   21  C   UNL     1      39.495 -14.277  -1.690  1.00  0.00    -0.028 A 
HETATM   22  C   UNL     1      40.534 -15.092  -2.185  1.00  0.00     0.012 A 
HETATM   23  C   UNL     1      40.355 -15.850  -3.339  1.00  0.00     0.040 A 
HETATM   24  C   UNL     1      39.136 -15.805  -3.997  1.00  0.00     0.099 A 
HETATM   25  C   UNL     1      38.072 -15.034  -3.518  1.00  0.00     0.102 A 
HETATM   26  C   UNL     1      38.259 -14.267  -2.366  1.00  0.00     0.049 A 
BRANCH  24  27
HETATM   27  O   UNL     1      38.994 -16.545  -5.138  1.00  0.00    -0.358 OA
HETATM   28  H   UNL     1      38.789 -17.451  -4.835  1.00  0.00     0.218 HD
ENDBRANCH  24  27
BRANCH  25  29
HETATM   29  O   UNL     1      36.930 -15.094  -4.272  1.00  0.00    -0.349 OA
BRANCH  29  30
HETATM   30  C   UNL     1      36.227 -13.869  -4.476  1.00  0.00     0.171 C 
HETATM   31  C   UNL     1      35.554 -13.938  -5.835  1.00  0.00     0.034 C 
ENDBRANCH  29  30
ENDBRANCH  25  29
ENDBRANCH   1  21
BRANCH   5  32
HETATM   32  O   UNL     1      42.727 -13.588   1.614  1.00  0.00    -0.355 OA
HETATM   33  H   UNL     1      43.561 -13.509   1.110  1.00  0.00     0.218 HD
ENDBRANCH   5  32
BRANCH   2  34
HETATM   34  C   UNL     1      39.909 -11.073  -1.535  1.00  0.00     0.129 C 
BRANCH  34  35
HETATM   35  C   UNL     1      40.287 -10.869  -3.001  1.00  0.00     0.048 C 
BRANCH  35  36
HETATM   36  C   UNL     1      39.101 -11.088  -3.933  1.00  0.00     0.236 C 
BRANCH  36  37
HETATM   37  N   UNL     1      39.521 -10.831  -5.365  1.00  0.00    -0.067 N 
HETATM   38  H   UNL     1      39.589 -11.734  -5.850  1.00  0.00     0.280 HD
HETATM   39  C   UNL     1      38.508  -9.971  -6.129  1.00  0.00     0.261 C 
HETATM   40  C   UNL     1      39.001  -9.758  -7.564  1.00  0.00     0.195 C 
HETATM   41  O   UNL     1      40.299  -9.154  -7.579  1.00  0.00    -0.388 OA
HETATM   42  C   UNL     1      41.275  -9.964  -6.916  1.00  0.00     0.195 C 
HETATM   43  C   UNL     1      40.901 -10.181  -5.446  1.00  0.00     0.261 C 
ENDBRANCH  36  37
ENDBRANCH  35  36
ENDBRANCH  34  35
ENDBRANCH   2  34
TORSDOF 14
ENDMDL
MODEL 4
REMARK VINA RESULT:      -8.2      2.702      6.012
REMARK  14 active torsions:
REMARK  status: ('A' for Active; 'I' for Inactive)
REMARK    1  A    between atoms: C_2  and  O_3 
REMARK    2  A    between atoms: O_3  and  C_4 
REMARK    3  A    between atoms: C_5  and  O_6 
REMARK    4  A    between atoms: C_9  and  C_10 
REMARK    5  A    between atoms: N_11  and  C_12 
REMARK    6  A    between atoms: C_12  and  C_13 
REMARK    7  A    between atoms: C_13  and  C_14 
REMARK    8  A    between atoms: C_14  and  N_15 
REMARK    9  A    between atoms: C_24  and  O_25 
REMARK   10  A    between atoms: C_26  and  C_27 
REMARK   11  A    between atoms: C_27  and  C_28 
REMARK   12  A    between atoms: C_32  and  O_33 
REMARK   13  A    between atoms: O_33  and  C_34 
REMARK   14  A    between atoms: C_34  and  C_35 
ROOT
HETATM    1  C   UNL     1      41.395 -13.222   1.369  1.00  0.00     0.161 C 
HETATM    2  N   UNL     1      40.458 -12.100   1.375  1.00  0.00    -0.333 N 
HETATM    3  C   UNL     1      39.211 -12.494   0.935  1.00  0.00     0.278 C 
HETATM    4  O   UNL     1      38.199 -11.821   0.834  1.00  0.00    -0.265 OA
HETATM    5  C   UNL     1      39.300 -13.918   0.548  1.00  0.00     0.146 C 
HETATM    6  C   UNL     1      40.572 -14.291   0.721  1.00  0.00     0.059 C 
ENDROOT
BRANCH   6   7
HETATM    7  C   UNL     1      41.235 -15.548   0.316  1.00  0.00     0.193 C 
HETATM    8  O   UNL     1      41.092 -15.959  -0.832  1.00  0.00    -0.287 OA
BRANCH   7   9
HETATM    9  C   UNL     1      41.972 -16.379   1.305  1.00  0.00     0.015 A 
HETATM   10  C   UNL     1      41.329 -16.712   2.505  1.00  0.00     0.025 A 
HETATM   11  C   UNL     1      42.000 -17.440   3.503  1.00  0.00    -0.028 A 
HETATM   12  C   UNL     1      41.293 -17.773   4.789  1.00  0.00     0.051 C 
HETATM   13  C   UNL     1      43.331 -17.844   3.292  1.00  0.00     0.074 A 
HETATM   14  C   UNL     1      43.978 -17.486   2.107  1.00  0.00     0.038 A 
HETATM   15  C   UNL     1      43.308 -16.746   1.126  1.00  0.00     0.018 A 
BRANCH  13  16
HETATM   16  O   UNL     1      43.910 -18.553   4.312  1.00  0.00    -0.350 OA
BRANCH  16  17
HETATM   17  C   UNL     1      44.326 -19.891   4.031  1.00  0.00     0.179 C 
BRANCH  17  18
HETATM   18  C   UNL     1      44.730 -20.578   5.342  1.00  0.00     0.002 C 
HETATM   19  C   UNL     1      43.752 -20.251   6.472  1.00  0.00     0.011 C 
HETATM   20  C   UNL     1      44.823 -22.090   5.141  1.00  0.00     0.011 C 
ENDBRANCH  17  18
ENDBRANCH  16  17
ENDBRANCH  13  16
ENDBRANCH   7   9
ENDBRANCH   6   7
BRANCH   1  21
HETATM   21  C   UNL     1      41.841 -13.490   2.799  1.00  0.00    -0.028 A 
HETATM   22  C   UNL     1      43.194 -13.729   3.116  1.00  0.00     0.012 A 
HETATM   23  C   UNL     1      43.574 -14.060   4.415  1.00  0.00     0.040 A 
HETATM   24  C   UNL     1      42.605 -14.143   5.403  1.00  0.00     0.099 A 
HETATM   25  C   UNL     1      41.258 -13.881   5.134  1.00  0.00     0.102 A 
HETATM   26  C   UNL     1      40.881 -13.560   3.828  1.00  0.00     0.049 A 
BRANCH  24  27
HETATM   27  O   UNL     1      43.003 -14.488   6.665  1.00  0.00    -0.358 OA
HETATM   28  H   UNL     1      42.744 -15.424   6.771  1.00  0.00     0.218 HD
ENDBRANCH  24  27
BRANCH  25  29
HETATM   29  O   UNL     1      40.421 -13.998   6.211  1.00  0.00    -0.349 OA
BRANCH  29  30
HETATM   30  C   UNL     1      39.405 -13.005   6.350  1.00  0.00     0.171 C 
HETATM   31  C   UNL     1      40.054 -11.749   6.905  1.00  0.00     0.034 C 
ENDBRANCH  29  30
ENDBRANCH  25  29
ENDBRANCH   1  21
BRANCH   5  32
HETATM   32  O   UNL     1      38.260 -14.620   0.020  1.00  0.00    -0.355 OA
HETATM   33  H   UNL     1      37.669 -13.971  -0.412  1.00  0.00     0.218 HD
ENDBRANCH   5  32
BRANCH   2  34
HETATM   34  C   UNL     1      40.946 -10.729   1.372  1.00  0.00     0.129 C 
BRANCH  34  35
HETATM   35  C   UNL     1      41.842 -10.363   0.191  1.00  0.00     0.048 C 
BRANCH  35  36
HETATM   36  C   UNL     1      41.035 -10.052  -1.064  1.00  0.00     0.236 C 
BRANCH  36  37
HETATM   37  N   UNL     1      41.382 -11.044  -2.155  1.00  0.00    -0.067 N 
HETATM   38  H   UNL     1      41.625 -10.519  -3.004  1.00  0.00     0.280 HD
HETATM   39  C   UNL     1      42.588 -11.917  -1.790  1.00  0.00     0.261 C 
HETATM   40  C   UNL     1      42.878 -12.890  -2.939  1.00  0.00     0.195 C 
HETATM   41  O   UNL     1      41.732 -13.696  -3.234  1.00  0.00    -0.388 OA
HETATM   42  C   UNL     1      40.607 -12.904  -3.628  1.00  0.00     0.195 C 
HETATM   43  C   UNL     1      40.196 -11.938  -2.510  1.00  0.00     0.261 C 
ENDBRANCH  36  37
ENDBRANCH  35  36
ENDBRANCH  34  35
ENDBRANCH   2  34
TORSDOF 14
ENDMDL
MODEL 5
REMARK VINA RESULT:      -8.2      4.098      7.442
REMARK  14 active torsions:
REMARK  status: ('A' for Active; 'I' for Inactive)
REMARK    1  A    between atoms: C_2  and  O_3 
REMARK    2  A    between atoms: O_3  and  C_4 
REMARK    3  A    between atoms: C_5  and  O_6 
REMARK    4  A    between atoms: C_9  and  C_10 
REMARK    5  A    between atoms: N_11  and  C_12 
REMARK    6  A    between atoms: C_12  and  C_13 
REMARK    7  A    between atoms: C_13  and  C_14 
REMARK    8  A    between atoms: C_14  and  N_15 
REMARK    9  A    between atoms: C_24  and  O_25 
REMARK   10  A    between atoms: C_26  and  C_27 
REMARK   11  A    between atoms: C_27  and  C_28 
REMARK   12  A    between atoms: C_32  and  O_33 
REMARK   13  A    between atoms: O_33  and  C_34 
REMARK   14  A    between atoms: C_34  and  C_35 
ROOT
HETATM    1  C   UNL     1      41.907 -12.482   4.695  1.00  0.00     0.161 C 
HETATM    2  N   UNL     1      40.780 -11.855   5.381  1.00  0.00    -0.333 N 
HETATM    3  C   UNL     1      39.613 -12.008   4.659  1.00  0.00     0.278 C 
HETATM    4  O   UNL     1      38.492 -11.627   4.948  1.00  0.00    -0.265 OA
HETATM    5  C   UNL     1      39.952 -12.704   3.399  1.00  0.00     0.146 C 
HETATM    6  C   UNL     1      41.276 -12.889   3.399  1.00  0.00     0.059 C 
ENDROOT
BRANCH   6   7
HETATM    7  C   UNL     1      42.148 -13.369   2.307  1.00  0.00     0.193 C 
HETATM    8  O   UNL     1      42.521 -12.578   1.445  1.00  0.00    -0.287 OA
BRANCH   7   9
HETATM    9  C   UNL     1      42.481 -14.813   2.170  1.00  0.00     0.015 A 
HETATM   10  C   UNL     1      41.505 -15.675   1.654  1.00  0.00     0.025 A 
HETATM   11  C   UNL     1      41.742 -17.058   1.564  1.00  0.00    -0.028 A 
HETATM   12  C   UNL     1      40.672 -17.965   1.019  1.00  0.00     0.051 C 
HETATM   13  C   UNL     1      42.976 -17.580   1.990  1.00  0.00     0.074 A 
HETATM   14  C   UNL     1      43.936 -16.722   2.531  1.00  0.00     0.038 A 
HETATM   15  C   UNL     1      43.686 -15.349   2.633  1.00  0.00     0.018 A 
BRANCH  13  16
HETATM   16  O   UNL     1      43.127 -18.936   1.863  1.00  0.00    -0.350 OA
BRANCH  16  17
HETATM   17  C   UNL     1      44.300 -19.525   2.428  1.00  0.00     0.179 C 
BRANCH  17  18
HETATM   18  C   UNL     1      44.265 -21.042   2.198  1.00  0.00     0.002 C 
HETATM   19  C   UNL     1      44.609 -21.810   3.476  1.00  0.00     0.011 C 
HETATM   20  C   UNL     1      42.894 -21.467   1.675  1.00  0.00     0.011 C 
ENDBRANCH  17  18
ENDBRANCH  16  17
ENDBRANCH  13  16
ENDBRANCH   7   9
ENDBRANCH   6   7
BRANCH   1  21
HETATM   21  C   UNL     1      42.441 -13.610   5.567  1.00  0.00    -0.028 A 
HETATM   22  C   UNL     1      43.683 -13.505   6.227  1.00  0.00     0.012 A 
HETATM   23  C   UNL     1      44.197 -14.579   6.950  1.00  0.00     0.040 A 
HETATM   24  C   UNL     1      43.470 -15.757   7.022  1.00  0.00     0.099 A 
HETATM   25  C   UNL     1      42.221 -15.887   6.408  1.00  0.00     0.102 A 
HETATM   26  C   UNL     1      41.713 -14.811   5.676  1.00  0.00     0.049 A 
BRANCH  24  27
HETATM   27  O   UNL     1      44.008 -16.802   7.722  1.00  0.00    -0.358 OA
HETATM   28  H   UNL     1      43.262 -17.189   8.222  1.00  0.00     0.218 HD
ENDBRANCH  24  27
BRANCH  25  29
HETATM   29  O   UNL     1      41.620 -17.107   6.571  1.00  0.00    -0.349 OA
BRANCH  29  30
HETATM   30  C   UNL     1      41.503 -17.929   5.410  1.00  0.00     0.171 C 
HETATM   31  C   UNL     1      42.695 -18.868   5.380  1.00  0.00     0.034 C 
ENDBRANCH  29  30
ENDBRANCH  25  29
ENDBRANCH   1  21
BRANCH   5  32
HETATM   32  O   UNL     1      39.044 -12.975   2.422  1.00  0.00    -0.355 OA
HETATM   33  H   UNL     1      38.356 -13.544   2.823  1.00  0.00     0.218 HD
ENDBRANCH   5  32
BRANCH   2  34
HETATM   34  C   UNL     1      41.004 -10.832   6.390  1.00  0.00     0.129 C 
BRANCH  34  35
HETATM   35  C   UNL     1      40.526 -11.191   7.796  1.00  0.00     0.048 C 
BRANCH  35  36
HETATM   36  C   UNL     1      41.198 -10.338   8.864  1.00  0.00     0.236 C 
BRANCH  36  37
HETATM   37  N   UNL     1      42.113 -11.202   9.708  1.00  0.00    -0.067 N 
HETATM   38  H   UNL     1      41.750 -12.163   9.700  1.00  0.00     0.280 HD
HETATM   39  C   UNL     1      43.545 -11.244   9.164  1.00  0.00     0.261 C 
HETATM   40  C   UNL     1      44.406 -12.136  10.067  1.00  0.00     0.195 C 
HETATM   41  O   UNL     1      44.386 -11.670  11.421  1.00  0.00    -0.388 OA
HETATM   42  C   UNL     1      43.064 -11.671  11.968  1.00  0.00     0.195 C 
HETATM   43  C   UNL     1      42.137 -10.750  11.167  1.00  0.00     0.261 C 
ENDBRANCH  36  37
ENDBRANCH  35  36
ENDBRANCH  34  35
ENDBRANCH   2  34
TORSDOF 14
ENDMDL
MODEL 6
REMARK VINA RESULT:      -8.1      1.416      1.914
REMARK  14 active torsions:
REMARK  status: ('A' for Active; 'I' for Inactive)
REMARK    1  A    between atoms: C_2  and  O_3 
REMARK    2  A    between atoms: O_3  and  C_4 
REMARK    3  A    between atoms: C_5  and  O_6 
REMARK    4  A    between atoms: C_9  and  C_10 
REMARK    5  A    between atoms: N_11  and  C_12 
REMARK    6  A    between atoms: C_12  and  C_13 
REMARK    7  A    between atoms: C_13  and  C_14 
REMARK    8  A    between atoms: C_14  and  N_15 
REMARK    9  A    between atoms: C_24  and  O_25 
REMARK   10  A    between atoms: C_26  and  C_27 
REMARK   11  A    between atoms: C_27  and  C_28 
REMARK   12  A    between atoms: C_32  and  O_33 
REMARK   13  A    between atoms: O_33  and  C_34 
REMARK   14  A    between atoms: C_34  and  C_35 
ROOT
HETATM    1  C   UNL     1      39.654 -13.311  -0.498  1.00  0.00     0.161 C 
HETATM    2  N   UNL     1      40.449 -12.158  -0.913  1.00  0.00    -0.333 N 
HETATM    3  C   UNL     1      41.651 -12.115  -0.236  1.00  0.00     0.278 C 
HETATM    4  O   UNL     1      42.553 -11.303  -0.352  1.00  0.00    -0.265 OA
HETATM    5  C   UNL     1      41.664 -13.236   0.729  1.00  0.00     0.146 C 
HETATM    6  C   UNL     1      40.483 -13.853   0.625  1.00  0.00     0.059 C 
ENDROOT
BRANCH   6   7
HETATM    7  C   UNL     1      39.910 -14.913   1.480  1.00  0.00     0.193 C 
HETATM    8  O   UNL     1      38.784 -14.764   1.948  1.00  0.00    -0.287 OA
BRANCH   7   9
HETATM    9  C   UNL     1      40.718 -16.098   1.879  1.00  0.00     0.015 A 
HETATM   10  C   UNL     1      40.932 -16.329   3.244  1.00  0.00     0.025 A 
HETATM   11  C   UNL     1      41.741 -17.394   3.675  1.00  0.00    -0.028 A 
HETATM   12  C   UNL     1      41.967 -17.614   5.146  1.00  0.00     0.051 C 
HETATM   13  C   UNL     1      42.338 -18.242   2.724  1.00  0.00     0.074 A 
HETATM   14  C   UNL     1      42.146 -17.992   1.364  1.00  0.00     0.038 A 
HETATM   15  C   UNL     1      41.353 -16.918   0.943  1.00  0.00     0.018 A 
BRANCH  13  16
HETATM   16  O   UNL     1      43.106 -19.259   3.228  1.00  0.00    -0.350 OA
BRANCH  16  17
HETATM   17  C   UNL     1      44.385 -19.478   2.629  1.00  0.00     0.179 C 
BRANCH  17  18
HETATM   18  C   UNL     1      44.721 -20.974   2.690  1.00  0.00     0.002 C 
HETATM   19  C   UNL     1      44.635 -21.509   4.121  1.00  0.00     0.011 C 
HETATM   20  C   UNL     1      43.792 -21.764   1.771  1.00  0.00     0.011 C 
ENDBRANCH  17  18
ENDBRANCH  16  17
ENDBRANCH  13  16
ENDBRANCH   7   9
ENDBRANCH   6   7
BRANCH   1  21
HETATM   21  C   UNL     1      39.464 -14.228  -1.698  1.00  0.00    -0.028 A 
HETATM   22  C   UNL     1      40.510 -15.044  -2.175  1.00  0.00     0.012 A 
HETATM   23  C   UNL     1      40.347 -15.811  -3.326  1.00  0.00     0.040 A 
HETATM   24  C   UNL     1      39.136 -15.773  -3.999  1.00  0.00     0.099 A 
HETATM   25  C   UNL     1      38.065 -15.001  -3.539  1.00  0.00     0.102 A 
HETATM   26  C   UNL     1      38.236 -14.226  -2.390  1.00  0.00     0.049 A 
BRANCH  24  27
HETATM   27  O   UNL     1      39.010 -16.521  -5.137  1.00  0.00    -0.358 OA
HETATM   28  H   UNL     1      39.758 -17.150  -5.117  1.00  0.00     0.218 HD
ENDBRANCH  24  27
BRANCH  25  29
HETATM   29  O   UNL     1      36.933 -15.068  -4.307  1.00  0.00    -0.349 OA
BRANCH  29  30
HETATM   30  C   UNL     1      36.188 -13.861  -4.465  1.00  0.00     0.171 C 
HETATM   31  C   UNL     1      35.565 -13.875  -5.849  1.00  0.00     0.034 C 
ENDBRANCH  29  30
ENDBRANCH  25  29
ENDBRANCH   1  21
BRANCH   5  32
HETATM   32  O   UNL     1      42.683 -13.465   1.602  1.00  0.00    -0.355 OA
HETATM   33  H   UNL     1      43.510 -13.206   1.147  1.00  0.00     0.218 HD
ENDBRANCH   5  32
BRANCH   2  34
HETATM   34  C   UNL     1      39.817 -11.016  -1.557  1.00  0.00     0.129 C 
BRANCH  34  35
HETATM   35  C   UNL     1      39.664  -9.778  -0.676  1.00  0.00     0.048 C 
BRANCH  35  36
HETATM   36  C   UNL     1      38.705 -10.017   0.484  1.00  0.00     0.236 C 
BRANCH  36  37
HETATM   37  N   UNL     1      37.317 -10.305  -0.050  1.00  0.00    -0.067 N 
HETATM   38  H   UNL     1      37.397 -11.011  -0.792  1.00  0.00     0.280 HD
HETATM   39  C   UNL     1      36.381 -10.868   1.025  1.00  0.00     0.261 C 
HETATM   40  C   UNL     1      35.002 -11.134   0.408  1.00  0.00     0.195 C 
HETATM   41  O   UNL     1      34.458  -9.944  -0.173  1.00  0.00    -0.388 OA
HETATM   42  C   UNL     1      35.292  -9.429  -1.216  1.00  0.00     0.195 C 
HETATM   43  C   UNL     1      36.682  -9.068  -0.681  1.00  0.00     0.261 C 
ENDBRANCH  36  37
ENDBRANCH  35  36
ENDBRANCH  34  35
ENDBRANCH   2  34
TORSDOF 14
ENDMDL
MODEL 7
REMARK VINA RESULT:      -8.0      3.835      7.162
REMARK  14 active torsions:
REMARK  status: ('A' for Active; 'I' for Inactive)
REMARK    1  A    between atoms: C_2  and  O_3 
REMARK    2  A    between atoms: O_3  and  C_4 
REMARK    3  A    between atoms: C_5  and  O_6 
REMARK    4  A    between atoms: C_9  and  C_10 
REMARK    5  A    between atoms: N_11  and  C_12 
REMARK    6  A    between atoms: C_12  and  C_13 
REMARK    7  A    between atoms: C_13  and  C_14 
REMARK    8  A    between atoms: C_14  and  N_15 
REMARK    9  A    between atoms: C_24  and  O_25 
REMARK   10  A    between atoms: C_26  and  C_27 
REMARK   11  A    between atoms: C_27  and  C_28 
REMARK   12  A    between atoms: C_32  and  O_33 
REMARK   13  A    between atoms: O_33  and  C_34 
REMARK   14  A    between atoms: C_34  and  C_35 
ROOT
HETATM    1  C   UNL     1      41.102 -12.521   3.724  1.00  0.00     0.161 C 
HETATM    2  N   UNL     1      40.338 -11.540   4.492  1.00  0.00    -0.333 N 
HETATM    3  C   UNL     1      39.064 -11.393   3.981  1.00  0.00     0.278 C 
HETATM    4  O   UNL     1      38.165 -10.678   4.390  1.00  0.00    -0.265 OA
HETATM    5  C   UNL     1      38.961 -12.249   2.779  1.00  0.00     0.146 C 
HETATM    6  C   UNL     1      40.158 -12.816   2.600  1.00  0.00     0.059 C 
ENDROOT
BRANCH   6   7
HETATM    7  C   UNL     1      40.647 -13.611   1.454  1.00  0.00     0.193 C 
HETATM    8  O   UNL     1      40.603 -13.128   0.326  1.00  0.00    -0.287 OA
BRANCH   7   9
HETATM    9  C   UNL     1      41.080 -15.024   1.630  1.00  0.00     0.015 A 
HETATM   10  C   UNL     1      42.442 -15.323   1.500  1.00  0.00     0.025 A 
HETATM   11  C   UNL     1      42.899 -16.650   1.592  1.00  0.00    -0.028 A 
HETATM   12  C   UNL     1      44.365 -16.948   1.436  1.00  0.00     0.051 C 
HETATM   13  C   UNL     1      41.978 -17.687   1.822  1.00  0.00     0.074 A 
HETATM   14  C   UNL     1      40.617 -17.388   1.922  1.00  0.00     0.038 A 
HETATM   15  C   UNL     1      40.169 -16.067   1.813  1.00  0.00     0.018 A 
BRANCH  13  16
HETATM   16  O   UNL     1      42.505 -18.949   1.903  1.00  0.00    -0.350 OA
BRANCH  16  17
HETATM   17  C   UNL     1      43.103 -19.336   3.142  1.00  0.00     0.179 C 
BRANCH  17  18
HETATM   18  C   UNL     1      44.318 -20.230   2.859  1.00  0.00     0.002 C 
HETATM   19  C   UNL     1      44.969 -20.718   4.155  1.00  0.00     0.011 C 
HETATM   20  C   UNL     1      43.910 -21.418   1.989  1.00  0.00     0.011 C 
ENDBRANCH  17  18
ENDBRANCH  16  17
ENDBRANCH  13  16
ENDBRANCH   7   9
ENDBRANCH   6   7
BRANCH   1  21
HETATM   21  C   UNL     1      41.450 -13.689   4.636  1.00  0.00    -0.028 A 
HETATM   22  C   UNL     1      40.462 -14.585   5.094  1.00  0.00     0.012 A 
HETATM   23  C   UNL     1      40.782 -15.596   5.998  1.00  0.00     0.040 A 
HETATM   24  C   UNL     1      42.091 -15.720   6.438  1.00  0.00     0.099 A 
HETATM   25  C   UNL     1      43.103 -14.872   5.981  1.00  0.00     0.102 A 
HETATM   26  C   UNL     1      42.776 -13.853   5.083  1.00  0.00     0.049 A 
BRANCH  24  27
HETATM   27  O   UNL     1      42.373 -16.710   7.339  1.00  0.00    -0.358 OA
HETATM   28  H   UNL     1      43.241 -17.067   7.067  1.00  0.00     0.218 HD
ENDBRANCH  24  27
BRANCH  25  29
HETATM   29  O   UNL     1      44.345 -15.121   6.501  1.00  0.00    -0.349 OA
BRANCH  29  30
HETATM   30  C   UNL     1      45.184 -13.990   6.738  1.00  0.00     0.171 C 
HETATM   31  C   UNL     1      44.746 -13.350   8.044  1.00  0.00     0.034 C 
ENDBRANCH  29  30
ENDBRANCH  25  29
ENDBRANCH   1  21
BRANCH   5  32
HETATM   32  O   UNL     1      37.851 -12.310   1.993  1.00  0.00    -0.355 OA
HETATM   33  H   UNL     1      37.145 -11.818   2.459  1.00  0.00     0.218 HD
ENDBRANCH   5  32
BRANCH   2  34
HETATM   34  C   UNL     1      41.018 -10.558   5.322  1.00  0.00     0.129 C 
BRANCH  34  35
HETATM   35  C   UNL     1      41.449 -11.060   6.699  1.00  0.00     0.048 C 
BRANCH  35  36
HETATM   36  C   UNL     1      40.348 -10.889   7.739  1.00  0.00     0.236 C 
BRANCH  36  37
HETATM   37  N   UNL     1      40.886 -11.231   9.114  1.00  0.00    -0.067 N 
HETATM   38  H   UNL     1      40.966 -12.253   9.185  1.00  0.00     0.280 HD
HETATM   39  C   UNL     1      42.277 -10.640   9.362  1.00  0.00     0.261 C 
HETATM   40  C   UNL     1      42.752 -11.029  10.767  1.00  0.00     0.195 C 
HETATM   41  O   UNL     1      41.823 -10.591  11.766  1.00  0.00    -0.388 OA
HETATM   42  C   UNL     1      40.528 -11.172  11.584  1.00  0.00     0.195 C 
HETATM   43  C   UNL     1      39.937 -10.783  10.224  1.00  0.00     0.261 C 
ENDBRANCH  36  37
ENDBRANCH  35  36
ENDBRANCH  34  35
ENDBRANCH   2  34
TORSDOF 14
ENDMDL
MODEL 8
REMARK VINA RESULT:      -8.0      2.246      4.259
REMARK  14 active torsions:
REMARK  status: ('A' for Active; 'I' for Inactive)
REMARK    1  A    between atoms: C_2  and  O_3 
REMARK    2  A    between atoms: O_3  and  C_4 
REMARK    3  A    between atoms: C_5  and  O_6 
REMARK    4  A    between atoms: C_9  and  C_10 
REMARK    5  A    between atoms: N_11  and  C_12 
REMARK    6  A    between atoms: C_12  and  C_13 
REMARK    7  A    between atoms: C_13  and  C_14 
REMARK    8  A    between atoms: C_14  and  N_15 
REMARK    9  A    between atoms: C_24  and  O_25 
REMARK   10  A    between atoms: C_26  and  C_27 
REMARK   11  A    between atoms: C_27  and  C_28 
REMARK   12  A    between atoms: C_32  and  O_33 
REMARK   13  A    between atoms: O_33  and  C_34 
REMARK   14  A    between atoms: C_34  and  C_35 
ROOT
HETATM    1  C   UNL     1      40.772 -14.227   1.832  1.00  0.00     0.161 C 
HETATM    2  N   UNL     1      39.579 -13.397   1.987  1.00  0.00    -0.333 N 
HETATM    3  C   UNL     1      39.855 -12.266   2.729  1.00  0.00     0.278 C 
HETATM    4  O   UNL     1      39.099 -11.358   3.029  1.00  0.00    -0.265 OA
HETATM    5  C   UNL     1      41.268 -12.345   3.160  1.00  0.00     0.146 C 
HETATM    6  C   UNL     1      41.748 -13.509   2.712  1.00  0.00     0.059 C 
ENDROOT
BRANCH   6   7
HETATM    7  C   UNL     1      43.040 -14.161   3.016  1.00  0.00     0.193 C 
HETATM    8  O   UNL     1      44.034 -13.464   3.202  1.00  0.00    -0.287 OA
BRANCH   7   9
HETATM    9  C   UNL     1      43.178 -15.642   2.982  1.00  0.00     0.015 A 
HETATM   10  C   UNL     1      42.827 -16.369   4.127  1.00  0.00     0.025 A 
HETATM   11  C   UNL     1      42.999 -17.764   4.174  1.00  0.00    -0.028 A 
HETATM   12  C   UNL     1      42.628 -18.521   5.420  1.00  0.00     0.051 C 
HETATM   13  C   UNL     1      43.524 -18.437   3.057  1.00  0.00     0.074 A 
HETATM   14  C   UNL     1      43.899 -17.705   1.928  1.00  0.00     0.038 A 
HETATM   15  C   UNL     1      43.741 -16.315   1.895  1.00  0.00     0.018 A 
BRANCH  13  16
HETATM   16  O   UNL     1      43.654 -19.795   3.183  1.00  0.00    -0.350 OA
BRANCH  16  17
HETATM   17  C   UNL     1      44.924 -20.368   2.866  1.00  0.00     0.179 C 
BRANCH  17  18
HETATM   18  C   UNL     1      44.728 -21.833   2.453  1.00  0.00     0.002 C 
HETATM   19  C   UNL     1      44.592 -22.746   3.674  1.00  0.00     0.011 C 
HETATM   20  C   UNL     1      43.504 -21.970   1.549  1.00  0.00     0.011 C 
ENDBRANCH  17  18
ENDBRANCH  16  17
ENDBRANCH  13  16
ENDBRANCH   7   9
ENDBRANCH   6   7
BRANCH   1  21
HETATM   21  C   UNL     1      41.126 -14.298   0.353  1.00  0.00    -0.028 A 
HETATM   22  C   UNL     1      40.878 -15.459  -0.408  1.00  0.00     0.012 A 
HETATM   23  C   UNL     1      41.288 -15.540  -1.737  1.00  0.00     0.040 A 
HETATM   24  C   UNL     1      41.938 -14.459  -2.312  1.00  0.00     0.099 A 
HETATM   25  C   UNL     1      42.172 -13.279  -1.599  1.00  0.00     0.102 A 
HETATM   26  C   UNL     1      41.769 -13.206  -0.264  1.00  0.00     0.049 A 
BRANCH  24  27
HETATM   27  O   UNL     1      42.345 -14.573  -3.612  1.00  0.00    -0.358 OA
HETATM   28  H   UNL     1      42.131 -15.490  -3.871  1.00  0.00     0.218 HD
ENDBRANCH  24  27
BRANCH  25  29
HETATM   29  O   UNL     1      42.819 -12.298  -2.302  1.00  0.00    -0.349 OA
BRANCH  29  30
HETATM   30  C   UNL     1      42.907 -11.014  -1.685  1.00  0.00     0.171 C 
HETATM   31  C   UNL     1      42.748  -9.964  -2.769  1.00  0.00     0.034 C 
ENDBRANCH  29  30
ENDBRANCH  25  29
ENDBRANCH   1  21
BRANCH   5  32
HETATM   32  O   UNL     1      41.864 -11.415   3.955  1.00  0.00    -0.355 OA
HETATM   33  H   UNL     1      42.357 -10.810   3.364  1.00  0.00     0.218 HD
ENDBRANCH   5  32
BRANCH   2  34
HETATM   34  C   UNL     1      38.253 -13.966   1.801  1.00  0.00     0.129 C 
BRANCH  34  35
HETATM   35  C   UNL     1      37.400 -13.285   0.733  1.00  0.00     0.048 C 
BRANCH  35  36
HETATM   36  C   UNL     1      37.800 -13.709  -0.675  1.00  0.00     0.236 C 
BRANCH  36  37
HETATM   37  N   UNL     1      37.683 -12.528  -1.617  1.00  0.00    -0.067 N 
HETATM   38  H   UNL     1      36.822 -12.016  -1.389  1.00  0.00     0.280 HD
HETATM   39  C   UNL     1      38.854 -11.549  -1.478  1.00  0.00     0.261 C 
HETATM   40  C   UNL     1      38.663 -10.386  -2.458  1.00  0.00     0.195 C 
HETATM   41  O   UNL     1      38.549 -10.860  -3.805  1.00  0.00    -0.388 OA
HETATM   42  C   UNL     1      37.431 -11.737  -3.971  1.00  0.00     0.195 C 
HETATM   43  C   UNL     1      37.563 -12.972  -3.073  1.00  0.00     0.261 C 
ENDBRANCH  36  37
ENDBRANCH  35  36
ENDBRANCH  34  35
ENDBRANCH   2  34
TORSDOF 14
ENDMDL
MODEL 9
REMARK VINA RESULT:      -8.0      5.433      9.576
REMARK  14 active torsions:
REMARK  status: ('A' for Active; 'I' for Inactive)
REMARK    1  A    between atoms: C_2  and  O_3 
REMARK    2  A    between atoms: O_3  and  C_4 
REMARK    3  A    between atoms: C_5  and  O_6 
REMARK    4  A    between atoms: C_9  and  C_10 
REMARK    5  A    between atoms: N_11  and  C_12 
REMARK    6  A    between atoms: C_12  and  C_13 
REMARK    7  A    between atoms: C_13  and  C_14 
REMARK    8  A    between atoms: C_14  and  N_15 
REMARK    9  A    between atoms: C_24  and  O_25 
REMARK   10  A    between atoms: C_26  and  C_27 
REMARK   11  A    between atoms: C_27  and  C_28 
REMARK   12  A    between atoms: C_32  and  O_33 
REMARK   13  A    between atoms: O_33  and  C_34 
REMARK   14  A    between atoms: C_34  and  C_35 
ROOT
HETATM    1  C   UNL     1      44.014 -15.315   5.512  1.00  0.00     0.161 C 
HETATM    2  N   UNL     1      43.459 -16.660   5.641  1.00  0.00    -0.333 N 
HETATM    3  C   UNL     1      43.221 -16.973   6.964  1.00  0.00     0.278 C 
HETATM    4  O   UNL     1      42.746 -17.998   7.423  1.00  0.00    -0.265 OA
HETATM    5  C   UNL     1      43.686 -15.835   7.786  1.00  0.00     0.146 C 
HETATM    6  C   UNL     1      44.214 -14.938   6.947  1.00  0.00     0.059 C 
ENDROOT
BRANCH   6   7
HETATM    7  C   UNL     1      44.979 -13.712   7.258  1.00  0.00     0.193 C 
HETATM    8  O   UNL     1      46.051 -13.515   6.693  1.00  0.00    -0.287 OA
BRANCH   7   9
HETATM    9  C   UNL     1      44.531 -12.779   8.326  1.00  0.00     0.015 A 
HETATM   10  C   UNL     1      43.459 -11.918   8.052  1.00  0.00     0.025 A 
HETATM   11  C   UNL     1      43.036 -10.971   9.001  1.00  0.00    -0.028 A 
HETATM   12  C   UNL     1      41.892 -10.049   8.677  1.00  0.00     0.051 C 
HETATM   13  C   UNL     1      43.692 -10.890  10.242  1.00  0.00     0.074 A 
HETATM   14  C   UNL     1      44.778 -11.730  10.501  1.00  0.00     0.038 A 
HETATM   15  C   UNL     1      45.204 -12.658   9.545  1.00  0.00     0.018 A 
BRANCH  13  16
HETATM   16  O   UNL     1      43.215  -9.945  11.111  1.00  0.00    -0.350 OA
BRANCH  16  17
HETATM   17  C   UNL     1      43.479 -10.134  12.502  1.00  0.00     0.179 C 
BRANCH  17  18
HETATM   18  C   UNL     1      42.169  -9.991  13.288  1.00  0.00     0.002 C 
HETATM   19  C   UNL     1      41.205 -11.140  12.985  1.00  0.00     0.011 C 
HETATM   20  C   UNL     1      42.454  -9.919  14.787  1.00  0.00     0.011 C 
ENDBRANCH  17  18
ENDBRANCH  16  17
ENDBRANCH  13  16
ENDBRANCH   7   9
ENDBRANCH   6   7
BRANCH   1  21
HETATM   21  C   UNL     1      43.035 -14.459   4.721  1.00  0.00    -0.028 A 
HETATM   22  C   UNL     1      43.393 -13.882   3.485  1.00  0.00     0.012 A 
HETATM   23  C   UNL     1      42.517 -13.030   2.817  1.00  0.00     0.040 A 
HETATM   24  C   UNL     1      41.278 -12.759   3.376  1.00  0.00     0.099 A 
HETATM   25  C   UNL     1      40.875 -13.337   4.584  1.00  0.00     0.102 A 
HETATM   26  C   UNL     1      41.760 -14.183   5.255  1.00  0.00     0.049 A 
BRANCH  24  27
HETATM   27  O   UNL     1      40.445 -11.904   2.708  1.00  0.00    -0.358 OA
HETATM   28  H   UNL     1      40.935 -11.061   2.646  1.00  0.00     0.218 HD
ENDBRANCH  24  27
BRANCH  25  29
HETATM   29  O   UNL     1      39.623 -12.978   5.007  1.00  0.00    -0.349 OA
BRANCH  29  30
HETATM   30  C   UNL     1      39.536 -12.301   6.260  1.00  0.00     0.171 C 
HETATM   31  C   UNL     1      39.547 -10.808   5.985  1.00  0.00     0.034 C 
ENDBRANCH  29  30
ENDBRANCH  25  29
ENDBRANCH   1  21
BRANCH   5  32
HETATM   32  O   UNL     1      43.649 -15.825   9.147  1.00  0.00    -0.355 OA
HETATM   33  H   UNL     1      44.337 -15.198   9.446  1.00  0.00     0.218 HD
ENDBRANCH   5  32
BRANCH   2  34
HETATM   34  C   UNL     1      43.626 -17.635   4.574  1.00  0.00     0.129 C 
BRANCH  34  35
HETATM   35  C   UNL     1      42.350 -17.985   3.811  1.00  0.00     0.048 C 
BRANCH  35  36
HETATM   36  C   UNL     1      42.571 -17.995   2.303  1.00  0.00     0.236 C 
BRANCH  36  37
HETATM   37  N   UNL     1      41.504 -17.161   1.625  1.00  0.00    -0.067 N 
HETATM   38  H   UNL     1      40.935 -17.780   1.035  1.00  0.00     0.280 HD
HETATM   39  C   UNL     1      40.563 -16.484   2.628  1.00  0.00     0.261 C 
HETATM   40  C   UNL     1      39.515 -15.663   1.867  1.00  0.00     0.195 C 
HETATM   41  O   UNL     1      40.138 -14.694   1.016  1.00  0.00    -0.388 OA
HETATM   42  C   UNL     1      40.982 -15.307   0.036  1.00  0.00     0.195 C 
HETATM   43  C   UNL     1      42.109 -16.103   0.703  1.00  0.00     0.261 C 
ENDBRANCH  36  37
ENDBRANCH  35  36
ENDBRANCH  34  35
ENDBRANCH   2  34
TORSDOF 14
ENDMDL
MODEL 10
REMARK VINA RESULT:      -7.9      2.216      6.044
REMARK  14 active torsions:
REMARK  status: ('A' for Active; 'I' for Inactive)
REMARK    1  A    between atoms: C_2  and  O_3 
REMARK    2  A    between atoms: O_3  and  C_4 
REMARK    3  A    between atoms: C_5  and  O_6 
REMARK    4  A    between atoms: C_9  and  C_10 
REMARK    5  A    between atoms: N_11  and  C_12 
REMARK    6  A    between atoms: C_12  and  C_13 
REMARK    7  A    between atoms: C_13  and  C_14 
REMARK    8  A    between atoms: C_14  and  N_15 
REMARK    9  A    between atoms: C_24  and  O_25 
REMARK   10  A    between atoms: C_26  and  C_27 
REMARK   11  A    between atoms: C_27  and  C_28 
REMARK   12  A    between atoms: C_32  and  O_33 
REMARK   13  A    between atoms: O_33  and  C_34 
REMARK   14  A    between atoms: C_34  and  C_35 
ROOT
HETATM    1  C   UNL     1      41.140 -12.956   1.310  1.00  0.00     0.161 C 
HETATM    2  N   UNL     1      41.184 -11.563   0.871  1.00  0.00    -0.333 N 
HETATM    3  C   UNL     1      39.911 -11.046   0.733  1.00  0.00     0.278 C 
HETATM    4  O   UNL     1      39.588  -9.918   0.404  1.00  0.00    -0.265 OA
HETATM    5  C   UNL     1      38.951 -12.133   1.020  1.00  0.00     0.146 C 
HETATM    6  C   UNL     1      39.669 -13.235   1.262  1.00  0.00     0.059 C 
ENDROOT
BRANCH   6   7
HETATM    7  C   UNL     1      39.207 -14.629   1.423  1.00  0.00     0.193 C 
HETATM    8  O   UNL     1      38.003 -14.869   1.392  1.00  0.00    -0.287 OA
BRANCH   7   9
HETATM    9  C   UNL     1      40.165 -15.723   1.739  1.00  0.00     0.015 A 
HETATM   10  C   UNL     1      40.308 -16.116   3.076  1.00  0.00     0.025 A 
HETATM   11  C   UNL     1      41.245 -17.099   3.440  1.00  0.00    -0.028 A 
HETATM   12  C   UNL     1      41.390 -17.495   4.885  1.00  0.00     0.051 C 
HETATM   13  C   UNL     1      42.044 -17.698   2.450  1.00  0.00     0.074 A 
HETATM   14  C   UNL     1      41.920 -17.282   1.123  1.00  0.00     0.038 A 
HETATM   15  C   UNL     1      40.996 -16.291   0.771  1.00  0.00     0.018 A 
BRANCH  13  16
HETATM   16  O   UNL     1      42.928 -18.649   2.888  1.00  0.00    -0.350 OA
BRANCH  16  17
HETATM   17  C   UNL     1      43.455 -19.556   1.919  1.00  0.00     0.179 C 
BRANCH  17  18
HETATM   18  C   UNL     1      44.544 -20.417   2.573  1.00  0.00     0.002 C 
HETATM   19  C   UNL     1      44.624 -20.169   4.081  1.00  0.00     0.011 C 
HETATM   20  C   UNL     1      44.292 -21.897   2.290  1.00  0.00     0.011 C 
ENDBRANCH  17  18
ENDBRANCH  16  17
ENDBRANCH  13  16
ENDBRANCH   7   9
ENDBRANCH   6   7
BRANCH   1  21
HETATM   21  C   UNL     1      41.800 -13.056   2.678  1.00  0.00    -0.028 A 
HETATM   22  C   UNL     1      43.008 -13.760   2.863  1.00  0.00     0.012 A 
HETATM   23  C   UNL     1      43.553 -13.916   4.135  1.00  0.00     0.040 A 
HETATM   24  C   UNL     1      42.898 -13.363   5.225  1.00  0.00     0.099 A 
HETATM   25  C   UNL     1      41.716 -12.631   5.077  1.00  0.00     0.102 A 
HETATM   26  C   UNL     1      41.168 -12.485   3.801  1.00  0.00     0.049 A 
BRANCH  24  27
HETATM   27  O   UNL     1      43.445 -13.548   6.464  1.00  0.00    -0.358 OA
HETATM   28  H   UNL     1      43.949 -14.384   6.402  1.00  0.00     0.218 HD
ENDBRANCH  24  27
BRANCH  25  29
HETATM   29  O   UNL     1      41.190 -12.142   6.242  1.00  0.00    -0.349 OA
BRANCH  29  30
HETATM   30  C   UNL     1      39.772 -12.219   6.392  1.00  0.00     0.171 C 
HETATM   31  C   UNL     1      39.417 -11.675   7.764  1.00  0.00     0.034 C 
ENDBRANCH  29  30
ENDBRANCH  25  29
ENDBRANCH   1  21
BRANCH   5  32
HETATM   32  O   UNL     1      37.601 -11.987   0.929  1.00  0.00    -0.355 OA
HETATM   33  H   UNL     1      37.259 -11.927   1.844  1.00  0.00     0.218 HD
ENDBRANCH   5  32
BRANCH   2  34
HETATM   34  C   UNL     1      42.372 -11.029   0.224  1.00  0.00     0.129 C 
BRANCH  34  35
HETATM   35  C   UNL     1      42.777 -11.733  -1.070  1.00  0.00     0.048 C 
BRANCH  35  36
HETATM   36  C   UNL     1      41.937 -11.276  -2.257  1.00  0.00     0.236 C 
BRANCH  36  37
HETATM   37  N   UNL     1      41.175 -12.454  -2.827  1.00  0.00    -0.067 N 
HETATM   38  H   UNL     1      41.348 -12.492  -3.839  1.00  0.00     0.280 HD
HETATM   39  C   UNL     1      41.629 -13.791  -2.230  1.00  0.00     0.261 C 
HETATM   40  C   UNL     1      40.816 -14.930  -2.856  1.00  0.00     0.195 C 
HETATM   41  O   UNL     1      39.412 -14.731  -2.657  1.00  0.00    -0.388 OA
HETATM   42  C   UNL     1      38.954 -13.513  -3.252  1.00  0.00     0.195 C 
HETATM   43  C   UNL     1      39.667 -12.301  -2.640  1.00  0.00     0.261 C 
ENDBRANCH  36  37
ENDBRANCH  35  36
ENDBRANCH  34  35
ENDBRANCH   2  34
TORSDOF 14
ENDMDL
