MODEL 1
REMARK VINA RESULT:      -8.4      0.000      0.000
REMARK  5 active torsions:
REMARK  status: ('A' for Active; 'I' for Inactive)
REMARK    1  A    between atoms: C_7  and  C_8 
REMARK    2  A    between atoms: N_9  and  N_10 
REMARK       I    between atoms: N_10  and  C_11 
REMARK    3  A    between atoms: C_11  and  C_12 
REMARK    4  A    between atoms: C_12  and  N_13 
REMARK    5  A    between atoms: N_13  and  C_14 
ROOT
HETATM    1  N   UNL     1      44.029 -17.097   5.913  1.00  0.00    -0.246 N 
HETATM    2  C   UNL     1      43.531 -17.988   6.874  1.00  0.00     0.250 C 
HETATM    3  O   UNL     1      43.107 -17.669   7.982  1.00  0.00    -0.270 OA
HETATM    4  H   UNL     1      44.824 -17.427   5.375  1.00  0.00     0.192 HD
ENDROOT
BRANCH   1   5
HETATM    5  N   UNL     1      44.063 -15.747   6.152  1.00  0.00    -0.184 NA
HETATM    6  C   UNL     1      43.144 -14.997   5.610  1.00  0.00     0.153 C 
BRANCH   6   7
HETATM    7  C   UNL     1      42.189 -15.386   4.582  1.00  0.00     0.018 A 
HETATM    8  C   UNL     1      40.813 -15.270   4.730  1.00  0.00     0.018 A 
HETATM    9  C   UNL     1      39.998 -14.776   5.870  1.00  0.00     0.069 C 
HETATM   10  N   UNL     1      40.227 -15.781   3.600  1.00  0.00    -0.358 N 
HETATM   11  H   UNL     1      39.231 -15.863   3.447  1.00  0.00     0.166 HD
HETATM   12  C   UNL     1      41.181 -16.161   2.688  1.00  0.00     0.043 A 
HETATM   13  C   UNL     1      42.425 -15.894   3.260  1.00  0.00     0.004 A 
HETATM   14  C   UNL     1      41.032 -16.712   1.409  1.00  0.00     0.030 A 
HETATM   15  C   UNL     1      43.578 -16.150   2.483  1.00  0.00     0.014 A 
HETATM   16  C   UNL     1      43.449 -16.700   1.203  1.00  0.00     0.001 A 
HETATM   17  C   UNL     1      42.192 -16.983   0.679  1.00  0.00     0.002 A 
ENDBRANCH   6   7
ENDBRANCH   1   5
BRANCH   2  18
HETATM   18  C   UNL     1      43.579 -19.437   6.369  1.00  0.00     0.197 C 
BRANCH  18  19
HETATM   19  N   UNL     1      44.715 -19.667   5.473  1.00  0.00    -0.283 NA
HETATM   20  H   UNL     1      45.312 -18.842   5.381  1.00  0.00     0.128 HD
BRANCH  19  21
HETATM   21  C   UNL     1      44.466 -20.297   4.243  1.00  0.00     0.030 A 
HETATM   22  C   UNL     1      44.715 -21.674   4.066  1.00  0.00     0.055 A 
HETATM   23 CL   UNL     1      45.432 -22.611   5.333  1.00  0.00    -0.082 Cl
HETATM   24  C   UNL     1      44.423 -22.318   2.858  1.00  0.00     0.026 A 
HETATM   25  C   UNL     1      43.853 -21.603   1.808  1.00  0.00     0.002 A 
HETATM   26  C   UNL     1      43.569 -20.249   1.970  1.00  0.00     0.002 A 
HETATM   27  C   UNL     1      43.865 -19.608   3.177  1.00  0.00     0.025 A 
ENDBRANCH  19  21
ENDBRANCH  18  19
ENDBRANCH   2  18
TORSDOF 5
ENDMDL
MODEL 2
REMARK VINA RESULT:      -8.2      2.331      4.271
REMARK  5 active torsions:
REMARK  status: ('A' for Active; 'I' for Inactive)
REMARK    1  A    between atoms: C_7  and  C_8 
REMARK    2  A    between atoms: N_9  and  N_10 
REMARK       I    between atoms: N_10  and  C_11 
REMARK    3  A    between atoms: C_11  and  C_12 
REMARK    4  A    between atoms: C_12  and  N_13 
REMARK    5  A    between atoms: N_13  and  C_14 
ROOT
HETATM    1  N   UNL     1      41.611 -17.274   2.370  1.00  0.00    -0.246 N 
HETATM    2  C   UNL     1      42.369 -17.058   1.210  1.00  0.00     0.250 C 
HETATM    3  O   UNL     1      42.109 -16.228   0.341  1.00  0.00    -0.270 OA
HETATM    4  H   UNL     1      41.527 -18.241   2.667  1.00  0.00     0.192 HD
ENDROOT
BRANCH   1   5
HETATM    5  N   UNL     1      40.489 -16.530   2.629  1.00  0.00    -0.184 NA
HETATM    6  C   UNL     1      40.592 -15.513   3.440  1.00  0.00     0.153 C 
BRANCH   6   7
HETATM    7  C   UNL     1      41.724 -15.186   4.295  1.00  0.00     0.018 A 
HETATM    8  C   UNL     1      42.563 -14.102   4.075  1.00  0.00     0.018 A 
HETATM    9  C   UNL     1      42.559 -13.073   3.003  1.00  0.00     0.069 C 
HETATM   10  N   UNL     1      43.545 -14.133   5.033  1.00  0.00    -0.358 N 
HETATM   11  H   UNL     1      44.320 -13.486   5.093  1.00  0.00     0.166 HD
HETATM   12  C   UNL     1      43.329 -15.163   5.915  1.00  0.00     0.043 A 
HETATM   13  C   UNL     1      42.173 -15.824   5.501  1.00  0.00     0.004 A 
HETATM   14  C   UNL     1      44.066 -15.550   7.042  1.00  0.00     0.030 A 
HETATM   15  C   UNL     1      41.707 -16.899   6.291  1.00  0.00     0.014 A 
HETATM   16  C   UNL     1      42.429 -17.300   7.421  1.00  0.00     0.001 A 
HETATM   17  C   UNL     1      43.597 -16.636   7.784  1.00  0.00     0.002 A 
ENDBRANCH   6   7
ENDBRANCH   1   5
BRANCH   2  18
HETATM   18  C   UNL     1      43.582 -17.996   1.152  1.00  0.00     0.197 C 
BRANCH  18  19
HETATM   19  N   UNL     1      44.077 -18.332   2.490  1.00  0.00    -0.283 NA
HETATM   20  H   UNL     1      44.866 -17.745   2.772  1.00  0.00     0.128 HD
BRANCH  19  21
HETATM   21  C   UNL     1      44.272 -19.689   2.799  1.00  0.00     0.030 A 
HETATM   22  C   UNL     1      44.656 -20.092   4.094  1.00  0.00     0.055 A 
HETATM   23 CL   UNL     1      44.999 -18.919   5.319  1.00  0.00    -0.082 Cl
HETATM   24  C   UNL     1      44.803 -21.445   4.421  1.00  0.00     0.026 A 
HETATM   25  C   UNL     1      44.546 -22.425   3.465  1.00  0.00     0.002 A 
HETATM   26  C   UNL     1      44.135 -22.050   2.188  1.00  0.00     0.002 A 
HETATM   27  C   UNL     1      43.993 -20.698   1.864  1.00  0.00     0.025 A 
ENDBRANCH  19  21
ENDBRANCH  18  19
ENDBRANCH   2  18
TORSDOF 5
ENDMDL
MODEL 3
REMARK VINA RESULT:      -8.1      1.653      2.304
REMARK  5 active torsions:
REMARK  status: ('A' for Active; 'I' for Inactive)
REMARK    1  A    between atoms: C_7  and  C_8 
REMARK    2  A    between atoms: N_9  and  N_10 
REMARK       I    between atoms: N_10  and  C_11 
REMARK    3  A    between atoms: C_11  and  C_12 
REMARK    4  A    between atoms: C_12  and  N_13 
REMARK    5  A    between atoms: N_13  and  C_14 
ROOT
HETATM    1  N   UNL     1      42.281 -17.642   6.347  1.00  0.00    -0.246 N 
HETATM    2  C   UNL     1      43.378 -17.723   7.217  1.00  0.00     0.250 C 
HETATM    3  O   UNL     1      43.514 -17.066   8.247  1.00  0.00    -0.270 OA
HETATM    4  H   UNL     1      42.498 -17.718   5.358  1.00  0.00     0.192 HD
ENDROOT
BRANCH   1   5
HETATM    5  N   UNL     1      41.234 -16.797   6.608  1.00  0.00    -0.184 NA
HETATM    6  C   UNL     1      40.889 -15.935   5.693  1.00  0.00     0.153 C 
BRANCH   6   7
HETATM    7  C   UNL     1      41.626 -15.598   4.483  1.00  0.00     0.018 A 
HETATM    8  C   UNL     1      42.669 -14.683   4.450  1.00  0.00     0.018 A 
HETATM    9  C   UNL     1      43.269 -13.856   5.530  1.00  0.00     0.069 C 
HETATM   10  N   UNL     1      43.087 -14.573   3.149  1.00  0.00    -0.358 N 
HETATM   11  H   UNL     1      43.810 -13.946   2.820  1.00  0.00     0.166 HD
HETATM   12  C   UNL     1      42.396 -15.442   2.342  1.00  0.00     0.043 A 
HETATM   13  C   UNL     1      41.493 -16.127   3.154  1.00  0.00     0.004 A 
HETATM   14  C   UNL     1      42.508 -15.672   0.964  1.00  0.00     0.030 A 
HETATM   15  C   UNL     1      40.696 -17.131   2.558  1.00  0.00     0.014 A 
HETATM   16  C   UNL     1      40.794 -17.375   1.183  1.00  0.00     0.001 A 
HETATM   17  C   UNL     1      41.684 -16.648   0.399  1.00  0.00     0.002 A 
ENDBRANCH   6   7
ENDBRANCH   1   5
BRANCH   2  18
HETATM   18  C   UNL     1      44.409 -18.748   6.723  1.00  0.00     0.197 C 
BRANCH  18  19
HETATM   19  N   UNL     1      44.509 -18.762   5.261  1.00  0.00    -0.283 NA
HETATM   20  H   UNL     1      43.891 -18.075   4.822  1.00  0.00     0.128 HD
BRANCH  19  21
HETATM   21  C   UNL     1      44.488 -20.007   4.612  1.00  0.00     0.030 A 
HETATM   22  C   UNL     1      44.341 -20.095   3.212  1.00  0.00     0.055 A 
HETATM   23 CL   UNL     1      44.080 -18.673   2.260  1.00  0.00    -0.082 Cl
HETATM   24  C   UNL     1      44.368 -21.330   2.553  1.00  0.00     0.026 A 
HETATM   25  C   UNL     1      44.568 -22.502   3.279  1.00  0.00     0.002 A 
HETATM   26  C   UNL     1      44.747 -22.436   4.658  1.00  0.00     0.002 A 
HETATM   27  C   UNL     1      44.715 -21.202   5.313  1.00  0.00     0.025 A 
ENDBRANCH  19  21
ENDBRANCH  18  19
ENDBRANCH   2  18
TORSDOF 5
ENDMDL
MODEL 4
REMARK VINA RESULT:      -8.0      3.003      5.043
REMARK  5 active torsions:
REMARK  status: ('A' for Active; 'I' for Inactive)
REMARK    1  A    between atoms: C_7  and  C_8 
REMARK    2  A    between atoms: N_9  and  N_10 
REMARK       I    between atoms: N_10  and  C_11 
REMARK    3  A    between atoms: C_11  and  C_12 
REMARK    4  A    between atoms: C_12  and  N_13 
REMARK    5  A    between atoms: N_13  and  C_14 
ROOT
HETATM    1  N   UNL     1      44.386 -16.844   6.369  1.00  0.00    -0.246 N 
HETATM    2  C   UNL     1      44.039 -16.006   7.438  1.00  0.00     0.250 C 
HETATM    3  O   UNL     1      43.491 -16.374   8.476  1.00  0.00    -0.270 OA
HETATM    4  H   UNL     1      44.262 -16.450   5.442  1.00  0.00     0.192 HD
ENDROOT
BRANCH   1   5
HETATM    5  N   UNL     1      44.140 -18.192   6.420  1.00  0.00    -0.184 NA
HETATM    6  C   UNL     1      43.322 -18.708   5.544  1.00  0.00     0.153 C 
BRANCH   6   7
HETATM    7  C   UNL     1      42.447 -17.986   4.632  1.00  0.00     0.018 A 
HETATM    8  C   UNL     1      41.276 -17.355   5.030  1.00  0.00     0.018 A 
HETATM    9  C   UNL     1      40.634 -17.254   6.366  1.00  0.00     0.069 C 
HETATM   10  N   UNL     1      40.682 -16.832   3.910  1.00  0.00    -0.358 N 
HETATM   11  H   UNL     1      39.792 -16.352   3.893  1.00  0.00     0.166 HD
HETATM   12  C   UNL     1      41.466 -17.041   2.802  1.00  0.00     0.043 A 
HETATM   13  C   UNL     1      42.600 -17.733   3.226  1.00  0.00     0.004 A 
HETATM   14  C   UNL     1      41.257 -16.665   1.469  1.00  0.00     0.030 A 
HETATM   15  C   UNL     1      43.599 -18.018   2.267  1.00  0.00     0.014 A 
HETATM   16  C   UNL     1      43.408 -17.649   0.930  1.00  0.00     0.001 A 
HETATM   17  C   UNL     1      42.247 -16.988   0.539  1.00  0.00     0.002 A 
ENDBRANCH   6   7
ENDBRANCH   1   5
BRANCH   2  18
HETATM   18  C   UNL     1      44.430 -14.549   7.156  1.00  0.00     0.197 C 
BRANCH  18  19
HETATM   19  N   UNL     1      43.267 -13.727   6.812  1.00  0.00    -0.283 NA
HETATM   20  H   UNL     1      42.485 -13.870   7.457  1.00  0.00     0.128 HD
BRANCH  19  21
HETATM   21  C   UNL     1      42.863 -13.686   5.468  1.00  0.00     0.030 A 
HETATM   22  C   UNL     1      41.563 -13.273   5.111  1.00  0.00     0.055 A 
HETATM   23 CL   UNL     1      40.390 -12.898   6.327  1.00  0.00    -0.082 Cl
HETATM   24  C   UNL     1      41.170 -13.183   3.770  1.00  0.00     0.026 A 
HETATM   25  C   UNL     1      42.078 -13.482   2.757  1.00  0.00     0.002 A 
HETATM   26  C   UNL     1      43.376 -13.862   3.086  1.00  0.00     0.002 A 
HETATM   27  C   UNL     1      43.764 -13.955   4.426  1.00  0.00     0.025 A 
ENDBRANCH  19  21
ENDBRANCH  18  19
ENDBRANCH   2  18
TORSDOF 5
ENDMDL
MODEL 5
REMARK VINA RESULT:      -7.9      2.863      4.183
REMARK  5 active torsions:
REMARK  status: ('A' for Active; 'I' for Inactive)
REMARK    1  A    between atoms: C_7  and  C_8 
REMARK    2  A    between atoms: N_9  and  N_10 
REMARK       I    between atoms: N_10  and  C_11 
REMARK    3  A    between atoms: C_11  and  C_12 
REMARK    4  A    between atoms: C_12  and  N_13 
REMARK    5  A    between atoms: N_13  and  C_14 
ROOT
HETATM    1  N   UNL     1      43.102 -13.786   3.661  1.00  0.00    -0.246 N 
HETATM    2  C   UNL     1      42.703 -13.240   4.889  1.00  0.00     0.250 C 
HETATM    3  O   UNL     1      42.055 -12.204   5.025  1.00  0.00    -0.270 OA
HETATM    4  H   UNL     1      44.024 -14.211   3.647  1.00  0.00     0.192 HD
ENDROOT
BRANCH   1   5
HETATM    5  N   UNL     1      42.768 -13.181   2.477  1.00  0.00    -0.184 NA
HETATM    6  C   UNL     1      41.999 -13.828   1.645  1.00  0.00     0.153 C 
BRANCH   6   7
HETATM    7  C   UNL     1      41.616 -15.231   1.715  1.00  0.00     0.018 A 
HETATM    8  C   UNL     1      40.298 -15.666   1.726  1.00  0.00     0.018 A 
HETATM    9  C   UNL     1      39.023 -14.903   1.686  1.00  0.00     0.069 C 
HETATM   10  N   UNL     1      40.310 -17.031   1.857  1.00  0.00    -0.358 N 
HETATM   11  H   UNL     1      39.488 -17.616   1.935  1.00  0.00     0.166 HD
HETATM   12  C   UNL     1      41.598 -17.507   1.859  1.00  0.00     0.043 A 
HETATM   13  C   UNL     1      42.443 -16.405   1.736  1.00  0.00     0.004 A 
HETATM   14  C   UNL     1      42.070 -18.823   1.955  1.00  0.00     0.030 A 
HETATM   15  C   UNL     1      43.834 -16.643   1.656  1.00  0.00     0.014 A 
HETATM   16  C   UNL     1      44.324 -17.951   1.750  1.00  0.00     0.001 A 
HETATM   17  C   UNL     1      43.451 -19.024   1.905  1.00  0.00     0.002 A 
ENDBRANCH   6   7
ENDBRANCH   1   5
BRANCH   2  18
HETATM   18  C   UNL     1      43.179 -14.103   6.066  1.00  0.00     0.197 C 
BRANCH  18  19
HETATM   19  N   UNL     1      42.413 -15.348   6.176  1.00  0.00    -0.283 NA
HETATM   20  H   UNL     1      41.721 -15.314   6.929  1.00  0.00     0.128 HD
BRANCH  19  21
HETATM   21  C   UNL     1      43.119 -16.561   6.139  1.00  0.00     0.030 A 
HETATM   22  C   UNL     1      42.512 -17.742   5.662  1.00  0.00     0.055 A 
HETATM   23 CL   UNL     1      40.844 -17.754   5.201  1.00  0.00    -0.082 Cl
HETATM   24  C   UNL     1      43.226 -18.943   5.577  1.00  0.00     0.026 A 
HETATM   25  C   UNL     1      44.569 -18.983   5.944  1.00  0.00     0.002 A 
HETATM   26  C   UNL     1      45.197 -17.822   6.388  1.00  0.00     0.002 A 
HETATM   27  C   UNL     1      44.480 -16.625   6.476  1.00  0.00     0.025 A 
ENDBRANCH  19  21
ENDBRANCH  18  19
ENDBRANCH   2  18
TORSDOF 5
ENDMDL
MODEL 6
REMARK VINA RESULT:      -7.6      2.513      5.022
REMARK  5 active torsions:
REMARK  status: ('A' for Active; 'I' for Inactive)
REMARK    1  A    between atoms: C_7  and  C_8 
REMARK    2  A    between atoms: N_9  and  N_10 
REMARK       I    between atoms: N_10  and  C_11 
REMARK    3  A    between atoms: C_11  and  C_12 
REMARK    4  A    between atoms: C_12  and  N_13 
REMARK    5  A    between atoms: N_13  and  C_14 
ROOT
HETATM    1  N   UNL     1      40.382 -16.667   3.466  1.00  0.00    -0.246 N 
HETATM    2  C   UNL     1      40.463 -15.496   4.234  1.00  0.00     0.250 C 
HETATM    3  O   UNL     1      40.496 -14.354   3.781  1.00  0.00    -0.270 OA
HETATM    4  H   UNL     1      40.920 -17.456   3.808  1.00  0.00     0.192 HD
ENDROOT
BRANCH   1   5
HETATM    5  N   UNL     1      40.315 -16.610   2.098  1.00  0.00    -0.184 NA
HETATM    6  C   UNL     1      41.243 -17.211   1.406  1.00  0.00     0.153 C 
BRANCH   6   7
HETATM    7  C   UNL     1      42.491 -17.766   1.910  1.00  0.00     0.018 A 
HETATM    8  C   UNL     1      43.500 -16.998   2.476  1.00  0.00     0.018 A 
HETATM    9  C   UNL     1      43.594 -15.531   2.697  1.00  0.00     0.069 C 
HETATM   10  N   UNL     1      44.541 -17.836   2.782  1.00  0.00    -0.358 N 
HETATM   11  H   UNL     1      45.429 -17.544   3.170  1.00  0.00     0.166 HD
HETATM   12  C   UNL     1      44.215 -19.140   2.499  1.00  0.00     0.043 A 
HETATM   13  C   UNL     1      42.920 -19.136   1.982  1.00  0.00     0.004 A 
HETATM   14  C   UNL     1      44.965 -20.310   2.668  1.00  0.00     0.030 A 
HETATM   15  C   UNL     1      42.331 -20.380   1.664  1.00  0.00     0.014 A 
HETATM   16  C   UNL     1      43.064 -21.561   1.826  1.00  0.00     0.001 A 
HETATM   17  C   UNL     1      44.367 -21.522   2.315  1.00  0.00     0.002 A 
ENDBRANCH   6   7
ENDBRANCH   1   5
BRANCH   2  18
HETATM   18  C   UNL     1      40.506 -15.815   5.735  1.00  0.00     0.197 C 
BRANCH  18  19
HETATM   19  N   UNL     1      41.837 -15.587   6.304  1.00  0.00    -0.283 NA
HETATM   20  H   UNL     1      42.231 -14.684   6.025  1.00  0.00     0.128 HD
BRANCH  19  21
HETATM   21  C   UNL     1      42.772 -16.633   6.233  1.00  0.00     0.030 A 
HETATM   22  C   UNL     1      44.135 -16.412   6.522  1.00  0.00     0.055 A 
HETATM   23 CL   UNL     1      44.715 -14.820   6.875  1.00  0.00    -0.082 Cl
HETATM   24  C   UNL     1      45.062 -17.460   6.502  1.00  0.00     0.026 A 
HETATM   25  C   UNL     1      44.641 -18.756   6.215  1.00  0.00     0.002 A 
HETATM   26  C   UNL     1      43.295 -19.003   5.958  1.00  0.00     0.002 A 
HETATM   27  C   UNL     1      42.372 -17.953   5.975  1.00  0.00     0.025 A 
ENDBRANCH  19  21
ENDBRANCH  18  19
ENDBRANCH   2  18
TORSDOF 5
ENDMDL
MODEL 7
REMARK VINA RESULT:      -7.5      2.511      5.836
REMARK  5 active torsions:
REMARK  status: ('A' for Active; 'I' for Inactive)
REMARK    1  A    between atoms: C_7  and  C_8 
REMARK    2  A    between atoms: N_9  and  N_10 
REMARK       I    between atoms: N_10  and  C_11 
REMARK    3  A    between atoms: C_11  and  C_12 
REMARK    4  A    between atoms: C_12  and  N_13 
REMARK    5  A    between atoms: N_13  and  C_14 
ROOT
HETATM    1  N   UNL     1      42.797 -18.026   6.826  1.00  0.00    -0.246 N 
HETATM    2  C   UNL     1      42.323 -16.709   6.729  1.00  0.00     0.250 C 
HETATM    3  O   UNL     1      42.994 -15.699   6.930  1.00  0.00    -0.270 OA
HETATM    4  H   UNL     1      42.147 -18.699   7.218  1.00  0.00     0.192 HD
ENDROOT
BRANCH   1   5
HETATM    5  N   UNL     1      44.104 -18.283   7.151  1.00  0.00    -0.184 NA
HETATM    6  C   UNL     1      44.910 -18.687   6.209  1.00  0.00     0.153 C 
BRANCH   6   7
HETATM    7  C   UNL     1      44.544 -19.117   4.867  1.00  0.00     0.018 A 
HETATM    8  C   UNL     1      44.512 -20.447   4.470  1.00  0.00     0.018 A 
HETATM    9  C   UNL     1      44.823 -21.692   5.221  1.00  0.00     0.069 C 
HETATM   10  N   UNL     1      44.185 -20.478   3.139  1.00  0.00    -0.358 N 
HETATM   11  H   UNL     1      44.129 -21.314   2.572  1.00  0.00     0.166 HD
HETATM   12  C   UNL     1      43.932 -19.211   2.672  1.00  0.00     0.043 A 
HETATM   13  C   UNL     1      44.115 -18.335   3.741  1.00  0.00     0.004 A 
HETATM   14  C   UNL     1      43.554 -18.784   1.393  1.00  0.00     0.030 A 
HETATM   15  C   UNL     1      43.854 -16.963   3.524  1.00  0.00     0.014 A 
HETATM   16  C   UNL     1      43.475 -16.517   2.253  1.00  0.00     0.001 A 
HETATM   17  C   UNL     1      43.334 -17.418   1.201  1.00  0.00     0.002 A 
ENDBRANCH   6   7
ENDBRANCH   1   5
BRANCH   2  18
HETATM   18  C   UNL     1      40.840 -16.677   6.336  1.00  0.00     0.197 C 
BRANCH  18  19
HETATM   19  N   UNL     1      40.660 -16.437   4.901  1.00  0.00    -0.283 NA
HETATM   20  H   UNL     1      41.410 -16.848   4.340  1.00  0.00     0.128 HD
BRANCH  19  21
HETATM   21  C   UNL     1      40.321 -15.138   4.489  1.00  0.00     0.030 A 
HETATM   22  C   UNL     1      39.935 -14.874   3.158  1.00  0.00     0.055 A 
HETATM   23 CL   UNL     1      39.964 -16.128   1.966  1.00  0.00    -0.082 Cl
HETATM   24  C   UNL     1      39.549 -13.591   2.753  1.00  0.00     0.026 A 
HETATM   25  C   UNL     1      39.518 -12.549   3.677  1.00  0.00     0.002 A 
HETATM   26  C   UNL     1      39.865 -12.793   5.003  1.00  0.00     0.002 A 
HETATM   27  C   UNL     1      40.254 -14.075   5.404  1.00  0.00     0.025 A 
ENDBRANCH  19  21
ENDBRANCH  18  19
ENDBRANCH   2  18
TORSDOF 5
ENDMDL
MODEL 8
REMARK VINA RESULT:      -7.5      4.010      6.783
REMARK  5 active torsions:
REMARK  status: ('A' for Active; 'I' for Inactive)
REMARK    1  A    between atoms: C_7  and  C_8 
REMARK    2  A    between atoms: N_9  and  N_10 
REMARK       I    between atoms: N_10  and  C_11 
REMARK    3  A    between atoms: C_11  and  C_12 
REMARK    4  A    between atoms: C_12  and  N_13 
REMARK    5  A    between atoms: N_13  and  C_14 
ROOT
HETATM    1  N   UNL     1      44.529 -16.670   6.364  1.00  0.00    -0.246 N 
HETATM    2  C   UNL     1      44.231 -15.712   7.345  1.00  0.00     0.250 C 
HETATM    3  O   UNL     1      43.656 -15.943   8.406  1.00  0.00    -0.270 OA
HETATM    4  H   UNL     1      44.435 -16.359   5.403  1.00  0.00     0.192 HD
ENDROOT
BRANCH   1   5
HETATM    5  N   UNL     1      44.197 -17.988   6.541  1.00  0.00    -0.184 NA
HETATM    6  C   UNL     1      43.339 -18.528   5.720  1.00  0.00     0.153 C 
BRANCH   6   7
HETATM    7  C   UNL     1      42.505 -17.839   4.746  1.00  0.00     0.018 A 
HETATM    8  C   UNL     1      41.329 -17.177   5.075  1.00  0.00     0.018 A 
HETATM    9  C   UNL     1      40.644 -17.008   6.383  1.00  0.00     0.069 C 
HETATM   10  N   UNL     1      40.780 -16.699   3.913  1.00  0.00    -0.358 N 
HETATM   11  H   UNL     1      39.898 -16.209   3.844  1.00  0.00     0.166 HD
HETATM   12  C   UNL     1      41.599 -16.966   2.843  1.00  0.00     0.043 A 
HETATM   13  C   UNL     1      42.709 -17.651   3.337  1.00  0.00     0.004 A 
HETATM   14  C   UNL     1      41.440 -16.649   1.488  1.00  0.00     0.030 A 
HETATM   15  C   UNL     1      43.735 -17.991   2.426  1.00  0.00     0.014 A 
HETATM   16  C   UNL     1      43.594 -17.682   1.068  1.00  0.00     0.001 A 
HETATM   17  C   UNL     1      42.456 -17.026   0.608  1.00  0.00     0.002 A 
ENDBRANCH   6   7
ENDBRANCH   1   5
BRANCH   2  18
HETATM   18  C   UNL     1      44.716 -14.317   6.929  1.00  0.00     0.197 C 
BRANCH  18  19
HETATM   19  N   UNL     1      43.774 -13.269   7.329  1.00  0.00    -0.283 NA
HETATM   20  H   UNL     1      43.396 -12.757   6.528  1.00  0.00     0.128 HD
BRANCH  19  21
HETATM   21  C   UNL     1      44.140 -12.424   8.390  1.00  0.00     0.030 A 
HETATM   22  C   UNL     1      43.323 -11.341   8.774  1.00  0.00     0.055 A 
HETATM   23 CL   UNL     1      41.889 -10.958   7.883  1.00  0.00    -0.082 Cl
HETATM   24  C   UNL     1      43.658 -10.526   9.861  1.00  0.00     0.026 A 
HETATM   25  C   UNL     1      44.806 -10.792  10.603  1.00  0.00     0.002 A 
HETATM   26  C   UNL     1      45.612 -11.875  10.262  1.00  0.00     0.002 A 
HETATM   27  C   UNL     1      45.276 -12.685   9.172  1.00  0.00     0.025 A 
ENDBRANCH  19  21
ENDBRANCH  18  19
ENDBRANCH   2  18
TORSDOF 5
ENDMDL
MODEL 9
REMARK VINA RESULT:      -7.4      3.145      3.817
REMARK  5 active torsions:
REMARK  status: ('A' for Active; 'I' for Inactive)
REMARK    1  A    between atoms: C_7  and  C_8 
REMARK    2  A    between atoms: N_9  and  N_10 
REMARK       I    between atoms: N_10  and  C_11 
REMARK    3  A    between atoms: C_11  and  C_12 
REMARK    4  A    between atoms: C_12  and  N_13 
REMARK    5  A    between atoms: N_13  and  C_14 
ROOT
HETATM    1  N   UNL     1      42.907 -15.067   2.595  1.00  0.00    -0.246 N 
HETATM    2  C   UNL     1      42.476 -15.778   3.724  1.00  0.00     0.250 C 
HETATM    3  O   UNL     1      42.134 -15.272   4.791  1.00  0.00    -0.270 OA
HETATM    4  H   UNL     1      43.660 -15.495   2.066  1.00  0.00     0.192 HD
ENDROOT
BRANCH   1   5
HETATM    5  N   UNL     1      42.962 -13.697   2.602  1.00  0.00    -0.184 NA
HETATM    6  C   UNL     1      42.137 -13.038   1.836  1.00  0.00     0.153 C 
BRANCH   6   7
HETATM    7  C   UNL     1      41.289 -13.585   0.787  1.00  0.00     0.018 A 
HETATM    8  C   UNL     1      40.078 -14.218   1.031  1.00  0.00     0.018 A 
HETATM    9  C   UNL     1      39.372 -14.503   2.308  1.00  0.00     0.069 C 
HETATM   10  N   UNL     1      39.584 -14.654  -0.172  1.00  0.00    -0.358 N 
HETATM   11  H   UNL     1      38.733 -15.186  -0.294  1.00  0.00     0.166 HD
HETATM   12  C   UNL     1      40.402 -14.262  -1.203  1.00  0.00     0.043 A 
HETATM   13  C   UNL     1      41.465 -13.557  -0.638  1.00  0.00     0.004 A 
HETATM   14  C   UNL     1      40.275 -14.474  -2.582  1.00  0.00     0.030 A 
HETATM   15  C   UNL     1      42.424 -12.995  -1.511  1.00  0.00     0.014 A 
HETATM   16  C   UNL     1      42.313 -13.195  -2.892  1.00  0.00     0.001 A 
HETATM   17  C   UNL     1      41.255 -13.932  -3.416  1.00  0.00     0.002 A 
ENDBRANCH   6   7
ENDBRANCH   1   5
BRANCH   2  18
HETATM   18  C   UNL     1      42.482 -17.292   3.467  1.00  0.00     0.197 C 
BRANCH  18  19
HETATM   19  N   UNL     1      43.779 -17.756   2.967  1.00  0.00    -0.283 NA
HETATM   20  H   UNL     1      44.046 -17.297   2.092  1.00  0.00     0.128 HD
BRANCH  19  21
HETATM   21  C   UNL     1      44.022 -19.139   2.950  1.00  0.00     0.030 A 
HETATM   22  C   UNL     1      44.565 -19.796   4.074  1.00  0.00     0.055 A 
HETATM   23 CL   UNL     1      45.045 -18.899   5.474  1.00  0.00    -0.082 Cl
HETATM   24  C   UNL     1      44.763 -21.181   4.081  1.00  0.00     0.026 A 
HETATM   25  C   UNL     1      44.399 -21.943   2.974  1.00  0.00     0.002 A 
HETATM   26  C   UNL     1      43.831 -21.320   1.865  1.00  0.00     0.002 A 
HETATM   27  C   UNL     1      43.638 -19.935   1.860  1.00  0.00     0.025 A 
ENDBRANCH  19  21
ENDBRANCH  18  19
ENDBRANCH   2  18
TORSDOF 5
ENDMDL
MODEL 10
REMARK VINA RESULT:      -7.4      4.037      6.739
REMARK  5 active torsions:
REMARK  status: ('A' for Active; 'I' for Inactive)
REMARK    1  A    between atoms: C_7  and  C_8 
REMARK    2  A    between atoms: N_9  and  N_10 
REMARK       I    between atoms: N_10  and  C_11 
REMARK    3  A    between atoms: C_11  and  C_12 
REMARK    4  A    between atoms: C_12  and  N_13 
REMARK    5  A    between atoms: N_13  and  C_14 
ROOT
HETATM    1  N   UNL     1      41.904 -13.791   0.063  1.00  0.00    -0.246 N 
HETATM    2  C   UNL     1      41.072 -12.691   0.319  1.00  0.00     0.250 C 
HETATM    3  O   UNL     1      39.986 -12.485  -0.219  1.00  0.00    -0.270 OA
HETATM    4  H   UNL     1      42.900 -13.597   0.057  1.00  0.00     0.192 HD
ENDROOT
BRANCH   1   5
HETATM    5  N   UNL     1      41.535 -14.761  -0.833  1.00  0.00    -0.184 NA
HETATM    6  C   UNL     1      41.100 -15.900  -0.371  1.00  0.00     0.153 C 
BRANCH   6   7
HETATM    7  C   UNL     1      41.158 -16.367   1.007  1.00  0.00     0.018 A 
HETATM    8  C   UNL     1      40.197 -16.062   1.961  1.00  0.00     0.018 A 
HETATM    9  C   UNL     1      38.961 -15.242   1.866  1.00  0.00     0.069 C 
HETATM   10  N   UNL     1      40.599 -16.614   3.151  1.00  0.00    -0.358 N 
HETATM   11  H   UNL     1      40.113 -16.517   4.032  1.00  0.00     0.166 HD
HETATM   12  C   UNL     1      41.759 -17.331   2.985  1.00  0.00     0.043 A 
HETATM   13  C   UNL     1      42.118 -17.226   1.641  1.00  0.00     0.004 A 
HETATM   14  C   UNL     1      42.504 -18.062   3.918  1.00  0.00     0.030 A 
HETATM   15  C   UNL     1      43.261 -17.934   1.205  1.00  0.00     0.014 A 
HETATM   16  C   UNL     1      44.018 -18.671   2.124  1.00  0.00     0.001 A 
HETATM   17  C   UNL     1      43.646 -18.726   3.463  1.00  0.00     0.002 A 
ENDBRANCH   6   7
ENDBRANCH   1   5
BRANCH   2  18
HETATM   18  C   UNL     1      41.689 -11.756   1.369  1.00  0.00     0.197 C 
BRANCH  18  19
HETATM   19  N   UNL     1      41.050 -11.909   2.679  1.00  0.00    -0.283 NA
HETATM   20  H   UNL     1      40.809 -11.008   3.102  1.00  0.00     0.128 HD
BRANCH  19  21
HETATM   21  C   UNL     1      41.629 -12.802   3.594  1.00  0.00     0.030 A 
HETATM   22  C   UNL     1      40.913 -13.256   4.721  1.00  0.00     0.055 A 
HETATM   23 CL   UNL     1      39.331 -12.645   5.066  1.00  0.00    -0.082 Cl
HETATM   24  C   UNL     1      41.467 -14.184   5.610  1.00  0.00     0.026 A 
HETATM   25  C   UNL     1      42.740 -14.698   5.378  1.00  0.00     0.002 A 
HETATM   26  C   UNL     1      43.453 -14.288   4.254  1.00  0.00     0.002 A 
HETATM   27  C   UNL     1      42.899 -13.357   3.370  1.00  0.00     0.025 A 
ENDBRANCH  19  21
ENDBRANCH  18  19
ENDBRANCH   2  18
TORSDOF 5
ENDMDL
