MODEL 1
REMARK VINA RESULT:      -8.0      0.000      0.000
REMARK  9 active torsions:
REMARK  status: ('A' for Active; 'I' for Inactive)
REMARK    1  A    between atoms: O_2  and  C_3 
REMARK    2  A    between atoms: C_3  and  C_4 
REMARK    3  A    between atoms: C_4  and  S_5 
REMARK    4  A    between atoms: S_5  and  C_6 
REMARK    5  A    between atoms: C_7  and  C_8 
REMARK       I    between atoms: C_8  and  N_9 
REMARK    6  A    between atoms: N_9  and  C_10 
REMARK    7  A    between atoms: C_11  and  C_12 
REMARK       I    between atoms: C_12  and  N_13 
REMARK    8  A    between atoms: N_13  and  C_14 
REMARK    9  A    between atoms: C_14  and  C_15 
ROOT
HETATM    1  C   UNL     1      43.592 -19.588   2.792  1.00  0.00     0.050 A 
HETATM    2  C   UNL     1      44.351 -20.080   3.866  1.00  0.00     0.058 A 
HETATM    3  C   UNL     1      44.826 -21.400   3.858  1.00  0.00     0.019 A 
HETATM    4  C   UNL     1      44.533 -22.243   2.788  1.00  0.00     0.001 A 
HETATM    5  C   UNL     1      43.740 -21.779   1.741  1.00  0.00     0.002 A 
HETATM    6  C   UNL     1      43.262 -20.465   1.750  1.00  0.00     0.030 A 
ENDROOT
BRANCH   1   7
HETATM    7  N   UNL     1      43.107 -18.266   2.683  1.00  0.00    -0.322 N 
HETATM    8  C   UNL     1      43.764 -17.240   2.017  1.00  0.00     0.257 C 
HETATM    9  O   UNL     1      44.722 -17.402   1.273  1.00  0.00    -0.267 OA
HETATM   10  H   UNL     1      42.128 -18.117   2.892  1.00  0.00     0.169 HD
BRANCH   8  11
HETATM   11  C   UNL     1      43.135 -15.901   2.196  1.00  0.00     0.049 A 
HETATM   12  C   UNL     1      42.098 -15.419   1.375  1.00  0.00     0.016 A 
HETATM   13  C   UNL     1      41.590 -14.131   1.626  1.00  0.00     0.019 A 
HETATM   14  C   UNL     1      42.089 -13.341   2.664  1.00  0.00     0.001 A 
HETATM   15  C   UNL     1      43.120 -13.818   3.464  1.00  0.00     0.001 A 
HETATM   16  C   UNL     1      43.647 -15.087   3.227  1.00  0.00     0.018 A 
BRANCH  12  17
HETATM   17  S   UNL     1      41.342 -16.276  -0.002  1.00  0.00    -0.127 SA
BRANCH  17  18
HETATM   18  C   UNL     1      40.987 -14.896  -1.152  1.00  0.00     0.106 C 
BRANCH  18  19
HETATM   19  C   UNL     1      40.674 -15.341  -2.580  1.00  0.00     0.177 C 
BRANCH  19  20
HETATM   20  O   UNL     1      41.546 -14.697  -3.509  1.00  0.00    -0.395 OA
HETATM   21  C   UNL     1      41.350 -13.291  -3.530  1.00  0.00     0.201 C 
ENDBRANCH  19  20
ENDBRANCH  18  19
ENDBRANCH  17  18
ENDBRANCH  12  17
ENDBRANCH   8  11
ENDBRANCH   1   7
BRANCH   2  22
HETATM   22  C   UNL     1      44.501 -19.353   5.147  1.00  0.00     0.254 C 
HETATM   23  N   UNL     1      43.533 -19.643   6.080  1.00  0.00    -0.354 N 
HETATM   24  H   UNL     1      43.196 -20.601   6.017  1.00  0.00     0.162 HD
HETATM   25  O   UNL     1      45.401 -18.533   5.278  1.00  0.00    -0.268 OA
BRANCH  23  26
HETATM   26  C   UNL     1      43.600 -19.099   7.425  1.00  0.00     0.155 C 
BRANCH  26  27
HETATM   27  C   UNL     1      42.936 -17.725   7.503  1.00  0.00     0.139 C 
HETATM   28  O   UNL     1      43.918 -16.674   7.551  1.00  0.00    -0.384 OA
HETATM   29  C   UNL     1      43.421 -15.560   6.793  1.00  0.00     0.168 C 
HETATM   30  C   UNL     1      42.015 -15.907   6.350  1.00  0.00     0.029 C 
HETATM   31  C   UNL     1      42.057 -17.413   6.303  1.00  0.00     0.035 C 
ENDBRANCH  26  27
ENDBRANCH  23  26
ENDBRANCH   2  22
TORSDOF 9
ENDMDL
MODEL 2
REMARK VINA RESULT:      -7.7      2.276      8.450
REMARK  9 active torsions:
REMARK  status: ('A' for Active; 'I' for Inactive)
REMARK    1  A    between atoms: O_2  and  C_3 
REMARK    2  A    between atoms: C_3  and  C_4 
REMARK    3  A    between atoms: C_4  and  S_5 
REMARK    4  A    between atoms: S_5  and  C_6 
REMARK    5  A    between atoms: C_7  and  C_8 
REMARK       I    between atoms: C_8  and  N_9 
REMARK    6  A    between atoms: N_9  and  C_10 
REMARK    7  A    between atoms: C_11  and  C_12 
REMARK       I    between atoms: C_12  and  N_13 
REMARK    8  A    between atoms: N_13  and  C_14 
REMARK    9  A    between atoms: C_14  and  C_15 
ROOT
HETATM    1  C   UNL     1      42.910 -15.654   2.214  1.00  0.00     0.050 A 
HETATM    2  C   UNL     1      42.218 -15.019   1.170  1.00  0.00     0.058 A 
HETATM    3  C   UNL     1      41.932 -13.646   1.235  1.00  0.00     0.019 A 
HETATM    4  C   UNL     1      42.318 -12.903   2.349  1.00  0.00     0.001 A 
HETATM    5  C   UNL     1      42.961 -13.534   3.411  1.00  0.00     0.002 A 
HETATM    6  C   UNL     1      43.242 -14.902   3.350  1.00  0.00     0.030 A 
ENDROOT
BRANCH   1   7
HETATM    7  N   UNL     1      43.285 -17.015   2.225  1.00  0.00    -0.322 N 
HETATM    8  C   UNL     1      42.732 -17.977   3.058  1.00  0.00     0.257 C 
HETATM    9  O   UNL     1      41.718 -17.813   3.724  1.00  0.00    -0.267 OA
HETATM   10  H   UNL     1      43.809 -17.353   1.427  1.00  0.00     0.169 HD
BRANCH   8  11
HETATM   11  C   UNL     1      43.420 -19.298   3.001  1.00  0.00     0.049 A 
HETATM   12  C   UNL     1      44.356 -19.723   3.963  1.00  0.00     0.016 A 
HETATM   13  C   UNL     1      44.956 -20.985   3.799  1.00  0.00     0.019 A 
HETATM   14  C   UNL     1      44.636 -21.809   2.718  1.00  0.00     0.001 A 
HETATM   15  C   UNL     1      43.719 -21.379   1.766  1.00  0.00     0.001 A 
HETATM   16  C   UNL     1      43.120 -20.127   1.902  1.00  0.00     0.018 A 
BRANCH  12  17
HETATM   17  S   UNL     1      44.899 -18.807   5.402  1.00  0.00    -0.127 SA
BRANCH  17  18
HETATM   18  C   UNL     1      43.839 -19.514   6.717  1.00  0.00     0.106 C 
BRANCH  18  19
HETATM   19  C   UNL     1      43.853 -18.719   8.022  1.00  0.00     0.177 C 
BRANCH  19  20
HETATM   20  O   UNL     1      43.582 -17.340   7.773  1.00  0.00    -0.395 OA
HETATM   21  C   UNL     1      42.274 -17.145   7.257  1.00  0.00     0.201 C 
ENDBRANCH  19  20
ENDBRANCH  18  19
ENDBRANCH  17  18
ENDBRANCH  12  17
ENDBRANCH   8  11
ENDBRANCH   1   7
BRANCH   2  22
HETATM   22  C   UNL     1      41.554 -15.760   0.075  1.00  0.00     0.254 C 
HETATM   23  N   UNL     1      41.509 -15.084  -1.122  1.00  0.00    -0.354 N 
HETATM   24  H   UNL     1      42.313 -14.477  -1.266  1.00  0.00     0.162 HD
HETATM   25  O   UNL     1      41.057 -16.857   0.298  1.00  0.00    -0.268 OA
BRANCH  23  26
HETATM   26  C   UNL     1      40.991 -15.716  -2.322  1.00  0.00     0.155 C 
BRANCH  26  27
HETATM   27  C   UNL     1      39.941 -14.840  -3.004  1.00  0.00     0.139 C 
HETATM   28  O   UNL     1      39.126 -15.610  -3.906  1.00  0.00    -0.384 OA
HETATM   29  C   UNL     1      37.781 -15.111  -3.835  1.00  0.00     0.168 C 
HETATM   30  C   UNL     1      37.796 -13.901  -2.924  1.00  0.00     0.029 C 
HETATM   31  C   UNL     1      38.973 -14.192  -2.027  1.00  0.00     0.035 C 
ENDBRANCH  26  27
ENDBRANCH  23  26
ENDBRANCH   2  22
TORSDOF 9
ENDMDL
MODEL 3
REMARK VINA RESULT:      -7.7      2.424      8.009
REMARK  9 active torsions:
REMARK  status: ('A' for Active; 'I' for Inactive)
REMARK    1  A    between atoms: O_2  and  C_3 
REMARK    2  A    between atoms: C_3  and  C_4 
REMARK    3  A    between atoms: C_4  and  S_5 
REMARK    4  A    between atoms: S_5  and  C_6 
REMARK    5  A    between atoms: C_7  and  C_8 
REMARK       I    between atoms: C_8  and  N_9 
REMARK    6  A    between atoms: N_9  and  C_10 
REMARK    7  A    between atoms: C_11  and  C_12 
REMARK       I    between atoms: C_12  and  N_13 
REMARK    8  A    between atoms: N_13  and  C_14 
REMARK    9  A    between atoms: C_14  and  C_15 
ROOT
HETATM    1  C   UNL     1      41.102 -16.325   3.996  1.00  0.00     0.050 A 
HETATM    2  C   UNL     1      40.676 -15.540   2.913  1.00  0.00     0.058 A 
HETATM    3  C   UNL     1      40.013 -14.322   3.131  1.00  0.00     0.019 A 
HETATM    4  C   UNL     1      39.757 -13.888   4.430  1.00  0.00     0.001 A 
HETATM    5  C   UNL     1      40.133 -14.683   5.511  1.00  0.00     0.002 A 
HETATM    6  C   UNL     1      40.789 -15.899   5.294  1.00  0.00     0.030 A 
ENDROOT
BRANCH   1   7
HETATM    7  N   UNL     1      41.815 -17.539   3.884  1.00  0.00    -0.322 N 
HETATM    8  C   UNL     1      43.118 -17.646   3.418  1.00  0.00     0.257 C 
HETATM    9  O   UNL     1      43.872 -16.697   3.250  1.00  0.00    -0.267 OA
HETATM   10  H   UNL     1      41.448 -18.335   4.390  1.00  0.00     0.169 HD
BRANCH   8  11
HETATM   11  C   UNL     1      43.581 -19.050   3.229  1.00  0.00     0.049 A 
HETATM   12  C   UNL     1      44.397 -19.725   4.156  1.00  0.00     0.016 A 
HETATM   13  C   UNL     1      44.788 -21.045   3.867  1.00  0.00     0.019 A 
HETATM   14  C   UNL     1      44.378 -21.685   2.695  1.00  0.00     0.001 A 
HETATM   15  C   UNL     1      43.581 -21.010   1.778  1.00  0.00     0.001 A 
HETATM   16  C   UNL     1      43.192 -19.697   2.039  1.00  0.00     0.018 A 
BRANCH  12  17
HETATM   17  S   UNL     1      45.027 -19.069   5.698  1.00  0.00    -0.127 SA
BRANCH  17  18
HETATM   18  C   UNL     1      43.500 -18.937   6.700  1.00  0.00     0.106 C 
BRANCH  18  19
HETATM   19  C   UNL     1      43.323 -17.583   7.387  1.00  0.00     0.177 C 
BRANCH  19  20
HETATM   20  O   UNL     1      44.395 -16.704   7.048  1.00  0.00    -0.395 OA
HETATM   21  C   UNL     1      43.948 -15.366   6.884  1.00  0.00     0.201 C 
ENDBRANCH  19  20
ENDBRANCH  18  19
ENDBRANCH  17  18
ENDBRANCH  12  17
ENDBRANCH   8  11
ENDBRANCH   1   7
BRANCH   2  22
HETATM   22  C   UNL     1      40.676 -16.028   1.515  1.00  0.00     0.254 C 
HETATM   23  N   UNL     1      40.832 -15.040   0.571  1.00  0.00    -0.354 N 
HETATM   24  H   UNL     1      41.414 -14.270   0.894  1.00  0.00     0.162 HD
HETATM   25  O   UNL     1      40.490 -17.216   1.287  1.00  0.00    -0.268 OA
BRANCH  23  26
HETATM   26  C   UNL     1      40.964 -15.364  -0.838  1.00  0.00     0.155 C 
BRANCH  26  27
HETATM   27  C   UNL     1      40.128 -14.426  -1.707  1.00  0.00     0.139 C 
HETATM   28  O   UNL     1      39.652 -15.095  -2.889  1.00  0.00    -0.384 OA
HETATM   29  C   UNL     1      38.327 -14.619  -3.172  1.00  0.00     0.168 C 
HETATM   30  C   UNL     1      38.019 -13.522  -2.175  1.00  0.00     0.029 C 
HETATM   31  C   UNL     1      38.887 -13.902  -1.003  1.00  0.00     0.035 C 
ENDBRANCH  26  27
ENDBRANCH  23  26
ENDBRANCH   2  22
TORSDOF 9
ENDMDL
MODEL 4
REMARK VINA RESULT:      -7.7      2.535      6.672
REMARK  9 active torsions:
REMARK  status: ('A' for Active; 'I' for Inactive)
REMARK    1  A    between atoms: O_2  and  C_3 
REMARK    2  A    between atoms: C_3  and  C_4 
REMARK    3  A    between atoms: C_4  and  S_5 
REMARK    4  A    between atoms: S_5  and  C_6 
REMARK    5  A    between atoms: C_7  and  C_8 
REMARK       I    between atoms: C_8  and  N_9 
REMARK    6  A    between atoms: N_9  and  C_10 
REMARK    7  A    between atoms: C_11  and  C_12 
REMARK       I    between atoms: C_12  and  N_13 
REMARK    8  A    between atoms: N_13  and  C_14 
REMARK    9  A    between atoms: C_14  and  C_15 
ROOT
HETATM    1  C   UNL     1      41.627 -16.734   1.410  1.00  0.00     0.050 A 
HETATM    2  C   UNL     1      41.065 -15.657   2.114  1.00  0.00     0.058 A 
HETATM    3  C   UNL     1      40.480 -14.583   1.425  1.00  0.00     0.019 A 
HETATM    4  C   UNL     1      40.467 -14.569   0.032  1.00  0.00     0.001 A 
HETATM    5  C   UNL     1      41.065 -15.609  -0.675  1.00  0.00     0.002 A 
HETATM    6  C   UNL     1      41.653 -16.677   0.009  1.00  0.00     0.030 A 
ENDROOT
BRANCH   1   7
HETATM    7  N   UNL     1      42.197 -17.880   2.006  1.00  0.00    -0.322 N 
HETATM    8  C   UNL     1      43.556 -18.161   2.029  1.00  0.00     0.257 C 
HETATM    9  O   UNL     1      44.432 -17.361   1.730  1.00  0.00    -0.267 OA
HETATM   10  H   UNL     1      41.616 -18.399   2.653  1.00  0.00     0.169 HD
BRANCH   8  11
HETATM   11  C   UNL     1      43.887 -19.514   2.561  1.00  0.00     0.049 A 
HETATM   12  C   UNL     1      44.346 -19.736   3.873  1.00  0.00     0.016 A 
HETATM   13  C   UNL     1      44.644 -21.055   4.262  1.00  0.00     0.019 A 
HETATM   14  C   UNL     1      44.486 -22.128   3.381  1.00  0.00     0.001 A 
HETATM   15  C   UNL     1      44.043 -21.900   2.084  1.00  0.00     0.001 A 
HETATM   16  C   UNL     1      43.753 -20.600   1.673  1.00  0.00     0.018 A 
BRANCH  12  17
HETATM   17  S   UNL     1      44.620 -18.495   5.133  1.00  0.00    -0.127 SA
BRANCH  17  18
HETATM   18  C   UNL     1      43.057 -18.577   6.084  1.00  0.00     0.106 C 
BRANCH  18  19
HETATM   19  C   UNL     1      43.104 -17.843   7.423  1.00  0.00     0.177 C 
BRANCH  19  20
HETATM   20  O   UNL     1      42.757 -16.469   7.256  1.00  0.00    -0.395 OA
HETATM   21  C   UNL     1      43.897 -15.625   7.320  1.00  0.00     0.201 C 
ENDBRANCH  19  20
ENDBRANCH  18  19
ENDBRANCH  17  18
ENDBRANCH  12  17
ENDBRANCH   8  11
ENDBRANCH   1   7
BRANCH   2  22
HETATM   22  C   UNL     1      41.250 -15.460   3.569  1.00  0.00     0.254 C 
HETATM   23  N   UNL     1      40.122 -15.036   4.231  1.00  0.00    -0.354 N 
HETATM   24  H   UNL     1      39.262 -15.394   3.821  1.00  0.00     0.162 HD
HETATM   25  O   UNL     1      42.356 -15.624   4.067  1.00  0.00    -0.268 OA
BRANCH  23  26
HETATM   26  C   UNL     1      40.107 -14.903   5.677  1.00  0.00     0.155 C 
BRANCH  26  27
HETATM   27  C   UNL     1      40.144 -13.436   6.102  1.00  0.00     0.139 C 
HETATM   28  O   UNL     1      41.480 -12.904   6.023  1.00  0.00    -0.384 OA
HETATM   29  C   UNL     1      41.396 -11.544   5.571  1.00  0.00     0.168 C 
HETATM   30  C   UNL     1      39.927 -11.190   5.472  1.00  0.00     0.029 C 
HETATM   31  C   UNL     1      39.291 -12.534   5.224  1.00  0.00     0.035 C 
ENDBRANCH  26  27
ENDBRANCH  23  26
ENDBRANCH   2  22
TORSDOF 9
ENDMDL
MODEL 5
REMARK VINA RESULT:      -7.6      2.978      6.894
REMARK  9 active torsions:
REMARK  status: ('A' for Active; 'I' for Inactive)
REMARK    1  A    between atoms: O_2  and  C_3 
REMARK    2  A    between atoms: C_3  and  C_4 
REMARK    3  A    between atoms: C_4  and  S_5 
REMARK    4  A    between atoms: S_5  and  C_6 
REMARK    5  A    between atoms: C_7  and  C_8 
REMARK       I    between atoms: C_8  and  N_9 
REMARK    6  A    between atoms: N_9  and  C_10 
REMARK    7  A    between atoms: C_11  and  C_12 
REMARK       I    between atoms: C_12  and  N_13 
REMARK    8  A    between atoms: N_13  and  C_14 
REMARK    9  A    between atoms: C_14  and  C_15 
ROOT
HETATM    1  C   UNL     1      41.565 -15.690   3.705  1.00  0.00     0.050 A 
HETATM    2  C   UNL     1      41.941 -14.523   4.388  1.00  0.00     0.058 A 
HETATM    3  C   UNL     1      41.144 -13.369   4.321  1.00  0.00     0.019 A 
HETATM    4  C   UNL     1      39.978 -13.367   3.559  1.00  0.00     0.001 A 
HETATM    5  C   UNL     1      39.623 -14.505   2.839  1.00  0.00     0.002 A 
HETATM    6  C   UNL     1      40.418 -15.654   2.900  1.00  0.00     0.030 A 
ENDROOT
BRANCH   1   7
HETATM    7  N   UNL     1      42.271 -16.913   3.744  1.00  0.00    -0.322 N 
HETATM    8  C   UNL     1      43.316 -17.245   2.894  1.00  0.00     0.257 C 
HETATM    9  O   UNL     1      43.888 -16.451   2.159  1.00  0.00    -0.267 OA
HETATM   10  H   UNL     1      42.171 -17.474   4.581  1.00  0.00     0.169 HD
BRANCH   8  11
HETATM   11  C   UNL     1      43.776 -18.657   3.021  1.00  0.00     0.049 A 
HETATM   12  C   UNL     1      44.476 -19.144   4.140  1.00  0.00     0.016 A 
HETATM   13  C   UNL     1      44.876 -20.493   4.145  1.00  0.00     0.019 A 
HETATM   14  C   UNL     1      44.585 -21.342   3.074  1.00  0.00     0.001 A 
HETATM   15  C   UNL     1      43.903 -20.853   1.967  1.00  0.00     0.001 A 
HETATM   16  C   UNL     1      43.507 -19.516   1.936  1.00  0.00     0.018 A 
BRANCH  12  17
HETATM   17  S   UNL     1      44.946 -18.210   5.594  1.00  0.00    -0.127 SA
BRANCH  17  18
HETATM   18  C   UNL     1      43.904 -18.981   6.886  1.00  0.00     0.106 C 
BRANCH  18  19
HETATM   19  C   UNL     1      43.904 -18.228   8.216  1.00  0.00     0.177 C 
BRANCH  19  20
HETATM   20  O   UNL     1      42.907 -17.206   8.215  1.00  0.00    -0.395 OA
HETATM   21  C   UNL     1      41.946 -17.408   7.190  1.00  0.00     0.201 C 
ENDBRANCH  19  20
ENDBRANCH  18  19
ENDBRANCH  17  18
ENDBRANCH  12  17
ENDBRANCH   8  11
ENDBRANCH   1   7
BRANCH   2  22
HETATM   22  C   UNL     1      43.272 -14.347   5.011  1.00  0.00     0.254 C 
HETATM   23  N   UNL     1      43.298 -14.574   6.367  1.00  0.00    -0.354 N 
HETATM   24  H   UNL     1      42.632 -15.284   6.663  1.00  0.00     0.162 HD
HETATM   25  O   UNL     1      44.218 -13.973   4.328  1.00  0.00    -0.268 OA
BRANCH  23  26
HETATM   26  C   UNL     1      44.547 -14.551   7.108  1.00  0.00     0.155 C 
BRANCH  26  27
HETATM   27  C   UNL     1      44.811 -13.173   7.712  1.00  0.00     0.139 C 
HETATM   28  O   UNL     1      44.587 -13.176   9.134  1.00  0.00    -0.384 OA
HETATM   29  C   UNL     1      45.570 -12.326   9.746  1.00  0.00     0.168 C 
HETATM   30  C   UNL     1      46.368 -11.684   8.631  1.00  0.00     0.029 C 
HETATM   31  C   UNL     1      46.243 -12.698   7.522  1.00  0.00     0.035 C 
ENDBRANCH  26  27
ENDBRANCH  23  26
ENDBRANCH   2  22
TORSDOF 9
ENDMDL
MODEL 6
REMARK VINA RESULT:      -7.4      1.656      2.097
REMARK  9 active torsions:
REMARK  status: ('A' for Active; 'I' for Inactive)
REMARK    1  A    between atoms: O_2  and  C_3 
REMARK    2  A    between atoms: C_3  and  C_4 
REMARK    3  A    between atoms: C_4  and  S_5 
REMARK    4  A    between atoms: S_5  and  C_6 
REMARK    5  A    between atoms: C_7  and  C_8 
REMARK       I    between atoms: C_8  and  N_9 
REMARK    6  A    between atoms: N_9  and  C_10 
REMARK    7  A    between atoms: C_11  and  C_12 
REMARK       I    between atoms: C_12  and  N_13 
REMARK    8  A    between atoms: N_13  and  C_14 
REMARK    9  A    between atoms: C_14  and  C_15 
ROOT
HETATM    1  C   UNL     1      42.951 -18.875   2.917  1.00  0.00     0.050 A 
HETATM    2  C   UNL     1      43.500 -19.084   4.192  1.00  0.00     0.058 A 
HETATM    3  C   UNL     1      44.425 -20.118   4.410  1.00  0.00     0.019 A 
HETATM    4  C   UNL     1      44.793 -20.960   3.363  1.00  0.00     0.001 A 
HETATM    5  C   UNL     1      44.217 -20.791   2.106  1.00  0.00     0.002 A 
HETATM    6  C   UNL     1      43.293 -19.764   1.888  1.00  0.00     0.030 A 
ENDROOT
BRANCH   1   7
HETATM    7  N   UNL     1      42.052 -17.839   2.584  1.00  0.00    -0.322 N 
HETATM    8  C   UNL     1      42.429 -16.539   2.278  1.00  0.00     0.257 C 
HETATM    9  O   UNL     1      43.580 -16.188   2.053  1.00  0.00    -0.267 OA
HETATM   10  H   UNL     1      41.113 -18.112   2.322  1.00  0.00     0.169 HD
BRANCH   8  11
HETATM   11  C   UNL     1      41.286 -15.593   2.135  1.00  0.00     0.049 A 
HETATM   12  C   UNL     1      40.722 -15.245   0.893  1.00  0.00     0.016 A 
HETATM   13  C   UNL     1      39.655 -14.329   0.876  1.00  0.00     0.019 A 
HETATM   14  C   UNL     1      39.152 -13.775   2.056  1.00  0.00     0.001 A 
HETATM   15  C   UNL     1      39.720 -14.115   3.278  1.00  0.00     0.001 A 
HETATM   16  C   UNL     1      40.786 -15.012   3.318  1.00  0.00     0.018 A 
BRANCH  12  17
HETATM   17  S   UNL     1      41.236 -15.838  -0.716  1.00  0.00    -0.127 SA
BRANCH  17  18
HETATM   18  C   UNL     1      40.878 -14.391  -1.779  1.00  0.00     0.106 C 
BRANCH  18  19
HETATM   19  C   UNL     1      39.671 -14.578  -2.698  1.00  0.00     0.177 C 
BRANCH  19  20
HETATM   20  O   UNL     1      40.043 -15.289  -3.878  1.00  0.00    -0.395 OA
HETATM   21  C   UNL     1      39.024 -16.186  -4.296  1.00  0.00     0.201 C 
ENDBRANCH  19  20
ENDBRANCH  18  19
ENDBRANCH  17  18
ENDBRANCH  12  17
ENDBRANCH   8  11
ENDBRANCH   1   7
BRANCH   2  22
HETATM   22  C   UNL     1      42.990 -18.414   5.409  1.00  0.00     0.254 C 
HETATM   23  N   UNL     1      43.970 -17.963   6.261  1.00  0.00    -0.354 N 
HETATM   24  H   UNL     1      44.815 -17.670   5.775  1.00  0.00     0.162 HD
HETATM   25  O   UNL     1      41.783 -18.352   5.607  1.00  0.00    -0.268 OA
BRANCH  23  26
HETATM   26  C   UNL     1      43.639 -17.187   7.443  1.00  0.00     0.155 C 
BRANCH  26  27
HETATM   27  C   UNL     1      43.485 -15.704   7.110  1.00  0.00     0.139 C 
HETATM   28  O   UNL     1      44.405 -14.901   7.873  1.00  0.00    -0.384 OA
HETATM   29  C   UNL     1      44.864 -13.827   7.037  1.00  0.00     0.168 C 
HETATM   30  C   UNL     1      44.102 -13.914   5.731  1.00  0.00     0.029 C 
HETATM   31  C   UNL     1      43.770 -15.383   5.652  1.00  0.00     0.035 C 
ENDBRANCH  26  27
ENDBRANCH  23  26
ENDBRANCH   2  22
TORSDOF 9
ENDMDL
MODEL 7
REMARK VINA RESULT:      -7.3      2.759      6.398
REMARK  9 active torsions:
REMARK  status: ('A' for Active; 'I' for Inactive)
REMARK    1  A    between atoms: O_2  and  C_3 
REMARK    2  A    between atoms: C_3  and  C_4 
REMARK    3  A    between atoms: C_4  and  S_5 
REMARK    4  A    between atoms: S_5  and  C_6 
REMARK    5  A    between atoms: C_7  and  C_8 
REMARK       I    between atoms: C_8  and  N_9 
REMARK    6  A    between atoms: N_9  and  C_10 
REMARK    7  A    between atoms: C_11  and  C_12 
REMARK       I    between atoms: C_12  and  N_13 
REMARK    8  A    between atoms: N_13  and  C_14 
REMARK    9  A    between atoms: C_14  and  C_15 
ROOT
HETATM    1  C   UNL     1      43.850 -18.298   4.103  1.00  0.00     0.050 A 
HETATM    2  C   UNL     1      43.705 -18.764   2.787  1.00  0.00     0.058 A 
HETATM    3  C   UNL     1      44.049 -20.084   2.455  1.00  0.00     0.019 A 
HETATM    4  C   UNL     1      44.557 -20.941   3.429  1.00  0.00     0.001 A 
HETATM    5  C   UNL     1      44.751 -20.473   4.727  1.00  0.00     0.002 A 
HETATM    6  C   UNL     1      44.412 -19.158   5.058  1.00  0.00     0.030 A 
ENDROOT
BRANCH   1   7
HETATM    7  N   UNL     1      43.491 -17.008   4.549  1.00  0.00    -0.322 N 
HETATM    8  C   UNL     1      42.277 -16.690   5.141  1.00  0.00     0.257 C 
HETATM    9  O   UNL     1      41.465 -17.515   5.539  1.00  0.00    -0.267 OA
HETATM   10  H   UNL     1      44.239 -16.335   4.661  1.00  0.00     0.169 HD
BRANCH   8  11
HETATM   11  C   UNL     1      42.072 -15.230   5.360  1.00  0.00     0.049 A 
HETATM   12  C   UNL     1      42.941 -14.435   6.130  1.00  0.00     0.016 A 
HETATM   13  C   UNL     1      42.640 -13.069   6.283  1.00  0.00     0.019 A 
HETATM   14  C   UNL     1      41.513 -12.501   5.684  1.00  0.00     0.001 A 
HETATM   15  C   UNL     1      40.653 -13.293   4.934  1.00  0.00     0.001 A 
HETATM   16  C   UNL     1      40.925 -14.651   4.779  1.00  0.00     0.018 A 
BRANCH  12  17
HETATM   17  S   UNL     1      44.419 -14.984   6.978  1.00  0.00    -0.127 SA
BRANCH  17  18
HETATM   18  C   UNL     1      45.495 -13.507   6.847  1.00  0.00     0.106 C 
BRANCH  18  19
HETATM   19  C   UNL     1      45.855 -12.879   8.193  1.00  0.00     0.177 C 
BRANCH  19  20
HETATM   20  O   UNL     1      44.759 -12.977   9.102  1.00  0.00    -0.395 OA
HETATM   21  C   UNL     1      44.168 -11.711   9.355  1.00  0.00     0.201 C 
ENDBRANCH  19  20
ENDBRANCH  18  19
ENDBRANCH  17  18
ENDBRANCH  12  17
ENDBRANCH   8  11
ENDBRANCH   1   7
BRANCH   2  22
HETATM   22  C   UNL     1      43.416 -17.870   1.643  1.00  0.00     0.254 C 
HETATM   23  N   UNL     1      42.077 -17.688   1.390  1.00  0.00    -0.354 N 
HETATM   24  H   UNL     1      41.506 -17.720   2.232  1.00  0.00     0.162 HD
HETATM   25  O   UNL     1      44.340 -17.410   0.984  1.00  0.00    -0.268 OA
BRANCH  23  26
HETATM   26  C   UNL     1      41.626 -16.754   0.374  1.00  0.00     0.155 C 
BRANCH  26  27
HETATM   27  C   UNL     1      40.877 -15.575   0.994  1.00  0.00     0.139 C 
HETATM   28  O   UNL     1      40.367 -14.690  -0.020  1.00  0.00    -0.384 OA
HETATM   29  C   UNL     1      39.087 -14.202   0.411  1.00  0.00     0.168 C 
HETATM   30  C   UNL     1      38.850 -14.731   1.810  1.00  0.00     0.029 C 
HETATM   31  C   UNL     1      39.670 -15.996   1.816  1.00  0.00     0.035 C 
ENDBRANCH  26  27
ENDBRANCH  23  26
ENDBRANCH   2  22
TORSDOF 9
ENDMDL
MODEL 8
REMARK VINA RESULT:      -7.2      2.457      4.998
REMARK  9 active torsions:
REMARK  status: ('A' for Active; 'I' for Inactive)
REMARK    1  A    between atoms: O_2  and  C_3 
REMARK    2  A    between atoms: C_3  and  C_4 
REMARK    3  A    between atoms: C_4  and  S_5 
REMARK    4  A    between atoms: S_5  and  C_6 
REMARK    5  A    between atoms: C_7  and  C_8 
REMARK       I    between atoms: C_8  and  N_9 
REMARK    6  A    between atoms: N_9  and  C_10 
REMARK    7  A    between atoms: C_11  and  C_12 
REMARK       I    between atoms: C_12  and  N_13 
REMARK    8  A    between atoms: N_13  and  C_14 
REMARK    9  A    between atoms: C_14  and  C_15 
ROOT
HETATM    1  C   UNL     1      44.181 -19.105   3.637  1.00  0.00     0.050 A 
HETATM    2  C   UNL     1      43.790 -19.109   2.288  1.00  0.00     0.058 A 
HETATM    3  C   UNL     1      43.711 -20.314   1.572  1.00  0.00     0.019 A 
HETATM    4  C   UNL     1      44.039 -21.518   2.191  1.00  0.00     0.001 A 
HETATM    5  C   UNL     1      44.475 -21.519   3.514  1.00  0.00     0.002 A 
HETATM    6  C   UNL     1      44.559 -20.319   4.227  1.00  0.00     0.030 A 
ENDROOT
BRANCH   1   7
HETATM    7  N   UNL     1      44.248 -17.956   4.456  1.00  0.00    -0.322 N 
HETATM    8  C   UNL     1      43.144 -17.245   4.904  1.00  0.00     0.257 C 
HETATM    9  O   UNL     1      41.989 -17.640   4.825  1.00  0.00    -0.267 OA
HETATM   10  H   UNL     1      45.123 -17.783   4.934  1.00  0.00     0.169 HD
BRANCH   8  11
HETATM   11  C   UNL     1      43.484 -15.974   5.605  1.00  0.00     0.049 A 
HETATM   12  C   UNL     1      43.306 -14.703   5.028  1.00  0.00     0.016 A 
HETATM   13  C   UNL     1      43.678 -13.571   5.776  1.00  0.00     0.019 A 
HETATM   14  C   UNL     1      44.206 -13.690   7.064  1.00  0.00     0.001 A 
HETATM   15  C   UNL     1      44.389 -14.949   7.624  1.00  0.00     0.001 A 
HETATM   16  C   UNL     1      44.039 -16.085   6.896  1.00  0.00     0.018 A 
BRANCH  12  17
HETATM   17  S   UNL     1      42.658 -14.352   3.396  1.00  0.00    -0.127 SA
BRANCH  17  18
HETATM   18  C   UNL     1      41.386 -13.087   3.763  1.00  0.00     0.106 C 
BRANCH  18  19
HETATM   19  C   UNL     1      41.291 -11.979   2.715  1.00  0.00     0.177 C 
BRANCH  19  20
HETATM   20  O   UNL     1      40.006 -11.360   2.754  1.00  0.00    -0.395 OA
HETATM   21  C   UNL     1      39.176 -11.930   3.756  1.00  0.00     0.201 C 
ENDBRANCH  19  20
ENDBRANCH  18  19
ENDBRANCH  17  18
ENDBRANCH  12  17
ENDBRANCH   8  11
ENDBRANCH   1   7
BRANCH   2  22
HETATM   22  C   UNL     1      43.666 -17.875   1.481  1.00  0.00     0.254 C 
HETATM   23  N   UNL     1      42.390 -17.611   1.041  1.00  0.00    -0.354 N 
HETATM   24  H   UNL     1      41.673 -17.929   1.689  1.00  0.00     0.162 HD
HETATM   25  O   UNL     1      44.666 -17.219   1.217  1.00  0.00    -0.268 OA
BRANCH  23  26
HETATM   26  C   UNL     1      42.080 -16.383   0.331  1.00  0.00     0.155 C 
BRANCH  26  27
HETATM   27  C   UNL     1      40.597 -16.032   0.447  1.00  0.00     0.139 C 
HETATM   28  O   UNL     1      40.088 -16.346   1.756  1.00  0.00    -0.384 OA
HETATM   29  C   UNL     1      39.142 -15.330   2.125  1.00  0.00     0.168 C 
HETATM   30  C   UNL     1      38.983 -14.407   0.935  1.00  0.00     0.029 C 
HETATM   31  C   UNL     1      40.312 -14.554   0.237  1.00  0.00     0.035 C 
ENDBRANCH  26  27
ENDBRANCH  23  26
ENDBRANCH   2  22
TORSDOF 9
ENDMDL
MODEL 9
REMARK VINA RESULT:      -7.1      2.695      8.705
REMARK  9 active torsions:
REMARK  status: ('A' for Active; 'I' for Inactive)
REMARK    1  A    between atoms: O_2  and  C_3 
REMARK    2  A    between atoms: C_3  and  C_4 
REMARK    3  A    between atoms: C_4  and  S_5 
REMARK    4  A    between atoms: S_5  and  C_6 
REMARK    5  A    between atoms: C_7  and  C_8 
REMARK       I    between atoms: C_8  and  N_9 
REMARK    6  A    between atoms: N_9  and  C_10 
REMARK    7  A    between atoms: C_11  and  C_12 
REMARK       I    between atoms: C_12  and  N_13 
REMARK    8  A    between atoms: N_13  and  C_14 
REMARK    9  A    between atoms: C_14  and  C_15 
ROOT
HETATM    1  C   UNL     1      40.731 -14.222   2.245  1.00  0.00     0.050 A 
HETATM    2  C   UNL     1      40.598 -13.579   1.004  1.00  0.00     0.058 A 
HETATM    3  C   UNL     1      39.788 -12.440   0.874  1.00  0.00     0.019 A 
HETATM    4  C   UNL     1      39.094 -11.945   1.976  1.00  0.00     0.001 A 
HETATM    5  C   UNL     1      39.182 -12.604   3.200  1.00  0.00     0.002 A 
HETATM    6  C   UNL     1      39.984 -13.742   3.330  1.00  0.00     0.030 A 
ENDROOT
BRANCH   1   7
HETATM    7  N   UNL     1      41.554 -15.343   2.491  1.00  0.00    -0.322 N 
HETATM    8  C   UNL     1      41.106 -16.657   2.513  1.00  0.00     0.257 C 
HETATM    9  O   UNL     1      40.005 -17.018   2.118  1.00  0.00    -0.267 OA
HETATM   10  H   UNL     1      42.553 -15.207   2.409  1.00  0.00     0.169 HD
BRANCH   8  11
HETATM   11  C   UNL     1      42.130 -17.639   2.968  1.00  0.00     0.049 A 
HETATM   12  C   UNL     1      42.420 -17.881   4.324  1.00  0.00     0.016 A 
HETATM   13  C   UNL     1      43.419 -18.820   4.637  1.00  0.00     0.019 A 
HETATM   14  C   UNL     1      44.110 -19.509   3.637  1.00  0.00     0.001 A 
HETATM   15  C   UNL     1      43.827 -19.259   2.300  1.00  0.00     0.001 A 
HETATM   16  C   UNL     1      42.848 -18.323   1.966  1.00  0.00     0.018 A 
BRANCH  12  17
HETATM   17  S   UNL     1      41.653 -17.092   5.736  1.00  0.00    -0.127 SA
BRANCH  17  18
HETATM   18  C   UNL     1      42.688 -17.707   7.115  1.00  0.00     0.106 C 
BRANCH  18  19
HETATM   19  C   UNL     1      43.522 -16.624   7.798  1.00  0.00     0.177 C 
BRANCH  19  20
HETATM   20  O   UNL     1      44.419 -16.020   6.867  1.00  0.00    -0.395 OA
HETATM   21  C   UNL     1      44.500 -14.614   7.048  1.00  0.00     0.201 C 
ENDBRANCH  19  20
ENDBRANCH  18  19
ENDBRANCH  17  18
ENDBRANCH  12  17
ENDBRANCH   8  11
ENDBRANCH   1   7
BRANCH   2  22
HETATM   22  C   UNL     1      41.086 -14.166  -0.264  1.00  0.00     0.254 C 
HETATM   23  N   UNL     1      40.663 -13.506  -1.394  1.00  0.00    -0.354 N 
HETATM   24  H   UNL     1      40.547 -12.506  -1.250  1.00  0.00     0.162 HD
HETATM   25  O   UNL     1      41.761 -15.188  -0.240  1.00  0.00    -0.268 OA
BRANCH  23  26
HETATM   26  C   UNL     1      41.143 -13.888  -2.710  1.00  0.00     0.155 C 
BRANCH  26  27
HETATM   27  C   UNL     1      39.991 -14.293  -3.628  1.00  0.00     0.139 C 
HETATM   28  O   UNL     1      40.128 -15.657  -4.066  1.00  0.00    -0.384 OA
HETATM   29  C   UNL     1      38.818 -16.244  -4.125  1.00  0.00     0.168 C 
HETATM   30  C   UNL     1      37.819 -15.150  -3.812  1.00  0.00     0.029 C 
HETATM   31  C   UNL     1      38.630 -14.212  -2.955  1.00  0.00     0.035 C 
ENDBRANCH  26  27
ENDBRANCH  23  26
ENDBRANCH   2  22
TORSDOF 9
ENDMDL
MODEL 10
REMARK VINA RESULT:      -7.1      2.475      5.192
REMARK  9 active torsions:
REMARK  status: ('A' for Active; 'I' for Inactive)
REMARK    1  A    between atoms: O_2  and  C_3 
REMARK    2  A    between atoms: C_3  and  C_4 
REMARK    3  A    between atoms: C_4  and  S_5 
REMARK    4  A    between atoms: S_5  and  C_6 
REMARK    5  A    between atoms: C_7  and  C_8 
REMARK       I    between atoms: C_8  and  N_9 
REMARK    6  A    between atoms: N_9  and  C_10 
REMARK    7  A    between atoms: C_11  and  C_12 
REMARK       I    between atoms: C_12  and  N_13 
REMARK    8  A    between atoms: N_13  and  C_14 
REMARK    9  A    between atoms: C_14  and  C_15 
ROOT
HETATM    1  C   UNL     1      42.745 -14.850   5.120  1.00  0.00     0.050 A 
HETATM    2  C   UNL     1      42.977 -16.220   5.324  1.00  0.00     0.058 A 
HETATM    3  C   UNL     1      43.922 -16.650   6.268  1.00  0.00     0.019 A 
HETATM    4  C   UNL     1      44.654 -15.718   7.001  1.00  0.00     0.001 A 
HETATM    5  C   UNL     1      44.466 -14.358   6.771  1.00  0.00     0.002 A 
HETATM    6  C   UNL     1      43.528 -13.927   5.827  1.00  0.00     0.030 A 
ENDROOT
BRANCH   1   7
HETATM    7  N   UNL     1      41.787 -14.316   4.231  1.00  0.00    -0.322 N 
HETATM    8  C   UNL     1      40.417 -14.332   4.449  1.00  0.00     0.257 C 
HETATM    9  O   UNL     1      39.891 -14.613   5.517  1.00  0.00    -0.267 OA
HETATM   10  H   UNL     1      42.125 -13.681   3.518  1.00  0.00     0.169 HD
BRANCH   8  11
HETATM   11  C   UNL     1      39.612 -13.866   3.284  1.00  0.00     0.049 A 
HETATM   12  C   UNL     1      39.340 -14.671   2.162  1.00  0.00     0.016 A 
HETATM   13  C   UNL     1      38.582 -14.122   1.113  1.00  0.00     0.019 A 
HETATM   14  C   UNL     1      38.098 -12.813   1.172  1.00  0.00     0.001 A 
HETATM   15  C   UNL     1      38.378 -12.019   2.278  1.00  0.00     0.001 A 
HETATM   16  C   UNL     1      39.138 -12.539   3.324  1.00  0.00     0.018 A 
BRANCH  12  17
HETATM   17  S   UNL     1      39.881 -16.358   1.903  1.00  0.00    -0.127 SA
BRANCH  17  18
HETATM   18  C   UNL     1      41.026 -16.170   0.487  1.00  0.00     0.106 C 
BRANCH  18  19
HETATM   19  C   UNL     1      42.124 -15.130   0.709  1.00  0.00     0.177 C 
BRANCH  19  20
HETATM   20  O   UNL     1      41.863 -13.953  -0.054  1.00  0.00    -0.395 OA
HETATM   21  C   UNL     1      41.419 -14.262  -1.367  1.00  0.00     0.201 C 
ENDBRANCH  19  20
ENDBRANCH  18  19
ENDBRANCH  17  18
ENDBRANCH  12  17
ENDBRANCH   8  11
ENDBRANCH   1   7
BRANCH   2  22
HETATM   22  C   UNL     1      42.440 -17.270   4.430  1.00  0.00     0.254 C 
HETATM   23  N   UNL     1      43.253 -17.576   3.364  1.00  0.00    -0.354 N 
HETATM   24  H   UNL     1      44.243 -17.477   3.578  1.00  0.00     0.162 HD
HETATM   25  O   UNL     1      41.332 -17.745   4.647  1.00  0.00    -0.268 OA
BRANCH  23  26
HETATM   26  C   UNL     1      42.924 -18.661   2.457  1.00  0.00     0.155 C 
BRANCH  26  27
HETATM   27  C   UNL     1      44.016 -19.729   2.447  1.00  0.00     0.139 C 
HETATM   28  O   UNL     1      44.431 -20.063   3.784  1.00  0.00    -0.384 OA
HETATM   29  C   UNL     1      44.702 -21.473   3.832  1.00  0.00     0.168 C 
HETATM   30  C   UNL     1      44.549 -22.010   2.425  1.00  0.00     0.029 C 
HETATM   31  C   UNL     1      43.570 -21.039   1.816  1.00  0.00     0.035 C 
ENDBRANCH  26  27
ENDBRANCH  23  26
ENDBRANCH   2  22
TORSDOF 9
ENDMDL
