MODEL 1
REMARK VINA RESULT:      -7.2      0.000      0.000
REMARK  9 active torsions:
REMARK  status: ('A' for Active; 'I' for Inactive)
REMARK    1  A    between atoms: C_2  and  C_3 
REMARK    2  A    between atoms: C_7  and  C_8 
REMARK    3  A    between atoms: C_8  and  C_9 
REMARK       I    between atoms: C_9  and  N_10 
REMARK    4  A    between atoms: N_10  and  C_11 
REMARK    5  A    between atoms: C_11  and  C_12 
REMARK    6  A    between atoms: C_12  and  N_13 
REMARK    7  A    between atoms: C_21  and  C_22 
REMARK    8  A    between atoms: C_32  and  C_33 
REMARK    9  A    between atoms: C_33  and  O_34 
ROOT
HETATM    1  C   UNL     1      39.406 -12.381   2.270  1.00  0.00     0.051 C 
HETATM    2  N   UNL     1      40.457 -12.336   3.161  1.00  0.00    -0.228 NA
HETATM    3  C   UNL     1      41.357 -13.250   3.106  1.00  0.00     0.170 C 
HETATM    4  N   UNL     1      41.478 -14.327   1.998  1.00  0.00    -0.318 N 
HETATM    5  C   UNL     1      42.506 -15.088   2.201  1.00  0.00     0.011 C 
HETATM    6  C   UNL     1      40.523 -14.152   0.872  1.00  0.00     0.166 C 
HETATM    7  S   UNL     1      42.635 -13.363   4.270  1.00  0.00    -0.086 SA
HETATM    8  C   UNL     1      43.214 -14.905   3.524  1.00  0.00     0.135 C 
HETATM    9  C   UNL     1      39.353 -13.282   1.263  1.00  0.00     0.069 C 
ENDROOT
BRANCH   5  10
HETATM   10  C   UNL     1      43.027 -16.048   1.173  1.00  0.00     0.156 C 
BRANCH  10  11
HETATM   11  C   UNL     1      42.876 -17.493   1.574  1.00  0.00     0.223 C 
HETATM   12  N   UNL     1      44.029 -18.115   1.996  1.00  0.00    -0.359 N 
HETATM   13  H   UNL     1      44.814 -17.537   2.284  1.00  0.00     0.162 HD
HETATM   14  O   UNL     1      41.799 -18.066   1.482  1.00  0.00    -0.273 OA
BRANCH  12  15
HETATM   15  C   UNL     1      43.994 -19.477   2.542  1.00  0.00     0.150 C 
BRANCH  15  16
HETATM   16  C   UNL     1      44.440 -19.573   4.016  1.00  0.00     0.254 C 
BRANCH  16  17
HETATM   17  N   UNL     1      43.897 -18.408   4.836  1.00  0.00    -0.070 N 
HETATM   18  H   UNL     1      43.965 -17.592   4.216  1.00  0.00     0.279 HD
HETATM   19  C   UNL     1      42.448 -18.559   5.244  1.00  0.00     0.235 C 
HETATM   20  C   UNL     1      41.975 -17.256   5.874  1.00  0.00     0.028 C 
HETATM   21  C   UNL     1      42.837 -16.865   7.069  1.00  0.00     0.003 C 
HETATM   22  C   UNL     1      44.317 -16.831   6.700  1.00  0.00     0.028 C 
HETATM   23  C   UNL     1      44.771 -18.128   6.044  1.00  0.00     0.235 C 
ENDBRANCH  16  17
ENDBRANCH  15  16
ENDBRANCH  12  15
ENDBRANCH  10  11
ENDBRANCH   5  10
BRANCH   6  24
HETATM   24  C   UNL     1      41.287 -13.619  -0.353  1.00  0.00    -0.024 A 
HETATM   25  C   UNL     1      41.411 -14.346  -1.563  1.00  0.00    -0.053 A 
HETATM   26  C   UNL     1      40.718 -15.655  -1.852  1.00  0.00     0.049 C 
HETATM   27  C   UNL     1      42.151 -13.790  -2.623  1.00  0.00     0.008 A 
HETATM   28  C   UNL     1      42.785 -12.555  -2.502  1.00  0.00     0.007 A 
HETATM   29  C   UNL     1      42.679 -11.827  -1.321  1.00  0.00    -0.061 A 
HETATM   30  C   UNL     1      43.301 -10.464  -1.214  1.00  0.00     0.048 C 
HETATM   31  C   UNL     1      41.913 -12.348  -0.271  1.00  0.00     0.017 A 
ENDBRANCH   6  24
BRANCH   9  32
HETATM   32  C   UNL     1      38.120 -13.577   0.484  1.00  0.00     0.293 C 
HETATM   33  O   UNL     1      37.297 -14.399   0.845  1.00  0.00    -0.259 OA
BRANCH  32  34
HETATM   34  O   UNL     1      37.963 -12.674  -0.508  1.00  0.00    -0.323 OA
HETATM   35  C   UNL     1      37.903 -13.224  -1.828  1.00  0.00     0.213 C 
ENDBRANCH  32  34
ENDBRANCH   9  32
BRANCH   1  36
HETATM   36  C   UNL     1      38.356 -11.311   2.549  1.00  0.00     0.056 C 
HETATM   37  C   UNL     1      38.743  -9.929   2.027  1.00  0.00     0.011 C 
ENDBRANCH   1  36
TORSDOF 9
ENDMDL
MODEL 2
REMARK VINA RESULT:      -7.2      1.401      2.533
REMARK  9 active torsions:
REMARK  status: ('A' for Active; 'I' for Inactive)
REMARK    1  A    between atoms: C_2  and  C_3 
REMARK    2  A    between atoms: C_7  and  C_8 
REMARK    3  A    between atoms: C_8  and  C_9 
REMARK       I    between atoms: C_9  and  N_10 
REMARK    4  A    between atoms: N_10  and  C_11 
REMARK    5  A    between atoms: C_11  and  C_12 
REMARK    6  A    between atoms: C_12  and  N_13 
REMARK    7  A    between atoms: C_21  and  C_22 
REMARK    8  A    between atoms: C_32  and  C_33 
REMARK    9  A    between atoms: C_33  and  O_34 
ROOT
HETATM    1  C   UNL     1      38.446 -11.565   1.849  1.00  0.00     0.051 C 
HETATM    2  N   UNL     1      39.198 -11.028   2.872  1.00  0.00    -0.228 NA
HETATM    3  C   UNL     1      40.244 -11.657   3.269  1.00  0.00     0.170 C 
HETATM    4  N   UNL     1      40.860 -12.902   2.581  1.00  0.00    -0.318 N 
HETATM    5  C   UNL     1      41.929 -13.292   3.198  1.00  0.00     0.011 C 
HETATM    6  C   UNL     1      40.216 -13.265   1.291  1.00  0.00     0.166 C 
HETATM    7  S   UNL     1      41.171 -11.142   4.639  1.00  0.00    -0.086 SA
HETATM    8  C   UNL     1      42.218 -12.611   4.517  1.00  0.00     0.135 C 
HETATM    9  C   UNL     1      38.836 -12.665   1.167  1.00  0.00     0.069 C 
ENDROOT
BRANCH   5  10
HETATM   10  C   UNL     1      42.879 -14.303   2.627  1.00  0.00     0.156 C 
BRANCH  10  11
HETATM   11  C   UNL     1      42.570 -15.717   3.046  1.00  0.00     0.223 C 
HETATM   12  N   UNL     1      43.302 -16.195   4.109  1.00  0.00    -0.359 N 
HETATM   13  H   UNL     1      43.772 -15.526   4.713  1.00  0.00     0.162 HD
HETATM   14  O   UNL     1      41.748 -16.391   2.439  1.00  0.00    -0.273 OA
BRANCH  12  15
HETATM   15  C   UNL     1      43.005 -17.504   4.701  1.00  0.00     0.150 C 
BRANCH  15  16
HETATM   16  C   UNL     1      44.225 -18.445   4.789  1.00  0.00     0.254 C 
BRANCH  16  17
HETATM   17  N   UNL     1      44.007 -19.714   3.971  1.00  0.00    -0.070 N 
HETATM   18  H   UNL     1      43.110 -20.090   4.300  1.00  0.00     0.279 HD
HETATM   19  C   UNL     1      43.893 -19.479   2.481  1.00  0.00     0.235 C 
HETATM   20  C   UNL     1      43.478 -20.780   1.808  1.00  0.00     0.028 C 
HETATM   21  C   UNL     1      44.463 -21.905   2.106  1.00  0.00     0.003 C 
HETATM   22  C   UNL     1      44.684 -22.069   3.607  1.00  0.00     0.028 C 
HETATM   23  C   UNL     1      45.069 -20.754   4.274  1.00  0.00     0.235 C 
ENDBRANCH  16  17
ENDBRANCH  15  16
ENDBRANCH  12  15
ENDBRANCH  10  11
ENDBRANCH   5  10
BRANCH   6  24
HETATM   24  C   UNL     1      41.151 -12.867   0.135  1.00  0.00    -0.024 A 
HETATM   25  C   UNL     1      41.545 -13.768  -0.886  1.00  0.00    -0.053 A 
HETATM   26  C   UNL     1      41.011 -15.169  -1.046  1.00  0.00     0.049 C 
HETATM   27  C   UNL     1      42.425 -13.321  -1.889  1.00  0.00     0.008 A 
HETATM   28  C   UNL     1      42.937 -12.025  -1.888  1.00  0.00     0.007 A 
HETATM   29  C   UNL     1      42.566 -11.128  -0.893  1.00  0.00    -0.061 A 
HETATM   30  C   UNL     1      43.059  -9.709  -0.931  1.00  0.00     0.048 C 
HETATM   31  C   UNL     1      41.660 -11.543   0.091  1.00  0.00     0.017 A 
ENDBRANCH   6  24
BRANCH   9  32
HETATM   32  C   UNL     1      37.932 -13.455   0.289  1.00  0.00     0.293 C 
HETATM   33  O   UNL     1      37.197 -14.326   0.718  1.00  0.00    -0.259 OA
BRANCH  32  34
HETATM   34  O   UNL     1      37.898 -12.923  -0.951  1.00  0.00    -0.323 OA
HETATM   35  C   UNL     1      37.847 -13.872  -2.021  1.00  0.00     0.213 C 
ENDBRANCH  32  34
ENDBRANCH   9  32
BRANCH   1  36
HETATM   36  C   UNL     1      37.169 -10.773   1.584  1.00  0.00     0.056 C 
HETATM   37  C   UNL     1      37.387  -9.543   0.707  1.00  0.00     0.011 C 
ENDBRANCH   1  36
TORSDOF 9
ENDMDL
MODEL 3
REMARK VINA RESULT:      -7.1      2.157      2.958
REMARK  9 active torsions:
REMARK  status: ('A' for Active; 'I' for Inactive)
REMARK    1  A    between atoms: C_2  and  C_3 
REMARK    2  A    between atoms: C_7  and  C_8 
REMARK    3  A    between atoms: C_8  and  C_9 
REMARK       I    between atoms: C_9  and  N_10 
REMARK    4  A    between atoms: N_10  and  C_11 
REMARK    5  A    between atoms: C_11  and  C_12 
REMARK    6  A    between atoms: C_12  and  N_13 
REMARK    7  A    between atoms: C_21  and  C_22 
REMARK    8  A    between atoms: C_32  and  C_33 
REMARK    9  A    between atoms: C_33  and  O_34 
ROOT
HETATM    1  C   UNL     1      37.604 -12.319  -0.331  1.00  0.00     0.051 C 
HETATM    2  N   UNL     1      37.986 -12.317   0.994  1.00  0.00    -0.228 NA
HETATM    3  C   UNL     1      38.954 -13.075   1.361  1.00  0.00     0.170 C 
HETATM    4  N   UNL     1      39.875 -13.883   0.411  1.00  0.00    -0.318 N 
HETATM    5  C   UNL     1      40.778 -14.527   1.077  1.00  0.00     0.011 C 
HETATM    6  C   UNL     1      39.647 -13.611  -1.033  1.00  0.00     0.166 C 
HETATM    7  S   UNL     1      39.413 -13.252   3.023  1.00  0.00    -0.086 SA
HETATM    8  C   UNL     1      40.621 -14.523   2.581  1.00  0.00     0.135 C 
HETATM    9  C   UNL     1      38.289 -12.997  -1.278  1.00  0.00     0.069 C 
ENDROOT
BRANCH   5  10
HETATM   10  C   UNL     1      41.959 -15.185   0.426  1.00  0.00     0.156 C 
BRANCH  10  11
HETATM   11  C   UNL     1      42.147 -16.622   0.840  1.00  0.00     0.223 C 
HETATM   12  N   UNL     1      43.449 -17.014   1.049  1.00  0.00    -0.359 N 
HETATM   13  H   UNL     1      44.154 -16.296   1.196  1.00  0.00     0.162 HD
HETATM   14  O   UNL     1      41.192 -17.382   0.937  1.00  0.00    -0.273 OA
BRANCH  12  15
HETATM   15  C   UNL     1      43.759 -18.344   1.585  1.00  0.00     0.150 C 
BRANCH  15  16
HETATM   16  C   UNL     1      43.963 -18.372   3.114  1.00  0.00     0.254 C 
BRANCH  16  17
HETATM   17  N   UNL     1      43.997 -19.802   3.643  1.00  0.00    -0.070 N 
HETATM   18  H   UNL     1      43.011 -20.066   3.759  1.00  0.00     0.279 HD
HETATM   19  C   UNL     1      44.635 -20.797   2.699  1.00  0.00     0.235 C 
HETATM   20  C   UNL     1      44.425 -22.201   3.249  1.00  0.00     0.028 C 
HETATM   21  C   UNL     1      44.996 -22.345   4.655  1.00  0.00     0.003 C 
HETATM   22  C   UNL     1      44.455 -21.267   5.588  1.00  0.00     0.028 C 
HETATM   23  C   UNL     1      44.643 -19.868   5.015  1.00  0.00     0.235 C 
ENDBRANCH  16  17
ENDBRANCH  15  16
ENDBRANCH  12  15
ENDBRANCH  10  11
ENDBRANCH   5  10
BRANCH   6  24
HETATM   24  C   UNL     1      40.803 -12.747  -1.568  1.00  0.00    -0.024 A 
HETATM   25  C   UNL     1      41.625 -13.143  -2.652  1.00  0.00    -0.053 A 
HETATM   26  C   UNL     1      41.403 -14.376  -3.492  1.00  0.00     0.049 C 
HETATM   27  C   UNL     1      42.677 -12.299  -3.056  1.00  0.00     0.008 A 
HETATM   28  C   UNL     1      42.943 -11.099  -2.401  1.00  0.00     0.007 A 
HETATM   29  C   UNL     1      42.150 -10.694  -1.333  1.00  0.00    -0.061 A 
HETATM   30  C   UNL     1      42.391  -9.367  -0.672  1.00  0.00     0.048 C 
HETATM   31  C   UNL     1      41.075 -11.502  -0.942  1.00  0.00     0.017 A 
ENDBRANCH   6  24
BRANCH   9  32
HETATM   32  C   UNL     1      37.753 -13.288  -2.635  1.00  0.00     0.293 C 
HETATM   33  O   UNL     1      37.826 -12.492  -3.553  1.00  0.00    -0.259 OA
BRANCH  32  34
HETATM   34  O   UNL     1      37.402 -14.588  -2.733  1.00  0.00    -0.323 OA
HETATM   35  C   UNL     1      37.820 -15.245  -3.933  1.00  0.00     0.213 C 
ENDBRANCH  32  34
ENDBRANCH   9  32
BRANCH   1  36
HETATM   36  C   UNL     1      36.359 -11.473  -0.582  1.00  0.00     0.056 C 
HETATM   37  C   UNL     1      35.475 -11.312   0.652  1.00  0.00     0.011 C 
ENDBRANCH   1  36
TORSDOF 9
ENDMDL
MODEL 4
REMARK VINA RESULT:      -7.1      4.707      7.596
REMARK  9 active torsions:
REMARK  status: ('A' for Active; 'I' for Inactive)
REMARK    1  A    between atoms: C_2  and  C_3 
REMARK    2  A    between atoms: C_7  and  C_8 
REMARK    3  A    between atoms: C_8  and  C_9 
REMARK       I    between atoms: C_9  and  N_10 
REMARK    4  A    between atoms: N_10  and  C_11 
REMARK    5  A    between atoms: C_11  and  C_12 
REMARK    6  A    between atoms: C_12  and  N_13 
REMARK    7  A    between atoms: C_21  and  C_22 
REMARK    8  A    between atoms: C_32  and  C_33 
REMARK    9  A    between atoms: C_33  and  O_34 
ROOT
HETATM    1  C   UNL     1      41.643 -14.246   1.955  1.00  0.00     0.051 C 
HETATM    2  N   UNL     1      41.684 -12.881   2.146  1.00  0.00    -0.228 NA
HETATM    3  C   UNL     1      41.111 -12.383   3.181  1.00  0.00     0.170 C 
HETATM    4  N   UNL     1      40.513 -13.196   4.357  1.00  0.00    -0.318 N 
HETATM    5  C   UNL     1      40.032 -12.410   5.267  1.00  0.00     0.011 C 
HETATM    6  C   UNL     1      40.773 -14.658   4.281  1.00  0.00     0.166 C 
HETATM    7  S   UNL     1      40.982 -10.674   3.435  1.00  0.00    -0.086 SA
HETATM    8  C   UNL     1      39.970 -10.943   4.909  1.00  0.00     0.135 C 
HETATM    9  C   UNL     1      41.128 -15.089   2.878  1.00  0.00     0.069 C 
ENDROOT
BRANCH   5  10
HETATM   10  C   UNL     1      39.623 -12.891   6.627  1.00  0.00     0.156 C 
BRANCH  10  11
HETATM   11  C   UNL     1      39.784 -11.848   7.704  1.00  0.00     0.223 C 
HETATM   12  N   UNL     1      41.076 -11.441   7.948  1.00  0.00    -0.359 N 
HETATM   13  H   UNL     1      41.783 -11.625   7.241  1.00  0.00     0.162 HD
HETATM   14  O   UNL     1      38.819 -11.437   8.334  1.00  0.00    -0.273 OA
BRANCH  12  15
HETATM   15  C   UNL     1      41.356 -10.336   8.872  1.00  0.00     0.150 C 
BRANCH  15  16
HETATM   16  C   UNL     1      42.638 -10.528   9.708  1.00  0.00     0.254 C 
BRANCH  16  17
HETATM   17  N   UNL     1      42.396 -10.199  11.177  1.00  0.00    -0.070 N 
HETATM   18  H   UNL     1      41.999  -9.252  11.175  1.00  0.00     0.279 HD
HETATM   19  C   UNL     1      41.406 -11.114  11.863  1.00  0.00     0.235 C 
HETATM   20  C   UNL     1      41.103 -10.562  13.249  1.00  0.00     0.028 C 
HETATM   21  C   UNL     1      42.369 -10.411  14.083  1.00  0.00     0.003 C 
HETATM   22  C   UNL     1      43.426  -9.592  13.348  1.00  0.00     0.028 C 
HETATM   23  C   UNL     1      43.700 -10.136  11.951  1.00  0.00     0.235 C 
ENDBRANCH  16  17
ENDBRANCH  15  16
ENDBRANCH  12  15
ENDBRANCH  10  11
ENDBRANCH   5  10
BRANCH   6  24
HETATM   24  C   UNL     1      41.851 -15.029   5.316  1.00  0.00    -0.024 A 
HETATM   25  C   UNL     1      41.707 -16.104   6.228  1.00  0.00    -0.053 A 
HETATM   26  C   UNL     1      40.563 -17.086   6.224  1.00  0.00     0.049 C 
HETATM   27  C   UNL     1      42.735 -16.353   7.157  1.00  0.00     0.008 A 
HETATM   28  C   UNL     1      43.875 -15.555   7.217  1.00  0.00     0.007 A 
HETATM   29  C   UNL     1      44.033 -14.494   6.332  1.00  0.00    -0.061 A 
HETATM   30  C   UNL     1      45.294 -13.678   6.347  1.00  0.00     0.048 C 
HETATM   31  C   UNL     1      43.039 -14.255   5.375  1.00  0.00     0.017 A 
ENDBRANCH   6  24
BRANCH   9  32
HETATM   32  C   UNL     1      40.776 -16.506   2.596  1.00  0.00     0.293 C 
HETATM   33  O   UNL     1      39.758 -16.824   2.007  1.00  0.00    -0.259 OA
BRANCH  32  34
HETATM   34  O   UNL     1      41.818 -17.316   2.881  1.00  0.00    -0.323 OA
HETATM   35  C   UNL     1      42.216 -18.193   1.823  1.00  0.00     0.213 C 
ENDBRANCH  32  34
ENDBRANCH   9  32
BRANCH   1  36
HETATM   36  C   UNL     1      42.248 -14.669   0.619  1.00  0.00     0.056 C 
HETATM   37  C   UNL     1      41.254 -14.621  -0.539  1.00  0.00     0.011 C 
ENDBRANCH   1  36
TORSDOF 9
ENDMDL
MODEL 5
REMARK VINA RESULT:      -6.9      2.829      5.172
REMARK  9 active torsions:
REMARK  status: ('A' for Active; 'I' for Inactive)
REMARK    1  A    between atoms: C_2  and  C_3 
REMARK    2  A    between atoms: C_7  and  C_8 
REMARK    3  A    between atoms: C_8  and  C_9 
REMARK       I    between atoms: C_9  and  N_10 
REMARK    4  A    between atoms: N_10  and  C_11 
REMARK    5  A    between atoms: C_11  and  C_12 
REMARK    6  A    between atoms: C_12  and  N_13 
REMARK    7  A    between atoms: C_21  and  C_22 
REMARK    8  A    between atoms: C_32  and  C_33 
REMARK    9  A    between atoms: C_33  and  O_34 
ROOT
HETATM    1  C   UNL     1      41.250 -11.230  -2.788  1.00  0.00     0.051 C 
HETATM    2  N   UNL     1      40.733 -12.346  -3.410  1.00  0.00    -0.228 NA
HETATM    3  C   UNL     1      40.709 -13.458  -2.769  1.00  0.00     0.170 C 
HETATM    4  N   UNL     1      41.050 -13.638  -1.268  1.00  0.00    -0.318 N 
HETATM    5  C   UNL     1      40.905 -14.872  -0.904  1.00  0.00     0.011 C 
HETATM    6  C   UNL     1      41.289 -12.364  -0.541  1.00  0.00     0.166 C 
HETATM    7  S   UNL     1      40.216 -14.944  -3.511  1.00  0.00    -0.086 SA
HETATM    8  C   UNL     1      40.649 -15.865  -2.016  1.00  0.00     0.135 C 
HETATM    9  C   UNL     1      41.619 -11.235  -1.487  1.00  0.00     0.069 C 
ENDROOT
BRANCH   5  10
HETATM   10  C   UNL     1      40.912 -15.307   0.531  1.00  0.00     0.156 C 
BRANCH  10  11
HETATM   11  C   UNL     1      41.569 -16.646   0.748  1.00  0.00     0.223 C 
HETATM   12  N   UNL     1      42.942 -16.655   0.662  1.00  0.00    -0.359 N 
HETATM   13  H   UNL     1      43.439 -15.772   0.749  1.00  0.00     0.162 HD
HETATM   14  O   UNL     1      40.900 -17.653   0.943  1.00  0.00    -0.273 OA
BRANCH  12  15
HETATM   15  C   UNL     1      43.709 -17.863   0.987  1.00  0.00     0.150 C 
BRANCH  15  16
HETATM   16  C   UNL     1      43.900 -18.097   2.500  1.00  0.00     0.254 C 
BRANCH  16  17
HETATM   17  N   UNL     1      44.398 -19.511   2.783  1.00  0.00    -0.070 N 
HETATM   18  H   UNL     1      45.383 -19.508   2.493  1.00  0.00     0.279 HD
HETATM   19  C   UNL     1      44.347 -19.905   4.243  1.00  0.00     0.235 C 
HETATM   20  C   UNL     1      45.051 -21.243   4.417  1.00  0.00     0.028 C 
HETATM   21  C   UNL     1      44.428 -22.324   3.541  1.00  0.00     0.003 C 
HETATM   22  C   UNL     1      44.359 -21.886   2.081  1.00  0.00     0.028 C 
HETATM   23  C   UNL     1      43.679 -20.533   1.922  1.00  0.00     0.235 C 
ENDBRANCH  16  17
ENDBRANCH  15  16
ENDBRANCH  12  15
ENDBRANCH  10  11
ENDBRANCH   5  10
BRANCH   6  24
HETATM   24  C   UNL     1      40.074 -12.063   0.355  1.00  0.00    -0.024 A 
HETATM   25  C   UNL     1      40.153 -11.994   1.768  1.00  0.00    -0.053 A 
HETATM   26  C   UNL     1      41.434 -12.075   2.560  1.00  0.00     0.049 C 
HETATM   27  C   UNL     1      38.983 -11.738   2.507  1.00  0.00     0.008 A 
HETATM   28  C   UNL     1      37.747 -11.578   1.884  1.00  0.00     0.007 A 
HETATM   29  C   UNL     1      37.647 -11.647   0.499  1.00  0.00    -0.061 A 
HETATM   30  C   UNL     1      36.328 -11.402  -0.178  1.00  0.00     0.048 C 
HETATM   31  C   UNL     1      38.808 -11.860  -0.254  1.00  0.00     0.017 A 
ENDBRANCH   6  24
BRANCH   9  32
HETATM   32  C   UNL     1      42.459 -10.177  -0.864  1.00  0.00     0.293 C 
HETATM   33  O   UNL     1      43.628 -10.356  -0.571  1.00  0.00    -0.259 OA
BRANCH  32  34
HETATM   34  O   UNL     1      41.816  -8.991  -0.887  1.00  0.00    -0.323 OA
HETATM   35  C   UNL     1      41.097  -8.663   0.306  1.00  0.00     0.213 C 
ENDBRANCH  32  34
ENDBRANCH   9  32
BRANCH   1  36
HETATM   36  C   UNL     1      41.333 -10.025  -3.721  1.00  0.00     0.056 C 
HETATM   37  C   UNL     1      42.512 -10.087  -4.688  1.00  0.00     0.011 C 
ENDBRANCH   1  36
TORSDOF 9
ENDMDL
MODEL 6
REMARK VINA RESULT:      -6.8      2.818      5.336
REMARK  9 active torsions:
REMARK  status: ('A' for Active; 'I' for Inactive)
REMARK    1  A    between atoms: C_2  and  C_3 
REMARK    2  A    between atoms: C_7  and  C_8 
REMARK    3  A    between atoms: C_8  and  C_9 
REMARK       I    between atoms: C_9  and  N_10 
REMARK    4  A    between atoms: N_10  and  C_11 
REMARK    5  A    between atoms: C_11  and  C_12 
REMARK    6  A    between atoms: C_12  and  N_13 
REMARK    7  A    between atoms: C_21  and  C_22 
REMARK    8  A    between atoms: C_32  and  C_33 
REMARK    9  A    between atoms: C_33  and  O_34 
ROOT
HETATM    1  C   UNL     1      41.348 -11.943  -2.022  1.00  0.00     0.051 C 
HETATM    2  N   UNL     1      41.857 -10.921  -1.249  1.00  0.00    -0.228 NA
HETATM    3  C   UNL     1      41.155 -10.476  -0.270  1.00  0.00     0.170 C 
HETATM    4  N   UNL     1      39.837 -11.104   0.251  1.00  0.00    -0.318 N 
HETATM    5  C   UNL     1      39.381 -10.447   1.269  1.00  0.00     0.011 C 
HETATM    6  C   UNL     1      39.483 -12.396  -0.393  1.00  0.00     0.166 C 
HETATM    7  S   UNL     1      41.640  -9.103   0.668  1.00  0.00    -0.086 SA
HETATM    8  C   UNL     1      40.083  -9.146   1.587  1.00  0.00     0.135 C 
HETATM    9  C   UNL     1      40.194 -12.575  -1.714  1.00  0.00     0.069 C 
ENDROOT
BRANCH   5  10
HETATM   10  C   UNL     1      38.272 -10.958   2.140  1.00  0.00     0.156 C 
BRANCH  10  11
HETATM   11  C   UNL     1      38.678 -11.140   3.580  1.00  0.00     0.223 C 
HETATM   12  N   UNL     1      39.712 -12.021   3.799  1.00  0.00    -0.359 N 
HETATM   13  H   UNL     1      40.313 -12.267   3.016  1.00  0.00     0.162 HD
HETATM   14  O   UNL     1      38.084 -10.563   4.481  1.00  0.00    -0.273 OA
BRANCH  12  15
HETATM   15  C   UNL     1      40.292 -12.185   5.136  1.00  0.00     0.150 C 
BRANCH  15  16
HETATM   16  C   UNL     1      39.849 -13.475   5.859  1.00  0.00     0.254 C 
BRANCH  16  17
HETATM   17  N   UNL     1      41.050 -14.325   6.261  1.00  0.00    -0.070 N 
HETATM   18  H   UNL     1      41.138 -14.195   7.277  1.00  0.00     0.279 HD
HETATM   19  C   UNL     1      40.878 -15.804   5.997  1.00  0.00     0.235 C 
HETATM   20  C   UNL     1      42.046 -16.555   6.623  1.00  0.00     0.028 C 
HETATM   21  C   UNL     1      43.384 -16.060   6.085  1.00  0.00     0.003 C 
HETATM   22  C   UNL     1      43.517 -14.547   6.232  1.00  0.00     0.028 C 
HETATM   23  C   UNL     1      42.329 -13.808   5.630  1.00  0.00     0.235 C 
ENDBRANCH  16  17
ENDBRANCH  15  16
ENDBRANCH  12  15
ENDBRANCH  10  11
ENDBRANCH   5  10
BRANCH   6  24
HETATM   24  C   UNL     1      39.756 -13.542   0.598  1.00  0.00    -0.024 A 
HETATM   25  C   UNL     1      38.729 -14.343   1.155  1.00  0.00    -0.053 A 
HETATM   26  C   UNL     1      37.274 -14.267   0.763  1.00  0.00     0.049 C 
HETATM   27  C   UNL     1      39.072 -15.352   2.074  1.00  0.00     0.008 A 
HETATM   28  C   UNL     1      40.391 -15.564   2.467  1.00  0.00     0.007 A 
HETATM   29  C   UNL     1      41.414 -14.787   1.934  1.00  0.00    -0.061 A 
HETATM   30  C   UNL     1      42.844 -15.062   2.301  1.00  0.00     0.048 C 
HETATM   31  C   UNL     1      41.095 -13.804   0.989  1.00  0.00     0.017 A 
ENDBRANCH   6  24
BRANCH   9  32
HETATM   32  C   UNL     1      39.451 -13.447  -2.663  1.00  0.00     0.293 C 
HETATM   33  O   UNL     1      38.715 -13.001  -3.524  1.00  0.00    -0.259 OA
BRANCH  32  34
HETATM   34  O   UNL     1      39.881 -14.723  -2.564  1.00  0.00    -0.323 OA
HETATM   35  C   UNL     1      39.563 -15.562  -3.679  1.00  0.00     0.213 C 
ENDBRANCH  32  34
ENDBRANCH   9  32
BRANCH   1  36
HETATM   36  C   UNL     1      42.235 -12.267  -3.220  1.00  0.00     0.056 C 
HETATM   37  C   UNL     1      42.213 -11.189  -4.301  1.00  0.00     0.011 C 
ENDBRANCH   1  36
TORSDOF 9
ENDMDL
MODEL 7
REMARK VINA RESULT:      -6.8      1.760      2.295
REMARK  9 active torsions:
REMARK  status: ('A' for Active; 'I' for Inactive)
REMARK    1  A    between atoms: C_2  and  C_3 
REMARK    2  A    between atoms: C_7  and  C_8 
REMARK    3  A    between atoms: C_8  and  C_9 
REMARK       I    between atoms: C_9  and  N_10 
REMARK    4  A    between atoms: N_10  and  C_11 
REMARK    5  A    between atoms: C_11  and  C_12 
REMARK    6  A    between atoms: C_12  and  N_13 
REMARK    7  A    between atoms: C_21  and  C_22 
REMARK    8  A    between atoms: C_32  and  C_33 
REMARK    9  A    between atoms: C_33  and  O_34 
ROOT
HETATM    1  C   UNL     1      39.290 -11.148   1.815  1.00  0.00     0.051 C 
HETATM    2  N   UNL     1      40.342 -11.433   2.660  1.00  0.00    -0.228 NA
HETATM    3  C   UNL     1      40.974 -12.540   2.509  1.00  0.00     0.170 C 
HETATM    4  N   UNL     1      40.782 -13.535   1.336  1.00  0.00    -0.318 N 
HETATM    5  C   UNL     1      41.585 -14.544   1.447  1.00  0.00     0.011 C 
HETATM    6  C   UNL     1      39.873 -13.045   0.267  1.00  0.00     0.166 C 
HETATM    7  S   UNL     1      42.213 -13.055   3.606  1.00  0.00    -0.086 SA
HETATM    8  C   UNL     1      42.354 -14.639   2.745  1.00  0.00     0.135 C 
HETATM    9  C   UNL     1      38.977 -11.934   0.761  1.00  0.00     0.069 C 
ENDROOT
BRANCH   5  10
HETATM   10  C   UNL     1      41.811 -15.532   0.342  1.00  0.00     0.156 C 
BRANCH  10  11
HETATM   11  C   UNL     1      42.148 -16.916   0.837  1.00  0.00     0.223 C 
HETATM   12  N   UNL     1      43.488 -17.229   0.855  1.00  0.00    -0.359 N 
HETATM   13  H   UNL     1      44.164 -16.471   0.822  1.00  0.00     0.162 HD
HETATM   14  O   UNL     1      41.269 -17.705   1.155  1.00  0.00    -0.273 OA
BRANCH  12  15
HETATM   15  C   UNL     1      43.959 -18.490   1.441  1.00  0.00     0.150 C 
BRANCH  15  16
HETATM   16  C   UNL     1      44.063 -18.466   2.980  1.00  0.00     0.254 C 
BRANCH  16  17
HETATM   17  N   UNL     1      44.049 -19.877   3.558  1.00  0.00    -0.070 N 
HETATM   18  H   UNL     1      43.055 -20.103   3.684  1.00  0.00     0.279 HD
HETATM   19  C   UNL     1      44.650 -20.926   2.648  1.00  0.00     0.235 C 
HETATM   20  C   UNL     1      44.394 -22.302   3.247  1.00  0.00     0.028 C 
HETATM   21  C   UNL     1      44.963 -22.416   4.656  1.00  0.00     0.003 C 
HETATM   22  C   UNL     1      44.462 -21.288   5.552  1.00  0.00     0.028 C 
HETATM   23  C   UNL     1      44.697 -19.918   4.930  1.00  0.00     0.235 C 
ENDBRANCH  16  17
ENDBRANCH  15  16
ENDBRANCH  12  15
ENDBRANCH  10  11
ENDBRANCH   5  10
BRANCH   6  24
HETATM   24  C   UNL     1      40.712 -12.642  -0.959  1.00  0.00    -0.024 A 
HETATM   25  C   UNL     1      40.581 -13.266  -2.224  1.00  0.00    -0.053 A 
HETATM   26  C   UNL     1      39.536 -14.298  -2.568  1.00  0.00     0.049 C 
HETATM   27  C   UNL     1      41.411 -12.848  -3.281  1.00  0.00     0.008 A 
HETATM   28  C   UNL     1      42.373 -11.855  -3.107  1.00  0.00     0.007 A 
HETATM   29  C   UNL     1      42.520 -11.233  -1.872  1.00  0.00    -0.061 A 
HETATM   30  C   UNL     1      43.506 -10.113  -1.701  1.00  0.00     0.048 C 
HETATM   31  C   UNL     1      41.676 -11.609  -0.819  1.00  0.00     0.017 A 
ENDBRANCH   6  24
BRANCH   9  32
HETATM   32  C   UNL     1      37.688 -11.851   0.023  1.00  0.00     0.293 C 
HETATM   33  O   UNL     1      36.623 -12.158   0.527  1.00  0.00    -0.259 OA
BRANCH  32  34
HETATM   34  O   UNL     1      37.858 -11.202  -1.149  1.00  0.00    -0.323 OA
HETATM   35  C   UNL     1      36.900 -11.516  -2.165  1.00  0.00     0.213 C 
ENDBRANCH  32  34
ENDBRANCH   9  32
BRANCH   1  36
HETATM   36  C   UNL     1      38.558  -9.867   2.204  1.00  0.00     0.056 C 
HETATM   37  C   UNL     1      37.811  -9.973   3.531  1.00  0.00     0.011 C 
ENDBRANCH   1  36
TORSDOF 9
ENDMDL
MODEL 8
REMARK VINA RESULT:      -6.5      3.588      6.389
REMARK  9 active torsions:
REMARK  status: ('A' for Active; 'I' for Inactive)
REMARK    1  A    between atoms: C_2  and  C_3 
REMARK    2  A    between atoms: C_7  and  C_8 
REMARK    3  A    between atoms: C_8  and  C_9 
REMARK       I    between atoms: C_9  and  N_10 
REMARK    4  A    between atoms: N_10  and  C_11 
REMARK    5  A    between atoms: C_11  and  C_12 
REMARK    6  A    between atoms: C_12  and  N_13 
REMARK    7  A    between atoms: C_21  and  C_22 
REMARK    8  A    between atoms: C_32  and  C_33 
REMARK    9  A    between atoms: C_33  and  O_34 
ROOT
HETATM    1  C   UNL     1      40.176 -11.455   6.639  1.00  0.00     0.051 C 
HETATM    2  N   UNL     1      39.375 -11.745   5.554  1.00  0.00    -0.228 NA
HETATM    3  C   UNL     1      39.926 -12.163   4.472  1.00  0.00     0.170 C 
HETATM    4  N   UNL     1      41.418 -12.550   4.313  1.00  0.00    -0.318 N 
HETATM    5  C   UNL     1      41.664 -12.964   3.111  1.00  0.00     0.011 C 
HETATM    6  C   UNL     1      42.189 -12.538   5.584  1.00  0.00     0.166 C 
HETATM    7  S   UNL     1      39.026 -12.415   3.013  1.00  0.00    -0.086 SA
HETATM    8  C   UNL     1      40.546 -12.791   2.109  1.00  0.00     0.135 C 
HETATM    9  C   UNL     1      41.504 -11.709   6.645  1.00  0.00     0.069 C 
ENDROOT
BRANCH   5  10
HETATM   10  C   UNL     1      42.945 -13.643   2.728  1.00  0.00     0.156 C 
BRANCH  10  11
HETATM   11  C   UNL     1      42.752 -15.059   2.251  1.00  0.00     0.223 C 
HETATM   12  N   UNL     1      42.999 -16.039   3.185  1.00  0.00    -0.359 N 
HETATM   13  H   UNL     1      43.008 -15.780   4.168  1.00  0.00     0.162 HD
HETATM   14  O   UNL     1      42.438 -15.299   1.093  1.00  0.00    -0.273 OA
BRANCH  12  15
HETATM   15  C   UNL     1      42.717 -17.449   2.891  1.00  0.00     0.150 C 
BRANCH  15  16
HETATM   16  C   UNL     1      43.973 -18.286   2.572  1.00  0.00     0.254 C 
BRANCH  16  17
HETATM   17  N   UNL     1      44.003 -19.574   3.388  1.00  0.00    -0.070 N 
HETATM   18  H   UNL     1      43.017 -19.834   3.510  1.00  0.00     0.279 HD
HETATM   19  C   UNL     1      44.705 -20.726   2.703  1.00  0.00     0.235 C 
HETATM   20  C   UNL     1      44.490 -21.990   3.523  1.00  0.00     0.028 C 
HETATM   21  C   UNL     1      44.991 -21.824   4.953  1.00  0.00     0.003 C 
HETATM   22  C   UNL     1      44.385 -20.591   5.615  1.00  0.00     0.028 C 
HETATM   23  C   UNL     1      44.579 -19.337   4.772  1.00  0.00     0.235 C 
ENDBRANCH  16  17
ENDBRANCH  15  16
ENDBRANCH  12  15
ENDBRANCH  10  11
ENDBRANCH   5  10
BRANCH   6  24
HETATM   24  C   UNL     1      42.446 -13.989   6.028  1.00  0.00    -0.024 A 
HETATM   25  C   UNL     1      43.736 -14.484   6.342  1.00  0.00    -0.053 A 
HETATM   26  C   UNL     1      44.985 -13.641   6.408  1.00  0.00     0.049 C 
HETATM   27  C   UNL     1      43.879 -15.834   6.714  1.00  0.00     0.008 A 
HETATM   28  C   UNL     1      42.788 -16.699   6.755  1.00  0.00     0.007 A 
HETATM   29  C   UNL     1      41.514 -16.234   6.446  1.00  0.00    -0.061 A 
HETATM   30  C   UNL     1      40.326 -17.147   6.561  1.00  0.00     0.048 C 
HETATM   31  C   UNL     1      41.348 -14.884   6.113  1.00  0.00     0.017 A 
ENDBRANCH   6  24
BRANCH   9  32
HETATM   32  C   UNL     1      42.449 -11.138   7.641  1.00  0.00     0.293 C 
HETATM   33  O   UNL     1      42.568  -9.939   7.819  1.00  0.00    -0.259 OA
BRANCH  32  34
HETATM   34  O   UNL     1      42.954 -12.114   8.424  1.00  0.00    -0.323 OA
HETATM   35  C   UNL     1      43.908 -11.682   9.400  1.00  0.00     0.213 C 
ENDBRANCH  32  34
ENDBRANCH   9  32
BRANCH   1  36
HETATM   36  C   UNL     1      39.393 -10.844   7.797  1.00  0.00     0.056 C 
HETATM   37  C   UNL     1      39.158  -9.343   7.648  1.00  0.00     0.011 C 
ENDBRANCH   1  36
TORSDOF 9
ENDMDL
MODEL 9
REMARK VINA RESULT:      -6.4      2.576      4.625
REMARK  9 active torsions:
REMARK  status: ('A' for Active; 'I' for Inactive)
REMARK    1  A    between atoms: C_2  and  C_3 
REMARK    2  A    between atoms: C_7  and  C_8 
REMARK    3  A    between atoms: C_8  and  C_9 
REMARK       I    between atoms: C_9  and  N_10 
REMARK    4  A    between atoms: N_10  and  C_11 
REMARK    5  A    between atoms: C_11  and  C_12 
REMARK    6  A    between atoms: C_12  and  N_13 
REMARK    7  A    between atoms: C_21  and  C_22 
REMARK    8  A    between atoms: C_32  and  C_33 
REMARK    9  A    between atoms: C_33  and  O_34 
ROOT
HETATM    1  C   UNL     1      39.001 -13.623  -2.246  1.00  0.00     0.051 C 
HETATM    2  N   UNL     1      38.361 -13.979  -1.077  1.00  0.00    -0.228 NA
HETATM    3  C   UNL     1      39.005 -13.900   0.031  1.00  0.00     0.170 C 
HETATM    4  N   UNL     1      40.407 -13.264   0.213  1.00  0.00    -0.318 N 
HETATM    5  C   UNL     1      40.778 -13.307   1.453  1.00  0.00     0.011 C 
HETATM    6  C   UNL     1      40.935 -12.595  -1.005  1.00  0.00     0.166 C 
HETATM    7  S   UNL     1      38.341 -14.459   1.530  1.00  0.00    -0.086 SA
HETATM    8  C   UNL     1      39.900 -14.118   2.379  1.00  0.00     0.135 C 
HETATM    9  C   UNL     1      40.239 -13.080  -2.254  1.00  0.00     0.069 C 
ENDROOT
BRANCH   5  10
HETATM   10  C   UNL     1      41.961 -12.549   1.978  1.00  0.00     0.156 C 
BRANCH  10  11
HETATM   11  C   UNL     1      42.721 -13.292   3.047  1.00  0.00     0.223 C 
HETATM   12  N   UNL     1      42.408 -12.951   4.342  1.00  0.00    -0.359 N 
HETATM   13  H   UNL     1      41.531 -12.467   4.518  1.00  0.00     0.162 HD
HETATM   14  O   UNL     1      43.585 -14.108   2.756  1.00  0.00    -0.273 OA
BRANCH  12  15
HETATM   15  C   UNL     1      42.975 -13.694   5.474  1.00  0.00     0.150 C 
BRANCH  15  16
HETATM   16  C   UNL     1      42.241 -15.014   5.790  1.00  0.00     0.254 C 
BRANCH  16  17
HETATM   17  N   UNL     1      42.886 -16.192   5.068  1.00  0.00    -0.070 N 
HETATM   18  H   UNL     1      43.608 -15.774   4.469  1.00  0.00     0.279 HD
HETATM   19  C   UNL     1      43.565 -17.185   5.986  1.00  0.00     0.235 C 
HETATM   20  C   UNL     1      44.334 -18.191   5.141  1.00  0.00     0.028 C 
HETATM   21  C   UNL     1      43.422 -18.905   4.149  1.00  0.00     0.003 C 
HETATM   22  C   UNL     1      42.637 -17.910   3.300  1.00  0.00     0.028 C 
HETATM   23  C   UNL     1      41.895 -16.891   4.155  1.00  0.00     0.235 C 
ENDBRANCH  16  17
ENDBRANCH  15  16
ENDBRANCH  12  15
ENDBRANCH  10  11
ENDBRANCH   5  10
BRANCH   6  24
HETATM   24  C   UNL     1      40.843 -11.070  -0.818  1.00  0.00    -0.024 A 
HETATM   25  C   UNL     1      41.974 -10.217  -0.860  1.00  0.00    -0.053 A 
HETATM   26  C   UNL     1      43.371 -10.661  -1.213  1.00  0.00     0.049 C 
HETATM   27  C   UNL     1      41.797  -8.836  -0.652  1.00  0.00     0.008 A 
HETATM   28  C   UNL     1      40.542  -8.293  -0.382  1.00  0.00     0.007 A 
HETATM   29  C   UNL     1      39.421  -9.113  -0.333  1.00  0.00    -0.061 A 
HETATM   30  C   UNL     1      38.058  -8.520  -0.115  1.00  0.00     0.048 C 
HETATM   31  C   UNL     1      39.573 -10.484  -0.577  1.00  0.00     0.017 A 
ENDBRANCH   6  24
BRANCH   9  32
HETATM   32  C   UNL     1      41.085 -12.974  -3.473  1.00  0.00     0.293 C 
HETATM   33  O   UNL     1      41.782 -13.892  -3.868  1.00  0.00    -0.259 OA
BRANCH  32  34
HETATM   34  O   UNL     1      40.795 -11.844  -4.151  1.00  0.00    -0.323 OA
HETATM   35  C   UNL     1      41.927 -11.094  -4.602  1.00  0.00     0.213 C 
ENDBRANCH  32  34
ENDBRANCH   9  32
BRANCH   1  36
HETATM   36  C   UNL     1      38.153 -13.898  -3.484  1.00  0.00     0.056 C 
HETATM   37  C   UNL     1      37.453 -15.255  -3.451  1.00  0.00     0.011 C 
ENDBRANCH   1  36
TORSDOF 9
ENDMDL
MODEL 10
REMARK VINA RESULT:      -6.4      2.892      4.592
REMARK  9 active torsions:
REMARK  status: ('A' for Active; 'I' for Inactive)
REMARK    1  A    between atoms: C_2  and  C_3 
REMARK    2  A    between atoms: C_7  and  C_8 
REMARK    3  A    between atoms: C_8  and  C_9 
REMARK       I    between atoms: C_9  and  N_10 
REMARK    4  A    between atoms: N_10  and  C_11 
REMARK    5  A    between atoms: C_11  and  C_12 
REMARK    6  A    between atoms: C_12  and  N_13 
REMARK    7  A    between atoms: C_21  and  C_22 
REMARK    8  A    between atoms: C_32  and  C_33 
REMARK    9  A    between atoms: C_33  and  O_34 
ROOT
HETATM    1  C   UNL     1      37.432  -9.971  -2.389  1.00  0.00     0.051 C 
HETATM    2  N   UNL     1      37.954  -9.613  -1.164  1.00  0.00    -0.228 NA
HETATM    3  C   UNL     1      38.045 -10.504  -0.245  1.00  0.00     0.170 C 
HETATM    4  N   UNL     1      37.784 -12.021  -0.433  1.00  0.00    -0.318 N 
HETATM    5  C   UNL     1      37.987 -12.667   0.670  1.00  0.00     0.011 C 
HETATM    6  C   UNL     1      37.540 -12.425  -1.842  1.00  0.00     0.166 C 
HETATM    7  S   UNL     1      38.549 -10.123   1.369  1.00  0.00    -0.086 SA
HETATM    8  C   UNL     1      38.220 -11.820   1.901  1.00  0.00     0.135 C 
HETATM    9  C   UNL     1      37.127 -11.251  -2.697  1.00  0.00     0.069 C 
ENDROOT
BRANCH   5  10
HETATM   10  C   UNL     1      38.064 -14.163   0.738  1.00  0.00     0.156 C 
BRANCH  10  11
HETATM   11  C   UNL     1      39.400 -14.673   1.215  1.00  0.00     0.223 C 
HETATM   12  N   UNL     1      39.405 -15.240   2.469  1.00  0.00    -0.359 N 
HETATM   13  H   UNL     1      38.520 -15.542   2.868  1.00  0.00     0.162 HD
HETATM   14  O   UNL     1      40.407 -14.540   0.533  1.00  0.00    -0.273 OA
BRANCH  12  15
HETATM   15  C   UNL     1      40.608 -15.896   2.994  1.00  0.00     0.150 C 
BRANCH  15  16
HETATM   16  C   UNL     1      40.924 -17.252   2.329  1.00  0.00     0.254 C 
BRANCH  16  17
HETATM   17  N   UNL     1      42.253 -17.815   2.822  1.00  0.00    -0.070 N 
HETATM   18  H   UNL     1      42.935 -17.063   2.662  1.00  0.00     0.279 HD
HETATM   19  C   UNL     1      42.274 -18.154   4.296  1.00  0.00     0.235 C 
HETATM   20  C   UNL     1      43.699 -18.508   4.699  1.00  0.00     0.028 C 
HETATM   21  C   UNL     1      44.246 -19.664   3.869  1.00  0.00     0.003 C 
HETATM   22  C   UNL     1      44.115 -19.387   2.375  1.00  0.00     0.028 C 
HETATM   23  C   UNL     1      42.692 -19.004   1.988  1.00  0.00     0.235 C 
ENDBRANCH  16  17
ENDBRANCH  15  16
ENDBRANCH  12  15
ENDBRANCH  10  11
ENDBRANCH   5  10
BRANCH   6  24
HETATM   24  C   UNL     1      38.787 -13.151  -2.378  1.00  0.00    -0.024 A 
HETATM   25  C   UNL     1      38.733 -14.421  -3.004  1.00  0.00    -0.053 A 
HETATM   26  C   UNL     1      37.461 -15.160  -3.337  1.00  0.00     0.049 C 
HETATM   27  C   UNL     1      39.930 -15.020  -3.439  1.00  0.00     0.008 A 
HETATM   28  C   UNL     1      41.166 -14.406  -3.248  1.00  0.00     0.007 A 
HETATM   29  C   UNL     1      41.241 -13.162  -2.633  1.00  0.00    -0.061 A 
HETATM   30  C   UNL     1      42.564 -12.466  -2.491  1.00  0.00     0.048 C 
HETATM   31  C   UNL     1      40.056 -12.533  -2.229  1.00  0.00     0.017 A 
ENDBRANCH   6  24
BRANCH   9  32
HETATM   32  C   UNL     1      36.285 -11.642  -3.859  1.00  0.00     0.293 C 
HETATM   33  O   UNL     1      36.759 -12.003  -4.921  1.00  0.00    -0.259 OA
BRANCH  32  34
HETATM   34  O   UNL     1      34.990 -11.743  -3.489  1.00  0.00    -0.323 OA
HETATM   35  C   UNL     1      34.128 -12.364  -4.447  1.00  0.00     0.213 C 
ENDBRANCH  32  34
ENDBRANCH   9  32
BRANCH   1  36
HETATM   36  C   UNL     1      37.265  -8.777  -3.324  1.00  0.00     0.056 C 
HETATM   37  C   UNL     1      38.475  -8.536  -4.224  1.00  0.00     0.011 C 
ENDBRANCH   1  36
TORSDOF 9
ENDMDL
