MODEL 1
REMARK VINA RESULT:      -8.3      0.000      0.000
REMARK  4 active torsions:
REMARK  status: ('A' for Active; 'I' for Inactive)
REMARK    1  A    between atoms: C_3  and  C_4 
REMARK    2  A    between atoms: C_15  and  C_16 
REMARK       I    between atoms: C_16  and  N_17 
REMARK    3  A    between atoms: N_17  and  C_18 
REMARK    4  A    between atoms: C_18  and  C_19 
ROOT
HETATM    1  C   UNL     1      44.119 -15.718   7.263  1.00  0.00     0.055 C 
HETATM    2  C   UNL     1      43.609 -16.290   5.974  1.00  0.00     0.024 A 
HETATM    3  C   UNL     1      42.648 -15.780   5.181  1.00  0.00     0.096 A 
HETATM    4  O   UNL     1      42.258 -16.306   3.965  1.00  0.00    -0.307 OA
HETATM    5  C   UNL     1      42.797 -17.492   3.535  1.00  0.00     0.106 A 
HETATM    6  C   UNL     1      43.765 -18.160   4.287  1.00  0.00     0.050 A 
HETATM    7  C   UNL     1      44.246 -17.556   5.539  1.00  0.00     0.193 A 
HETATM    8  O   UNL     1      45.132 -18.091   6.197  1.00  0.00    -0.287 OA
HETATM    9  C   UNL     1      42.372 -18.036   2.312  1.00  0.00     0.066 A 
HETATM   10  C   UNL     1      42.908 -19.268   1.891  1.00  0.00     0.020 A 
HETATM   11  C   UNL     1      43.856 -19.941   2.662  1.00  0.00     0.002 A 
HETATM   12  C   UNL     1      44.293 -19.383   3.858  1.00  0.00     0.018 A 
ENDROOT
BRANCH   9  13
HETATM   13  C   UNL     1      41.416 -17.369   1.371  1.00  0.00     0.255 C 
HETATM   14  N   UNL     1      41.480 -16.002   1.242  1.00  0.00    -0.349 N 
HETATM   15  H   UNL     1      42.176 -15.480   1.763  1.00  0.00     0.163 HD
HETATM   16  O   UNL     1      40.614 -18.051   0.741  1.00  0.00    -0.268 OA
BRANCH  14  17
HETATM   17  C   UNL     1      40.725 -15.287   0.229  1.00  0.00     0.114 C 
HETATM   18  C   UNL     1      41.673 -14.703  -0.823  1.00  0.00     0.037 C 
BRANCH  17  19
HETATM   19  C   UNL     1      39.834 -14.259   0.895  1.00  0.00    -0.033 A 
HETATM   20  C   UNL     1      38.583 -13.894   0.389  1.00  0.00     0.028 A 
HETATM   21  C   UNL     1      37.846 -12.929   1.061  1.00  0.00     0.116 A 
HETATM   22  N   UNL     1      38.267 -12.301   2.178  1.00  0.00    -0.273 NA
HETATM   23  C   UNL     1      39.485 -12.649   2.643  1.00  0.00     0.116 A 
HETATM   24  C   UNL     1      40.293 -13.603   2.044  1.00  0.00     0.028 A 
ENDBRANCH  17  19
ENDBRANCH  14  17
ENDBRANCH   9  13
BRANCH   3  25
HETATM   25  C   UNL     1      41.877 -14.578   5.532  1.00  0.00    -0.002 A 
HETATM   26  C   UNL     1      42.473 -13.313   5.479  1.00  0.00     0.014 A 
HETATM   27  C   UNL     1      41.730 -12.174   5.797  1.00  0.00     0.001 A 
HETATM   28  C   UNL     1      40.390 -12.290   6.162  1.00  0.00     0.000 A 
HETATM   29  C   UNL     1      39.786 -13.545   6.206  1.00  0.00     0.001 A 
HETATM   30  C   UNL     1      40.526 -14.685   5.889  1.00  0.00     0.014 A 
ENDBRANCH   3  25
TORSDOF 4
ENDMDL
MODEL 2
REMARK VINA RESULT:      -8.2      2.401      5.368
REMARK  4 active torsions:
REMARK  status: ('A' for Active; 'I' for Inactive)
REMARK    1  A    between atoms: C_3  and  C_4 
REMARK    2  A    between atoms: C_15  and  C_16 
REMARK       I    between atoms: C_16  and  N_17 
REMARK    3  A    between atoms: N_17  and  C_18 
REMARK    4  A    between atoms: C_18  and  C_19 
ROOT
HETATM    1  C   UNL     1      42.492 -18.344   6.208  1.00  0.00     0.055 C 
HETATM    2  C   UNL     1      42.119 -17.501   5.026  1.00  0.00     0.024 A 
HETATM    3  C   UNL     1      42.386 -17.751   3.731  1.00  0.00     0.096 A 
HETATM    4  O   UNL     1      41.960 -16.978   2.668  1.00  0.00    -0.307 OA
HETATM    5  C   UNL     1      41.292 -15.805   2.907  1.00  0.00     0.106 A 
HETATM    6  C   UNL     1      40.997 -15.393   4.207  1.00  0.00     0.050 A 
HETATM    7  C   UNL     1      41.370 -16.259   5.337  1.00  0.00     0.193 A 
HETATM    8  O   UNL     1      41.081 -15.952   6.488  1.00  0.00    -0.287 OA
HETATM    9  C   UNL     1      40.891 -15.010   1.820  1.00  0.00     0.066 A 
HETATM   10  C   UNL     1      40.231 -13.791   2.074  1.00  0.00     0.020 A 
HETATM   11  C   UNL     1      39.963 -13.377   3.380  1.00  0.00     0.002 A 
HETATM   12  C   UNL     1      40.338 -14.183   4.448  1.00  0.00     0.018 A 
ENDROOT
BRANCH   9  13
HETATM   13  C   UNL     1      41.061 -15.388   0.381  1.00  0.00     0.255 C 
HETATM   14  N   UNL     1      40.924 -14.404  -0.569  1.00  0.00    -0.349 N 
HETATM   15  H   UNL     1      40.733 -13.452  -0.282  1.00  0.00     0.163 HD
HETATM   16  O   UNL     1      41.322 -16.551   0.090  1.00  0.00    -0.268 OA
BRANCH  14  17
HETATM   17  C   UNL     1      41.246 -14.633  -1.966  1.00  0.00     0.114 C 
HETATM   18  C   UNL     1      42.093 -13.477  -2.508  1.00  0.00     0.037 C 
BRANCH  17  19
HETATM   19  C   UNL     1      39.970 -14.880  -2.744  1.00  0.00    -0.033 A 
HETATM   20  C   UNL     1      38.827 -14.085  -2.606  1.00  0.00     0.028 A 
HETATM   21  C   UNL     1      37.699 -14.402  -3.349  1.00  0.00     0.116 A 
HETATM   22  N   UNL     1      37.625 -15.447  -4.199  1.00  0.00    -0.273 NA
HETATM   23  C   UNL     1      38.728 -16.216  -4.307  1.00  0.00     0.116 A 
HETATM   24  C   UNL     1      39.902 -15.980  -3.609  1.00  0.00     0.028 A 
ENDBRANCH  17  19
ENDBRANCH  14  17
ENDBRANCH   9  13
BRANCH   3  25
HETATM   25  C   UNL     1      43.189 -18.900   3.288  1.00  0.00    -0.002 A 
HETATM   26  C   UNL     1      44.287 -19.330   4.042  1.00  0.00     0.014 A 
HETATM   27  C   UNL     1      45.035 -20.433   3.625  1.00  0.00     0.001 A 
HETATM   28  C   UNL     1      44.687 -21.117   2.461  1.00  0.00     0.000 A 
HETATM   29  C   UNL     1      43.589 -20.701   1.711  1.00  0.00     0.001 A 
HETATM   30  C   UNL     1      42.840 -19.599   2.125  1.00  0.00     0.014 A 
ENDBRANCH   3  25
TORSDOF 4
ENDMDL
MODEL 3
REMARK VINA RESULT:      -8.1      1.906      5.130
REMARK  4 active torsions:
REMARK  status: ('A' for Active; 'I' for Inactive)
REMARK    1  A    between atoms: C_3  and  C_4 
REMARK    2  A    between atoms: C_15  and  C_16 
REMARK       I    between atoms: C_16  and  N_17 
REMARK    3  A    between atoms: N_17  and  C_18 
REMARK    4  A    between atoms: C_18  and  C_19 
ROOT
HETATM    1  C   UNL     1      45.050 -17.760   6.766  1.00  0.00     0.055 C 
HETATM    2  C   UNL     1      44.157 -16.862   5.963  1.00  0.00     0.024 A 
HETATM    3  C   UNL     1      43.590 -17.131   4.772  1.00  0.00     0.096 A 
HETATM    4  O   UNL     1      42.716 -16.297   4.101  1.00  0.00    -0.307 OA
HETATM    5  C   UNL     1      42.451 -15.049   4.602  1.00  0.00     0.106 A 
HETATM    6  C   UNL     1      43.017 -14.615   5.802  1.00  0.00     0.050 A 
HETATM    7  C   UNL     1      43.877 -15.535   6.564  1.00  0.00     0.193 A 
HETATM    8  O   UNL     1      44.349 -15.205   7.646  1.00  0.00    -0.287 OA
HETATM    9  C   UNL     1      41.586 -14.196   3.896  1.00  0.00     0.066 A 
HETATM   10  C   UNL     1      41.341 -12.904   4.402  1.00  0.00     0.020 A 
HETATM   11  C   UNL     1      41.932 -12.471   5.589  1.00  0.00     0.002 A 
HETATM   12  C   UNL     1      42.765 -13.331   6.296  1.00  0.00     0.018 A 
ENDROOT
BRANCH   9  13
HETATM   13  C   UNL     1      40.842 -14.578   2.654  1.00  0.00     0.255 C 
HETATM   14  N   UNL     1      41.565 -14.798   1.506  1.00  0.00    -0.349 N 
HETATM   15  H   UNL     1      42.575 -14.720   1.526  1.00  0.00     0.163 HD
HETATM   16  O   UNL     1      39.620 -14.689   2.693  1.00  0.00    -0.268 OA
BRANCH  14  17
HETATM   17  C   UNL     1      40.957 -15.345   0.306  1.00  0.00     0.114 C 
HETATM   18  C   UNL     1      41.306 -16.829   0.167  1.00  0.00     0.037 C 
BRANCH  17  19
HETATM   19  C   UNL     1      41.355 -14.503  -0.889  1.00  0.00    -0.033 A 
HETATM   20  C   UNL     1      41.970 -13.252  -0.769  1.00  0.00     0.028 A 
HETATM   21  C   UNL     1      42.281 -12.547  -1.922  1.00  0.00     0.116 A 
HETATM   22  N   UNL     1      42.016 -12.986  -3.169  1.00  0.00    -0.273 NA
HETATM   23  C   UNL     1      41.404 -14.185  -3.270  1.00  0.00     0.116 A 
HETATM   24  C   UNL     1      41.056 -14.964  -2.177  1.00  0.00     0.028 A 
ENDBRANCH  17  19
ENDBRANCH  14  17
ENDBRANCH   9  13
BRANCH   3  25
HETATM   25  C   UNL     1      43.848 -18.372   4.027  1.00  0.00    -0.002 A 
HETATM   26  C   UNL     1      44.453 -19.465   4.657  1.00  0.00     0.014 A 
HETATM   27  C   UNL     1      44.680 -20.645   3.948  1.00  0.00     0.001 A 
HETATM   28  C   UNL     1      44.298 -20.745   2.611  1.00  0.00     0.000 A 
HETATM   29  C   UNL     1      43.685 -19.665   1.979  1.00  0.00     0.001 A 
HETATM   30  C   UNL     1      43.457 -18.483   2.685  1.00  0.00     0.014 A 
ENDBRANCH   3  25
TORSDOF 4
ENDMDL
MODEL 4
REMARK VINA RESULT:      -8.0      2.254      7.199
REMARK  4 active torsions:
REMARK  status: ('A' for Active; 'I' for Inactive)
REMARK    1  A    between atoms: C_3  and  C_4 
REMARK    2  A    between atoms: C_15  and  C_16 
REMARK       I    between atoms: C_16  and  N_17 
REMARK    3  A    between atoms: N_17  and  C_18 
REMARK    4  A    between atoms: C_18  and  C_19 
ROOT
HETATM    1  C   UNL     1      41.131 -15.796  -1.155  1.00  0.00     0.055 C 
HETATM    2  C   UNL     1      40.873 -15.199   0.196  1.00  0.00     0.024 A 
HETATM    3  C   UNL     1      41.367 -15.614   1.377  1.00  0.00     0.096 A 
HETATM    4  O   UNL     1      41.156 -14.988   2.591  1.00  0.00    -0.307 OA
HETATM    5  C   UNL     1      40.309 -13.912   2.661  1.00  0.00     0.106 A 
HETATM    6  C   UNL     1      39.683 -13.410   1.520  1.00  0.00     0.050 A 
HETATM    7  C   UNL     1      39.975 -14.019   0.212  1.00  0.00     0.193 A 
HETATM    8  O   UNL     1      39.482 -13.569  -0.816  1.00  0.00    -0.287 OA
HETATM    9  C   UNL     1      40.077 -13.302   3.905  1.00  0.00     0.066 A 
HETATM   10  C   UNL     1      39.183 -12.216   3.974  1.00  0.00     0.020 A 
HETATM   11  C   UNL     1      38.542 -11.737   2.831  1.00  0.00     0.002 A 
HETATM   12  C   UNL     1      38.798 -12.329   1.600  1.00  0.00     0.018 A 
ENDROOT
BRANCH   9  13
HETATM   13  C   UNL     1      40.761 -13.684   5.181  1.00  0.00     0.255 C 
HETATM   14  N   UNL     1      41.903 -14.447   5.102  1.00  0.00    -0.349 N 
HETATM   15  H   UNL     1      42.265 -14.715   4.195  1.00  0.00     0.163 HD
HETATM   16  O   UNL     1      40.296 -13.306   6.252  1.00  0.00    -0.268 OA
BRANCH  14  17
HETATM   17  C   UNL     1      42.733 -14.714   6.263  1.00  0.00     0.114 C 
HETATM   18  C   UNL     1      44.002 -13.859   6.212  1.00  0.00     0.037 C 
BRANCH  17  19
HETATM   19  C   UNL     1      42.994 -16.202   6.365  1.00  0.00    -0.033 A 
HETATM   20  C   UNL     1      42.895 -17.069   5.272  1.00  0.00     0.028 A 
HETATM   21  C   UNL     1      43.136 -18.421   5.468  1.00  0.00     0.116 A 
HETATM   22  N   UNL     1      43.453 -18.966   6.660  1.00  0.00    -0.273 NA
HETATM   23  C   UNL     1      43.526 -18.120   7.709  1.00  0.00     0.116 A 
HETATM   24  C   UNL     1      43.304 -16.755   7.614  1.00  0.00     0.028 A 
ENDBRANCH  17  19
ENDBRANCH  14  17
ENDBRANCH   9  13
BRANCH   3  25
HETATM   25  C   UNL     1      42.201 -16.817   1.516  1.00  0.00    -0.002 A 
HETATM   26  C   UNL     1      43.596 -16.718   1.503  1.00  0.00     0.014 A 
HETATM   27  C   UNL     1      44.381 -17.862   1.652  1.00  0.00     0.001 A 
HETATM   28  C   UNL     1      43.781 -19.109   1.823  1.00  0.00     0.000 A 
HETATM   29  C   UNL     1      42.391 -19.214   1.848  1.00  0.00     0.001 A 
HETATM   30  C   UNL     1      41.603 -18.072   1.699  1.00  0.00     0.014 A 
ENDBRANCH   3  25
TORSDOF 4
ENDMDL
MODEL 5
REMARK VINA RESULT:      -7.4      1.602      4.722
REMARK  4 active torsions:
REMARK  status: ('A' for Active; 'I' for Inactive)
REMARK    1  A    between atoms: C_3  and  C_4 
REMARK    2  A    between atoms: C_15  and  C_16 
REMARK       I    between atoms: C_16  and  N_17 
REMARK    3  A    between atoms: N_17  and  C_18 
REMARK    4  A    between atoms: C_18  and  C_19 
ROOT
HETATM    1  C   UNL     1      45.151 -18.109   6.586  1.00  0.00     0.055 C 
HETATM    2  C   UNL     1      44.230 -17.233   5.791  1.00  0.00     0.024 A 
HETATM    3  C   UNL     1      43.613 -17.538   4.634  1.00  0.00     0.096 A 
HETATM    4  O   UNL     1      42.716 -16.722   3.971  1.00  0.00    -0.307 OA
HETATM    5  C   UNL     1      42.478 -15.456   4.440  1.00  0.00     0.106 A 
HETATM    6  C   UNL     1      43.094 -14.987   5.601  1.00  0.00     0.050 A 
HETATM    7  C   UNL     1      43.980 -15.885   6.358  1.00  0.00     0.193 A 
HETATM    8  O   UNL     1      44.497 -15.522   7.408  1.00  0.00    -0.287 OA
HETATM    9  C   UNL     1      41.588 -14.622   3.742  1.00  0.00     0.066 A 
HETATM   10  C   UNL     1      41.370 -13.313   4.213  1.00  0.00     0.020 A 
HETATM   11  C   UNL     1      42.011 -12.845   5.361  1.00  0.00     0.002 A 
HETATM   12  C   UNL     1      42.868 -13.685   6.062  1.00  0.00     0.018 A 
ENDROOT
BRANCH   9  13
HETATM   13  C   UNL     1      40.793 -15.041   2.544  1.00  0.00     0.255 C 
HETATM   14  N   UNL     1      40.732 -14.183   1.472  1.00  0.00    -0.349 N 
HETATM   15  H   UNL     1      41.237 -13.305   1.503  1.00  0.00     0.163 HD
HETATM   16  O   UNL     1      40.226 -16.130   2.547  1.00  0.00    -0.268 OA
BRANCH  14  17
HETATM   17  C   UNL     1      40.141 -14.574   0.205  1.00  0.00     0.114 C 
HETATM   18  C   UNL     1      41.219 -14.646  -0.880  1.00  0.00     0.037 C 
BRANCH  17  19
HETATM   19  C   UNL     1      38.995 -13.641  -0.125  1.00  0.00    -0.033 A 
HETATM   20  C   UNL     1      38.851 -13.020  -1.370  1.00  0.00     0.028 A 
HETATM   21  C   UNL     1      37.776 -12.167  -1.572  1.00  0.00     0.116 A 
HETATM   22  N   UNL     1      36.852 -11.882  -0.631  1.00  0.00    -0.273 NA
HETATM   23  C   UNL     1      37.014 -12.473   0.572  1.00  0.00     0.116 A 
HETATM   24  C   UNL     1      38.053 -13.341   0.869  1.00  0.00     0.028 A 
ENDBRANCH  17  19
ENDBRANCH  14  17
ENDBRANCH   9  13
BRANCH   3  25
HETATM   25  C   UNL     1      43.836 -18.805   3.920  1.00  0.00    -0.002 A 
HETATM   26  C   UNL     1      43.405 -18.959   2.598  1.00  0.00     0.014 A 
HETATM   27  C   UNL     1      43.635 -20.158   1.922  1.00  0.00     0.001 A 
HETATM   28  C   UNL     1      44.303 -21.205   2.556  1.00  0.00     0.000 A 
HETATM   29  C   UNL     1      44.744 -21.055   3.869  1.00  0.00     0.001 A 
HETATM   30  C   UNL     1      44.515 -19.858   4.548  1.00  0.00     0.014 A 
ENDBRANCH   3  25
TORSDOF 4
ENDMDL
MODEL 6
REMARK VINA RESULT:      -7.3      2.480      7.462
REMARK  4 active torsions:
REMARK  status: ('A' for Active; 'I' for Inactive)
REMARK    1  A    between atoms: C_3  and  C_4 
REMARK    2  A    between atoms: C_15  and  C_16 
REMARK       I    between atoms: C_16  and  N_17 
REMARK    3  A    between atoms: N_17  and  C_18 
REMARK    4  A    between atoms: C_18  and  C_19 
ROOT
HETATM    1  C   UNL     1      38.510 -11.520   0.026  1.00  0.00     0.055 C 
HETATM    2  C   UNL     1      39.359 -12.345   0.947  1.00  0.00     0.024 A 
HETATM    3  C   UNL     1      40.379 -13.155   0.608  1.00  0.00     0.096 A 
HETATM    4  O   UNL     1      41.178 -13.843   1.501  1.00  0.00    -0.307 OA
HETATM    5  C   UNL     1      40.888 -13.804   2.840  1.00  0.00     0.106 A 
HETATM    6  C   UNL     1      39.822 -13.047   3.327  1.00  0.00     0.050 A 
HETATM    7  C   UNL     1      39.024 -12.242   2.388  1.00  0.00     0.193 A 
HETATM    8  O   UNL     1      38.112 -11.526   2.789  1.00  0.00    -0.287 OA
HETATM    9  C   UNL     1      41.687 -14.532   3.737  1.00  0.00     0.066 A 
HETATM   10  C   UNL     1      41.367 -14.510   5.108  1.00  0.00     0.020 A 
HETATM   11  C   UNL     1      40.282 -13.770   5.582  1.00  0.00     0.002 A 
HETATM   12  C   UNL     1      39.513 -13.030   4.691  1.00  0.00     0.018 A 
ENDROOT
BRANCH   9  13
HETATM   13  C   UNL     1      42.914 -15.300   3.352  1.00  0.00     0.255 C 
HETATM   14  N   UNL     1      42.784 -16.643   3.091  1.00  0.00    -0.349 N 
HETATM   15  H   UNL     1      41.870 -17.079   3.143  1.00  0.00     0.163 HD
HETATM   16  O   UNL     1      43.992 -14.717   3.273  1.00  0.00    -0.268 OA
BRANCH  14  17
HETATM   17  C   UNL     1      43.872 -17.430   2.538  1.00  0.00     0.114 C 
HETATM   18  C   UNL     1      43.580 -17.782   1.077  1.00  0.00     0.037 C 
BRANCH  17  19
HETATM   19  C   UNL     1      44.125 -18.633   3.424  1.00  0.00    -0.033 A 
HETATM   20  C   UNL     1      44.092 -18.570   4.821  1.00  0.00     0.028 A 
HETATM   21  C   UNL     1      44.355 -19.723   5.548  1.00  0.00     0.116 A 
HETATM   22  N   UNL     1      44.656 -20.913   4.990  1.00  0.00    -0.273 NA
HETATM   23  C   UNL     1      44.703 -20.954   3.642  1.00  0.00     0.116 A 
HETATM   24  C   UNL     1      44.454 -19.858   2.831  1.00  0.00     0.028 A 
ENDBRANCH  17  19
ENDBRANCH  14  17
ENDBRANCH   9  13
BRANCH   3  25
HETATM   25  C   UNL     1      40.763 -13.414  -0.787  1.00  0.00    -0.002 A 
HETATM   26  C   UNL     1      40.114 -14.406  -1.530  1.00  0.00     0.014 A 
HETATM   27  C   UNL     1      40.472 -14.634  -2.860  1.00  0.00     0.001 A 
HETATM   28  C   UNL     1      41.472 -13.870  -3.458  1.00  0.00     0.000 A 
HETATM   29  C   UNL     1      42.117 -12.872  -2.728  1.00  0.00     0.001 A 
HETATM   30  C   UNL     1      41.761 -12.642  -1.399  1.00  0.00     0.014 A 
ENDBRANCH   3  25
TORSDOF 4
ENDMDL
MODEL 7
REMARK VINA RESULT:      -7.3      2.454      6.428
REMARK  4 active torsions:
REMARK  status: ('A' for Active; 'I' for Inactive)
REMARK    1  A    between atoms: C_3  and  C_4 
REMARK    2  A    between atoms: C_15  and  C_16 
REMARK       I    between atoms: C_16  and  N_17 
REMARK    3  A    between atoms: N_17  and  C_18 
REMARK    4  A    between atoms: C_18  and  C_19 
ROOT
HETATM    1  C   UNL     1      39.303 -11.311   2.599  1.00  0.00     0.055 C 
HETATM    2  C   UNL     1      39.918 -12.672   2.736  1.00  0.00     0.024 A 
HETATM    3  C   UNL     1      40.352 -13.260   3.867  1.00  0.00     0.096 A 
HETATM    4  O   UNL     1      40.848 -14.546   3.954  1.00  0.00    -0.307 OA
HETATM    5  C   UNL     1      41.020 -15.285   2.813  1.00  0.00     0.106 A 
HETATM    6  C   UNL     1      40.665 -14.778   1.562  1.00  0.00     0.050 A 
HETATM    7  C   UNL     1      40.053 -13.443   1.476  1.00  0.00     0.193 A 
HETATM    8  O   UNL     1      39.682 -12.988   0.399  1.00  0.00    -0.287 OA
HETATM    9  C   UNL     1      41.556 -16.581   2.909  1.00  0.00     0.066 A 
HETATM   10  C   UNL     1      41.757 -17.324   1.729  1.00  0.00     0.020 A 
HETATM   11  C   UNL     1      41.422 -16.797   0.481  1.00  0.00     0.002 A 
HETATM   12  C   UNL     1      40.867 -15.526   0.397  1.00  0.00     0.018 A 
ENDROOT
BRANCH   9  13
HETATM   13  C   UNL     1      41.883 -17.272   4.196  1.00  0.00     0.255 C 
HETATM   14  N   UNL     1      43.198 -17.311   4.597  1.00  0.00    -0.349 N 
HETATM   15  H   UNL     1      43.908 -16.859   4.032  1.00  0.00     0.163 HD
HETATM   16  O   UNL     1      40.980 -17.776   4.858  1.00  0.00    -0.268 OA
BRANCH  14  17
HETATM   17  C   UNL     1      43.590 -17.796   5.908  1.00  0.00     0.114 C 
HETATM   18  C   UNL     1      44.704 -16.916   6.484  1.00  0.00     0.037 C 
BRANCH  17  19
HETATM   19  C   UNL     1      43.949 -19.264   5.815  1.00  0.00    -0.033 A 
HETATM   20  C   UNL     1      43.621 -20.192   6.808  1.00  0.00     0.028 A 
HETATM   21  C   UNL     1      44.008 -21.514   6.642  1.00  0.00     0.116 A 
HETATM   22  N   UNL     1      44.701 -21.969   5.578  1.00  0.00    -0.273 NA
HETATM   23  C   UNL     1      45.028 -21.058   4.637  1.00  0.00     0.116 A 
HETATM   24  C   UNL     1      44.684 -19.718   4.712  1.00  0.00     0.028 A 
ENDBRANCH  17  19
ENDBRANCH  14  17
ENDBRANCH   9  13
BRANCH   3  25
HETATM   25  C   UNL     1      40.354 -12.579   5.170  1.00  0.00    -0.002 A 
HETATM   26  C   UNL     1      39.305 -12.775   6.075  1.00  0.00     0.014 A 
HETATM   27  C   UNL     1      39.322 -12.139   7.317  1.00  0.00     0.001 A 
HETATM   28  C   UNL     1      40.388 -11.311   7.667  1.00  0.00     0.000 A 
HETATM   29  C   UNL     1      41.442 -11.119   6.776  1.00  0.00     0.001 A 
HETATM   30  C   UNL     1      41.428 -11.754   5.533  1.00  0.00     0.014 A 
ENDBRANCH   3  25
TORSDOF 4
ENDMDL
MODEL 8
REMARK VINA RESULT:      -7.3      2.022      4.969
REMARK  4 active torsions:
REMARK  status: ('A' for Active; 'I' for Inactive)
REMARK    1  A    between atoms: C_3  and  C_4 
REMARK    2  A    between atoms: C_15  and  C_16 
REMARK       I    between atoms: C_16  and  N_17 
REMARK    3  A    between atoms: N_17  and  C_18 
REMARK    4  A    between atoms: C_18  and  C_19 
ROOT
HETATM    1  C   UNL     1      44.114 -19.878   6.787  1.00  0.00     0.055 C 
HETATM    2  C   UNL     1      43.900 -18.595   6.042  1.00  0.00     0.024 A 
HETATM    3  C   UNL     1      43.746 -18.441   4.713  1.00  0.00     0.096 A 
HETATM    4  O   UNL     1      43.481 -17.244   4.077  1.00  0.00    -0.307 OA
HETATM    5  C   UNL     1      43.457 -16.081   4.802  1.00  0.00     0.106 A 
HETATM    6  C   UNL     1      43.658 -16.086   6.183  1.00  0.00     0.050 A 
HETATM    7  C   UNL     1      43.852 -17.370   6.877  1.00  0.00     0.193 A 
HETATM    8  O   UNL     1      43.979 -17.415   8.095  1.00  0.00    -0.287 OA
HETATM    9  C   UNL     1      43.219 -14.864   4.141  1.00  0.00     0.066 A 
HETATM   10  C   UNL     1      43.225 -13.670   4.889  1.00  0.00     0.020 A 
HETATM   11  C   UNL     1      43.451 -13.684   6.266  1.00  0.00     0.002 A 
HETATM   12  C   UNL     1      43.659 -14.895   6.917  1.00  0.00     0.018 A 
ENDROOT
BRANCH   9  13
HETATM   13  C   UNL     1      42.893 -14.737   2.685  1.00  0.00     0.255 C 
HETATM   14  N   UNL     1      41.949 -13.812   2.309  1.00  0.00    -0.349 N 
HETATM   15  H   UNL     1      41.512 -13.227   3.011  1.00  0.00     0.163 HD
HETATM   16  O   UNL     1      43.475 -15.449   1.872  1.00  0.00    -0.268 OA
BRANCH  14  17
HETATM   17  C   UNL     1      41.698 -13.489   0.916  1.00  0.00     0.114 C 
HETATM   18  C   UNL     1      42.224 -12.087   0.595  1.00  0.00     0.037 C 
BRANCH  17  19
HETATM   19  C   UNL     1      40.227 -13.681   0.611  1.00  0.00    -0.033 A 
HETATM   20  C   UNL     1      39.307 -14.142   1.558  1.00  0.00     0.028 A 
HETATM   21  C   UNL     1      37.981 -14.303   1.180  1.00  0.00     0.116 A 
HETATM   22  N   UNL     1      37.516 -14.053  -0.061  1.00  0.00    -0.273 NA
HETATM   23  C   UNL     1      38.419 -13.627  -0.970  1.00  0.00     0.116 A 
HETATM   24  C   UNL     1      39.762 -13.434  -0.687  1.00  0.00     0.028 A 
ENDBRANCH  17  19
ENDBRANCH  14  17
ENDBRANCH   9  13
BRANCH   3  25
HETATM   25  C   UNL     1      43.855 -19.557   3.762  1.00  0.00    -0.002 A 
HETATM   26  C   UNL     1      44.624 -20.683   4.075  1.00  0.00     0.014 A 
HETATM   27  C   UNL     1      44.708 -21.747   3.175  1.00  0.00     0.001 A 
HETATM   28  C   UNL     1      44.020 -21.697   1.964  1.00  0.00     0.000 A 
HETATM   29  C   UNL     1      43.243 -20.584   1.649  1.00  0.00     0.001 A 
HETATM   30  C   UNL     1      43.157 -19.519   2.547  1.00  0.00     0.014 A 
ENDBRANCH   3  25
TORSDOF 4
ENDMDL
MODEL 9
REMARK VINA RESULT:      -7.3      2.047      5.086
REMARK  4 active torsions:
REMARK  status: ('A' for Active; 'I' for Inactive)
REMARK    1  A    between atoms: C_3  and  C_4 
REMARK    2  A    between atoms: C_15  and  C_16 
REMARK       I    between atoms: C_16  and  N_17 
REMARK    3  A    between atoms: N_17  and  C_18 
REMARK    4  A    between atoms: C_18  and  C_19 
ROOT
HETATM    1  C   UNL     1      41.439 -18.208   1.322  1.00  0.00     0.055 C 
HETATM    2  C   UNL     1      41.915 -17.374   2.474  1.00  0.00     0.024 A 
HETATM    3  C   UNL     1      41.616 -16.085   2.725  1.00  0.00     0.096 A 
HETATM    4  O   UNL     1      42.023 -15.377   3.839  1.00  0.00    -0.307 OA
HETATM    5  C   UNL     1      42.876 -15.962   4.740  1.00  0.00     0.106 A 
HETATM    6  C   UNL     1      43.313 -17.277   4.574  1.00  0.00     0.050 A 
HETATM    7  C   UNL     1      42.810 -18.063   3.435  1.00  0.00     0.193 A 
HETATM    8  O   UNL     1      43.133 -19.236   3.288  1.00  0.00    -0.287 OA
HETATM    9  C   UNL     1      43.309 -15.223   5.853  1.00  0.00     0.066 A 
HETATM   10  C   UNL     1      44.209 -15.820   6.759  1.00  0.00     0.020 A 
HETATM   11  C   UNL     1      44.659 -17.127   6.569  1.00  0.00     0.002 A 
HETATM   12  C   UNL     1      44.204 -17.861   5.480  1.00  0.00     0.018 A 
ENDROOT
BRANCH   9  13
HETATM   13  C   UNL     1      42.837 -13.843   6.194  1.00  0.00     0.255 C 
HETATM   14  N   UNL     1      41.580 -13.467   5.786  1.00  0.00    -0.349 N 
HETATM   15  H   UNL     1      40.996 -14.128   5.286  1.00  0.00     0.163 HD
HETATM   16  O   UNL     1      43.574 -13.093   6.829  1.00  0.00    -0.268 OA
BRANCH  14  17
HETATM   17  C   UNL     1      40.967 -12.225   6.221  1.00  0.00     0.114 C 
HETATM   18  C   UNL     1      39.604 -12.505   6.860  1.00  0.00     0.037 C 
BRANCH  17  19
HETATM   19  C   UNL     1      40.917 -11.254   5.060  1.00  0.00    -0.033 A 
HETATM   20  C   UNL     1      41.035  -9.870   5.219  1.00  0.00     0.028 A 
HETATM   21  C   UNL     1      40.959  -9.059   4.095  1.00  0.00     0.116 A 
HETATM   22  N   UNL     1      40.763  -9.522   2.843  1.00  0.00    -0.273 NA
HETATM   23  C   UNL     1      40.630 -10.858   2.708  1.00  0.00     0.116 A 
HETATM   24  C   UNL     1      40.694 -11.748   3.768  1.00  0.00     0.028 A 
ENDBRANCH  17  19
ENDBRANCH  14  17
ENDBRANCH   9  13
BRANCH   3  25
HETATM   25  C   UNL     1      40.809 -15.261   1.813  1.00  0.00    -0.002 A 
HETATM   26  C   UNL     1      39.426 -15.154   1.990  1.00  0.00     0.014 A 
HETATM   27  C   UNL     1      38.668 -14.355   1.132  1.00  0.00     0.001 A 
HETATM   28  C   UNL     1      39.287 -13.654   0.098  1.00  0.00     0.000 A 
HETATM   29  C   UNL     1      40.666 -13.747  -0.079  1.00  0.00     0.001 A 
HETATM   30  C   UNL     1      41.426 -14.544   0.778  1.00  0.00     0.014 A 
ENDBRANCH   3  25
TORSDOF 4
ENDMDL
MODEL 10
REMARK VINA RESULT:      -7.0      3.621      7.219
REMARK  4 active torsions:
REMARK  status: ('A' for Active; 'I' for Inactive)
REMARK    1  A    between atoms: C_3  and  C_4 
REMARK    2  A    between atoms: C_15  and  C_16 
REMARK       I    between atoms: C_16  and  N_17 
REMARK    3  A    between atoms: N_17  and  C_18 
REMARK    4  A    between atoms: C_18  and  C_19 
ROOT
HETATM    1  C   UNL     1      40.726  -9.515   9.465  1.00  0.00     0.055 C 
HETATM    2  C   UNL     1      40.965 -10.374   8.260  1.00  0.00     0.024 A 
HETATM    3  C   UNL     1      42.040 -11.144   8.009  1.00  0.00     0.096 A 
HETATM    4  O   UNL     1      42.185 -11.975   6.914  1.00  0.00    -0.307 OA
HETATM    5  C   UNL     1      41.227 -11.976   5.933  1.00  0.00     0.106 A 
HETATM    6  C   UNL     1      40.085 -11.182   6.036  1.00  0.00     0.050 A 
HETATM    7  C   UNL     1      39.885 -10.364   7.243  1.00  0.00     0.193 A 
HETATM    8  O   UNL     1      38.868  -9.694   7.389  1.00  0.00    -0.287 OA
HETATM    9  C   UNL     1      41.399 -12.801   4.808  1.00  0.00     0.066 A 
HETATM   10  C   UNL     1      40.425 -12.776   3.790  1.00  0.00     0.020 A 
HETATM   11  C   UNL     1      39.299 -11.958   3.892  1.00  0.00     0.002 A 
HETATM   12  C   UNL     1      39.122 -11.167   5.021  1.00  0.00     0.018 A 
ENDROOT
BRANCH   9  13
HETATM   13  C   UNL     1      42.528 -13.768   4.627  1.00  0.00     0.255 C 
HETATM   14  N   UNL     1      42.283 -15.101   4.852  1.00  0.00    -0.349 N 
HETATM   15  H   UNL     1      41.352 -15.404   5.113  1.00  0.00     0.163 HD
HETATM   16  O   UNL     1      43.629 -13.352   4.279  1.00  0.00    -0.268 OA
BRANCH  14  17
HETATM   17  C   UNL     1      43.257 -16.129   4.530  1.00  0.00     0.114 C 
HETATM   18  C   UNL     1      42.756 -16.983   3.362  1.00  0.00     0.037 C 
BRANCH  17  19
HETATM   19  C   UNL     1      43.584 -16.922   5.778  1.00  0.00    -0.033 A 
HETATM   20  C   UNL     1      44.448 -18.022   5.777  1.00  0.00     0.028 A 
HETATM   21  C   UNL     1      44.672 -18.697   6.969  1.00  0.00     0.116 A 
HETATM   22  N   UNL     1      44.096 -18.366   8.143  1.00  0.00    -0.273 NA
HETATM   23  C   UNL     1      43.249 -17.316   8.125  1.00  0.00     0.116 A 
HETATM   24  C   UNL     1      42.963 -16.578   6.986  1.00  0.00     0.028 A 
ENDBRANCH  17  19
ENDBRANCH  14  17
ENDBRANCH   9  13
BRANCH   3  25
HETATM   25  C   UNL     1      43.217 -11.184   8.889  1.00  0.00    -0.002 A 
HETATM   26  C   UNL     1      43.225 -10.475  10.095  1.00  0.00     0.014 A 
HETATM   27  C   UNL     1      44.338 -10.532  10.935  1.00  0.00     0.001 A 
HETATM   28  C   UNL     1      45.446 -11.301  10.580  1.00  0.00     0.000 A 
HETATM   29  C   UNL     1      45.442 -12.018   9.385  1.00  0.00     0.001 A 
HETATM   30  C   UNL     1      44.330 -11.964   8.544  1.00  0.00     0.014 A 
ENDBRANCH   3  25
TORSDOF 4
ENDMDL
