MODEL 1
REMARK VINA RESULT:      -9.9      0.000      0.000
REMARK  7 active torsions:
REMARK  status: ('A' for Active; 'I' for Inactive)
REMARK    1  A    between atoms: C_2  and  O_3 
REMARK    2  A    between atoms: O_3  and  C_4 
REMARK    3  A    between atoms: C_5  and  C_6 
REMARK    4  A    between atoms: C_9  and  C_10 
REMARK       I    between atoms: C_10  and  N_11 
REMARK    5  A    between atoms: N_11  and  C_12 
REMARK    6  A    between atoms: C_25  and  C_26 
REMARK       I    between atoms: C_26  and  N_27 
REMARK    7  A    between atoms: N_27  and  C_28 
ROOT
HETATM    1  C   UNL     1      43.429 -14.651   5.475  1.00  0.00     0.188 C 
HETATM    2  N   UNL     1      44.108 -13.848   6.502  1.00  0.00    -0.239 N 
HETATM    3  C   UNL     1      43.501 -12.855   7.233  1.00  0.00     0.142 C 
HETATM    4  C   UNL     1      44.455 -12.410   8.127  1.00  0.00     0.097 C 
HETATM    5  C   UNL     1      45.633 -13.100   7.737  1.00  0.00     0.160 C 
HETATM    6  N   UNL     1      45.434 -13.964   6.739  1.00  0.00    -0.181 NA
HETATM    7  N   UNL     1      42.213 -12.522   6.947  1.00  0.00    -0.343 N 
HETATM    8  C   UNL     1      41.538 -13.046   5.834  1.00  0.00     0.021 C 
HETATM    9  C   UNL     1      40.213 -12.397   5.512  1.00  0.00     0.069 C 
HETATM   10  C   UNL     1      42.080 -14.055   5.105  1.00  0.00     0.061 C 
HETATM   11  H   UNL     1      41.836 -11.627   7.260  1.00  0.00     0.167 HD
ENDROOT
BRANCH   4  12
HETATM   12  C   UNL     1      44.357 -11.459   9.219  1.00  0.00     0.261 C 
HETATM   13  N   UNL     1      43.332 -11.739  10.106  1.00  0.00    -0.323 N 
HETATM   14  H   UNL     1      42.796 -12.573   9.903  1.00  0.00     0.169 HD
HETATM   15  O   UNL     1      45.174 -10.554   9.327  1.00  0.00    -0.267 OA
BRANCH  13  16
HETATM   16  C   UNL     1      43.052 -11.092  11.326  1.00  0.00     0.035 A 
HETATM   17  C   UNL     1      43.918 -10.186  11.948  1.00  0.00     0.032 A 
HETATM   18  C   UNL     1      43.583  -9.617  13.181  1.00  0.00     0.044 A 
HETATM   19  C   UNL     1      42.378  -9.946  13.785  1.00  0.00     0.116 A 
HETATM   20  F   UNL     1      42.061  -9.405  14.968  1.00  0.00    -0.206 F 
HETATM   21  C   UNL     1      41.499 -10.834  13.180  1.00  0.00     0.044 A 
HETATM   22  C   UNL     1      41.837 -11.408  11.951  1.00  0.00     0.032 A 
ENDBRANCH  13  16
ENDBRANCH   4  12
BRANCH   1  23
HETATM   23  C   UNL     1      43.396 -16.122   5.911  1.00  0.00     0.005 A 
HETATM   24  C   UNL     1      43.560 -17.198   5.014  1.00  0.00     0.077 A 
HETATM   25  C   UNL     1      43.550 -18.512   5.498  1.00  0.00     0.037 A 
HETATM   26  C   UNL     1      43.351 -18.769   6.855  1.00  0.00     0.003 A 
HETATM   27  C   UNL     1      43.161 -17.718   7.742  1.00  0.00     0.001 A 
HETATM   28  C   UNL     1      43.182 -16.406   7.275  1.00  0.00     0.012 A 
BRANCH  24  29
HETATM   29  O   UNL     1      43.757 -16.879   3.699  1.00  0.00    -0.351 OA
BRANCH  29  30
HETATM   30  C   UNL     1      43.209 -17.758   2.717  1.00  0.00     0.171 C 
HETATM   31  C   UNL     1      44.127 -17.742   1.508  1.00  0.00     0.034 C 
ENDBRANCH  29  30
ENDBRANCH  24  29
ENDBRANCH   1  23
BRANCH  10  32
HETATM   32  C   UNL     1      41.536 -14.399   3.756  1.00  0.00     0.256 C 
HETATM   33  N   UNL     1      42.357 -14.050   2.706  1.00  0.00    -0.323 N 
HETATM   34  H   UNL     1      43.298 -13.749   2.924  1.00  0.00     0.169 HD
HETATM   35  O   UNL     1      40.418 -14.894   3.669  1.00  0.00    -0.267 OA
BRANCH  33  36
HETATM   36  C   UNL     1      42.016 -13.990   1.337  1.00  0.00     0.035 A 
HETATM   37  C   UNL     1      41.701 -15.104   0.557  1.00  0.00     0.029 A 
HETATM   38  C   UNL     1      41.326 -14.951  -0.782  1.00  0.00     0.002 A 
HETATM   39  C   UNL     1      41.256 -13.681  -1.351  1.00  0.00     0.000 A 
HETATM   40  C   UNL     1      41.571 -12.563  -0.584  1.00  0.00     0.002 A 
HETATM   41  C   UNL     1      41.956 -12.717   0.750  1.00  0.00     0.029 A 
ENDBRANCH  33  36
ENDBRANCH  10  32
TORSDOF 7
ENDMDL
MODEL 2
REMARK VINA RESULT:      -9.6      2.656      5.385
REMARK  7 active torsions:
REMARK  status: ('A' for Active; 'I' for Inactive)
REMARK    1  A    between atoms: C_2  and  O_3 
REMARK    2  A    between atoms: O_3  and  C_4 
REMARK    3  A    between atoms: C_5  and  C_6 
REMARK    4  A    between atoms: C_9  and  C_10 
REMARK       I    between atoms: C_10  and  N_11 
REMARK    5  A    between atoms: N_11  and  C_12 
REMARK    6  A    between atoms: C_25  and  C_26 
REMARK       I    between atoms: C_26  and  N_27 
REMARK    7  A    between atoms: N_27  and  C_28 
ROOT
HETATM    1  C   UNL     1      41.363 -15.998   4.564  1.00  0.00     0.188 C 
HETATM    2  N   UNL     1      40.814 -14.732   5.075  1.00  0.00    -0.239 N 
HETATM    3  C   UNL     1      41.529 -13.827   5.824  1.00  0.00     0.142 C 
HETATM    4  C   UNL     1      40.680 -12.758   6.031  1.00  0.00     0.097 C 
HETATM    5  C   UNL     1      39.441 -13.200   5.494  1.00  0.00     0.160 C 
HETATM    6  N   UNL     1      39.511 -14.406   4.926  1.00  0.00    -0.181 NA
HETATM    7  N   UNL     1      42.800 -14.140   6.196  1.00  0.00    -0.343 N 
HETATM    8  C   UNL     1      43.348 -15.413   5.978  1.00  0.00     0.021 C 
HETATM    9  C   UNL     1      44.667 -15.680   6.664  1.00  0.00     0.069 C 
HETATM   10  C   UNL     1      42.698 -16.326   5.212  1.00  0.00     0.061 C 
HETATM   11  H   UNL     1      43.243 -13.639   6.967  1.00  0.00     0.167 HD
ENDROOT
BRANCH   4  12
HETATM   12  C   UNL     1      40.918 -11.468   6.651  1.00  0.00     0.261 C 
HETATM   13  N   UNL     1      40.593 -11.432   7.995  1.00  0.00    -0.323 N 
HETATM   14  H   UNL     1      40.254 -12.302   8.385  1.00  0.00     0.169 HD
HETATM   15  O   UNL     1      41.423 -10.557   6.008  1.00  0.00    -0.267 OA
BRANCH  13  16
HETATM   16  C   UNL     1      40.822 -10.381   8.906  1.00  0.00     0.035 A 
HETATM   17  C   UNL     1      40.069  -9.203   8.946  1.00  0.00     0.032 A 
HETATM   18  C   UNL     1      40.385  -8.189   9.856  1.00  0.00     0.044 A 
HETATM   19  C   UNL     1      41.449  -8.359  10.732  1.00  0.00     0.116 A 
HETATM   20  F   UNL     1      41.754  -7.385  11.598  1.00  0.00    -0.206 F 
HETATM   21  C   UNL     1      42.202  -9.524  10.716  1.00  0.00     0.044 A 
HETATM   22  C   UNL     1      41.889 -10.535   9.802  1.00  0.00     0.032 A 
ENDBRANCH  13  16
ENDBRANCH   4  12
BRANCH   1  23
HETATM   23  C   UNL     1      41.368 -15.973   3.031  1.00  0.00     0.005 A 
HETATM   24  C   UNL     1      41.852 -14.884   2.276  1.00  0.00     0.077 A 
HETATM   25  C   UNL     1      41.853 -14.954   0.877  1.00  0.00     0.037 A 
HETATM   26  C   UNL     1      41.353 -16.080   0.221  1.00  0.00     0.003 A 
HETATM   27  C   UNL     1      40.849 -17.147   0.954  1.00  0.00     0.001 A 
HETATM   28  C   UNL     1      40.855 -17.094   2.346  1.00  0.00     0.012 A 
BRANCH  24  29
HETATM   29  O   UNL     1      42.334 -13.814   2.979  1.00  0.00    -0.351 OA
BRANCH  29  30
HETATM   30  C   UNL     1      42.284 -12.534   2.349  1.00  0.00     0.171 C 
HETATM   31  C   UNL     1      40.858 -12.022   2.440  1.00  0.00     0.034 C 
ENDBRANCH  29  30
ENDBRANCH  24  29
ENDBRANCH   1  23
BRANCH  10  32
HETATM   32  C   UNL     1      43.103 -17.765   5.232  1.00  0.00     0.256 C 
HETATM   33  N   UNL     1      43.813 -18.172   4.125  1.00  0.00    -0.323 N 
HETATM   34  H   UNL     1      44.137 -17.458   3.484  1.00  0.00     0.169 HD
HETATM   35  O   UNL     1      42.742 -18.476   6.164  1.00  0.00    -0.267 OA
BRANCH  33  36
HETATM   36  C   UNL     1      44.091 -19.498   3.725  1.00  0.00     0.035 A 
HETATM   37  C   UNL     1      44.713 -20.448   4.536  1.00  0.00     0.029 A 
HETATM   38  C   UNL     1      44.907 -21.756   4.079  1.00  0.00     0.002 A 
HETATM   39  C   UNL     1      44.472 -22.127   2.808  1.00  0.00     0.000 A 
HETATM   40  C   UNL     1      43.854 -21.187   1.988  1.00  0.00     0.002 A 
HETATM   41  C   UNL     1      43.670 -19.878   2.442  1.00  0.00     0.029 A 
ENDBRANCH  33  36
ENDBRANCH  10  32
TORSDOF 7
ENDMDL
MODEL 3
REMARK VINA RESULT:      -9.4      5.344     10.179
REMARK  7 active torsions:
REMARK  status: ('A' for Active; 'I' for Inactive)
REMARK    1  A    between atoms: C_2  and  O_3 
REMARK    2  A    between atoms: O_3  and  C_4 
REMARK    3  A    between atoms: C_5  and  C_6 
REMARK    4  A    between atoms: C_9  and  C_10 
REMARK       I    between atoms: C_10  and  N_11 
REMARK    5  A    between atoms: N_11  and  C_12 
REMARK    6  A    between atoms: C_25  and  C_26 
REMARK       I    between atoms: C_26  and  N_27 
REMARK    7  A    between atoms: N_27  and  C_28 
ROOT
HETATM    1  C   UNL     1      42.116 -14.879   2.765  1.00  0.00     0.188 C 
HETATM    2  N   UNL     1      41.886 -14.095   1.543  1.00  0.00    -0.239 N 
HETATM    3  C   UNL     1      41.149 -14.536   0.469  1.00  0.00     0.142 C 
HETATM    4  C   UNL     1      41.117 -13.482  -0.423  1.00  0.00     0.097 C 
HETATM    5  C   UNL     1      41.993 -12.524   0.154  1.00  0.00     0.160 C 
HETATM    6  N   UNL     1      42.477 -12.896   1.341  1.00  0.00    -0.181 NA
HETATM    7  N   UNL     1      40.662 -15.806   0.483  1.00  0.00    -0.343 N 
HETATM    8  C   UNL     1      41.016 -16.728   1.480  1.00  0.00     0.021 C 
HETATM    9  C   UNL     1      40.596 -18.156   1.224  1.00  0.00     0.069 C 
HETATM   10  C   UNL     1      41.708 -16.332   2.578  1.00  0.00     0.061 C 
HETATM   11  H   UNL     1      40.368 -16.250  -0.387  1.00  0.00     0.167 HD
ENDROOT
BRANCH   4  12
HETATM   12  C   UNL     1      40.399 -13.323  -1.673  1.00  0.00     0.261 C 
HETATM   13  N   UNL     1      39.090 -13.768  -1.620  1.00  0.00    -0.323 N 
HETATM   14  H   UNL     1      38.788 -14.126  -0.723  1.00  0.00     0.169 HD
HETATM   15  O   UNL     1      40.935 -12.778  -2.630  1.00  0.00    -0.267 OA
BRANCH  13  16
HETATM   16  C   UNL     1      38.099 -13.641  -2.613  1.00  0.00     0.035 A 
HETATM   17  C   UNL     1      37.470 -12.435  -2.940  1.00  0.00     0.032 A 
HETATM   18  C   UNL     1      36.465 -12.401  -3.913  1.00  0.00     0.044 A 
HETATM   19  C   UNL     1      36.096 -13.570  -4.563  1.00  0.00     0.116 A 
HETATM   20  F   UNL     1      35.130 -13.536  -5.489  1.00  0.00    -0.206 F 
HETATM   21  C   UNL     1      36.715 -14.775  -4.261  1.00  0.00     0.044 A 
HETATM   22  C   UNL     1      37.716 -14.811  -3.286  1.00  0.00     0.032 A 
ENDBRANCH  13  16
ENDBRANCH   4  12
BRANCH   1  23
HETATM   23  C   UNL     1      41.471 -14.167   3.961  1.00  0.00     0.005 A 
HETATM   24  C   UNL     1      42.210 -13.650   5.045  1.00  0.00     0.077 A 
HETATM   25  C   UNL     1      41.547 -12.984   6.083  1.00  0.00     0.037 A 
HETATM   26  C   UNL     1      40.158 -12.852   6.070  1.00  0.00     0.003 A 
HETATM   27  C   UNL     1      39.418 -13.381   5.021  1.00  0.00     0.001 A 
HETATM   28  C   UNL     1      40.067 -14.034   3.976  1.00  0.00     0.012 A 
BRANCH  24  29
HETATM   29  O   UNL     1      43.568 -13.808   4.995  1.00  0.00    -0.351 OA
BRANCH  29  30
HETATM   30  C   UNL     1      44.253 -14.027   6.227  1.00  0.00     0.171 C 
HETATM   31  C   UNL     1      44.113 -15.496   6.587  1.00  0.00     0.034 C 
ENDBRANCH  29  30
ENDBRANCH  24  29
ENDBRANCH   1  23
BRANCH  10  32
HETATM   32  C   UNL     1      42.359 -17.336   3.474  1.00  0.00     0.256 C 
HETATM   33  N   UNL     1      43.356 -18.073   2.873  1.00  0.00    -0.323 N 
HETATM   34  H   UNL     1      43.672 -17.779   1.958  1.00  0.00     0.169 HD
HETATM   35  O   UNL     1      41.943 -17.477   4.619  1.00  0.00    -0.267 OA
BRANCH  33  36
HETATM   36  C   UNL     1      43.955 -19.257   3.356  1.00  0.00     0.035 A 
HETATM   37  C   UNL     1      44.491 -19.399   4.637  1.00  0.00     0.029 A 
HETATM   38  C   UNL     1      45.023 -20.624   5.052  1.00  0.00     0.002 A 
HETATM   39  C   UNL     1      45.017 -21.721   4.193  1.00  0.00     0.000 A 
HETATM   40  C   UNL     1      44.489 -21.590   2.912  1.00  0.00     0.002 A 
HETATM   41  C   UNL     1      43.967 -20.362   2.493  1.00  0.00     0.029 A 
ENDBRANCH  33  36
ENDBRANCH  10  32
TORSDOF 7
ENDMDL
MODEL 4
REMARK VINA RESULT:      -9.2      2.122      5.080
REMARK  7 active torsions:
REMARK  status: ('A' for Active; 'I' for Inactive)
REMARK    1  A    between atoms: C_2  and  O_3 
REMARK    2  A    between atoms: O_3  and  C_4 
REMARK    3  A    between atoms: C_5  and  C_6 
REMARK    4  A    between atoms: C_9  and  C_10 
REMARK       I    between atoms: C_10  and  N_11 
REMARK    5  A    between atoms: N_11  and  C_12 
REMARK    6  A    between atoms: C_25  and  C_26 
REMARK       I    between atoms: C_26  and  N_27 
REMARK    7  A    between atoms: N_27  and  C_28 
ROOT
HETATM    1  C   UNL     1      40.879 -14.140   4.180  1.00  0.00     0.188 C 
HETATM    2  N   UNL     1      40.687 -12.989   5.075  1.00  0.00    -0.239 N 
HETATM    3  C   UNL     1      41.548 -12.650   6.092  1.00  0.00     0.142 C 
HETATM    4  C   UNL     1      41.049 -11.480   6.631  1.00  0.00     0.097 C 
HETATM    5  C   UNL     1      39.811 -11.299   5.960  1.00  0.00     0.160 C 
HETATM    6  N   UNL     1      39.576 -12.221   5.024  1.00  0.00    -0.181 NA
HETATM    7  N   UNL     1      42.605 -13.463   6.358  1.00  0.00    -0.343 N 
HETATM    8  C   UNL     1      42.759 -14.711   5.736  1.00  0.00     0.021 C 
HETATM    9  C   UNL     1      43.838 -15.598   6.313  1.00  0.00     0.069 C 
HETATM   10  C   UNL     1      41.960 -15.074   4.701  1.00  0.00     0.061 C 
HETATM   11  H   UNL     1      43.083 -13.402   7.258  1.00  0.00     0.167 HD
ENDROOT
BRANCH   4  12
HETATM   12  C   UNL     1      41.593 -10.600   7.649  1.00  0.00     0.261 C 
HETATM   13  N   UNL     1      41.641 -11.173   8.907  1.00  0.00    -0.323 N 
HETATM   14  H   UNL     1      41.316 -12.130   8.963  1.00  0.00     0.169 HD
HETATM   15  O   UNL     1      42.015  -9.492   7.347  1.00  0.00    -0.267 OA
BRANCH  13  16
HETATM   16  C   UNL     1      42.224 -10.638  10.073  1.00  0.00     0.035 A 
HETATM   17  C   UNL     1      43.553 -10.854  10.453  1.00  0.00     0.032 A 
HETATM   18  C   UNL     1      44.045 -10.319  11.648  1.00  0.00     0.044 A 
HETATM   19  C   UNL     1      43.212  -9.560  12.457  1.00  0.00     0.116 A 
HETATM   20  F   UNL     1      43.682  -9.054  13.603  1.00  0.00    -0.206 F 
HETATM   21  C   UNL     1      41.893  -9.325  12.093  1.00  0.00     0.044 A 
HETATM   22  C   UNL     1      41.399  -9.864  10.902  1.00  0.00     0.032 A 
ENDBRANCH  13  16
ENDBRANCH   4  12
BRANCH   1  23
HETATM   23  C   UNL     1      41.080 -13.645   2.742  1.00  0.00     0.005 A 
HETATM   24  C   UNL     1      40.140 -13.856   1.713  1.00  0.00     0.077 A 
HETATM   25  C   UNL     1      40.384 -13.342   0.433  1.00  0.00     0.037 A 
HETATM   26  C   UNL     1      41.563 -12.648   0.158  1.00  0.00     0.003 A 
HETATM   27  C   UNL     1      42.508 -12.457   1.158  1.00  0.00     0.001 A 
HETATM   28  C   UNL     1      42.271 -12.952   2.438  1.00  0.00     0.012 A 
BRANCH  24  29
HETATM   29  O   UNL     1      39.003 -14.539   2.048  1.00  0.00    -0.351 OA
BRANCH  29  30
HETATM   30  C   UNL     1      37.901 -14.470   1.144  1.00  0.00     0.171 C 
HETATM   31  C   UNL     1      37.441 -13.025   1.075  1.00  0.00     0.034 C 
ENDBRANCH  29  30
ENDBRANCH  24  29
ENDBRANCH   1  23
BRANCH  10  32
HETATM   32  C   UNL     1      41.898 -16.497   4.246  1.00  0.00     0.256 C 
HETATM   33  N   UNL     1      43.121 -17.127   4.181  1.00  0.00    -0.323 N 
HETATM   34  H   UNL     1      43.918 -16.652   4.585  1.00  0.00     0.169 HD
HETATM   35  O   UNL     1      40.817 -16.975   3.918  1.00  0.00    -0.267 OA
BRANCH  33  36
HETATM   36  C   UNL     1      43.420 -18.351   3.541  1.00  0.00     0.035 A 
HETATM   37  C   UNL     1      43.013 -18.681   2.247  1.00  0.00     0.029 A 
HETATM   38  C   UNL     1      43.395 -19.896   1.671  1.00  0.00     0.002 A 
HETATM   39  C   UNL     1      44.194 -20.790   2.381  1.00  0.00     0.000 A 
HETATM   40  C   UNL     1      44.603 -20.474   3.673  1.00  0.00     0.002 A 
HETATM   41  C   UNL     1      44.212 -19.264   4.253  1.00  0.00     0.029 A 
ENDBRANCH  33  36
ENDBRANCH  10  32
TORSDOF 7
ENDMDL
MODEL 5
REMARK VINA RESULT:      -9.1      5.116     10.275
REMARK  7 active torsions:
REMARK  status: ('A' for Active; 'I' for Inactive)
REMARK    1  A    between atoms: C_2  and  O_3 
REMARK    2  A    between atoms: O_3  and  C_4 
REMARK    3  A    between atoms: C_5  and  C_6 
REMARK    4  A    between atoms: C_9  and  C_10 
REMARK       I    between atoms: C_10  and  N_11 
REMARK    5  A    between atoms: N_11  and  C_12 
REMARK    6  A    between atoms: C_25  and  C_26 
REMARK       I    between atoms: C_26  and  N_27 
REMARK    7  A    between atoms: N_27  and  C_28 
ROOT
HETATM    1  C   UNL     1      42.276 -14.437   2.620  1.00  0.00     0.188 C 
HETATM    2  N   UNL     1      41.939 -13.719   1.382  1.00  0.00    -0.239 N 
HETATM    3  C   UNL     1      41.218 -14.262   0.345  1.00  0.00     0.142 C 
HETATM    4  C   UNL     1      41.062 -13.246  -0.577  1.00  0.00     0.097 C 
HETATM    5  C   UNL     1      41.859 -12.192  -0.058  1.00  0.00     0.160 C 
HETATM    6  N   UNL     1      42.409 -12.478   1.125  1.00  0.00    -0.181 NA
HETATM    7  N   UNL     1      40.853 -15.571   0.414  1.00  0.00    -0.343 N 
HETATM    8  C   UNL     1      41.319 -16.422   1.427  1.00  0.00     0.021 C 
HETATM    9  C   UNL     1      41.029 -17.891   1.228  1.00  0.00     0.069 C 
HETATM   10  C   UNL     1      42.001 -15.927   2.490  1.00  0.00     0.061 C 
HETATM   11  H   UNL     1      40.578 -16.069  -0.434  1.00  0.00     0.167 HD
ENDROOT
BRANCH   4  12
HETATM   12  C   UNL     1      40.297 -13.197  -1.810  1.00  0.00     0.261 C 
HETATM   13  N   UNL     1      39.001 -13.662  -1.676  1.00  0.00    -0.323 N 
HETATM   14  H   UNL     1      38.738 -13.956  -0.743  1.00  0.00     0.169 HD
HETATM   15  O   UNL     1      40.788 -12.717  -2.823  1.00  0.00    -0.267 OA
BRANCH  13  16
HETATM   16  C   UNL     1      37.973 -13.630  -2.639  1.00  0.00     0.035 A 
HETATM   17  C   UNL     1      37.577 -14.737  -3.396  1.00  0.00     0.032 A 
HETATM   18  C   UNL     1      36.573 -14.612  -4.363  1.00  0.00     0.044 A 
HETATM   19  C   UNL     1      35.960 -13.384  -4.564  1.00  0.00     0.116 A 
HETATM   20  F   UNL     1      35.004 -13.264  -5.492  1.00  0.00    -0.206 F 
HETATM   21  C   UNL     1      36.332 -12.275  -3.815  1.00  0.00     0.044 A 
HETATM   22  C   UNL     1      37.339 -12.398  -2.853  1.00  0.00     0.032 A 
ENDBRANCH  13  16
ENDBRANCH   4  12
BRANCH   1  23
HETATM   23  C   UNL     1      41.599 -13.749   3.813  1.00  0.00     0.005 A 
HETATM   24  C   UNL     1      42.314 -13.208   4.901  1.00  0.00     0.077 A 
HETATM   25  C   UNL     1      41.623 -12.566   5.936  1.00  0.00     0.037 A 
HETATM   26  C   UNL     1      40.230 -12.481   5.915  1.00  0.00     0.003 A 
HETATM   27  C   UNL     1      39.514 -13.034   4.862  1.00  0.00     0.001 A 
HETATM   28  C   UNL     1      40.191 -13.663   3.820  1.00  0.00     0.012 A 
BRANCH  24  29
HETATM   29  O   UNL     1      43.677 -13.319   4.859  1.00  0.00    -0.351 OA
BRANCH  29  30
HETATM   30  C   UNL     1      44.278 -14.367   5.618  1.00  0.00     0.171 C 
HETATM   31  C   UNL     1      44.876 -13.755   6.872  1.00  0.00     0.034 C 
ENDBRANCH  29  30
ENDBRANCH  24  29
ENDBRANCH   1  23
BRANCH  10  32
HETATM   32  C   UNL     1      42.769 -16.835   3.397  1.00  0.00     0.256 C 
HETATM   33  N   UNL     1      42.124 -17.140   4.575  1.00  0.00    -0.323 N 
HETATM   34  H   UNL     1      41.153 -16.872   4.664  1.00  0.00     0.169 HD
HETATM   35  O   UNL     1      43.898 -17.188   3.075  1.00  0.00    -0.267 OA
BRANCH  33  36
HETATM   36  C   UNL     1      42.685 -17.731   5.729  1.00  0.00     0.035 A 
HETATM   37  C   UNL     1      43.298 -18.985   5.750  1.00  0.00     0.029 A 
HETATM   38  C   UNL     1      43.871 -19.476   6.927  1.00  0.00     0.002 A 
HETATM   39  C   UNL     1      43.845 -18.714   8.093  1.00  0.00     0.000 A 
HETATM   40  C   UNL     1      43.233 -17.463   8.085  1.00  0.00     0.002 A 
HETATM   41  C   UNL     1      42.650 -16.978   6.911  1.00  0.00     0.029 A 
ENDBRANCH  33  36
ENDBRANCH  10  32
TORSDOF 7
ENDMDL
MODEL 6
REMARK VINA RESULT:      -9.0      6.451      9.510
REMARK  7 active torsions:
REMARK  status: ('A' for Active; 'I' for Inactive)
REMARK    1  A    between atoms: C_2  and  O_3 
REMARK    2  A    between atoms: O_3  and  C_4 
REMARK    3  A    between atoms: C_5  and  C_6 
REMARK    4  A    between atoms: C_9  and  C_10 
REMARK       I    between atoms: C_10  and  N_11 
REMARK    5  A    between atoms: N_11  and  C_12 
REMARK    6  A    between atoms: C_25  and  C_26 
REMARK       I    between atoms: C_26  and  N_27 
REMARK    7  A    between atoms: N_27  and  C_28 
ROOT
HETATM    1  C   UNL     1      40.737 -12.933  -0.417  1.00  0.00     0.188 C 
HETATM    2  N   UNL     1      41.316 -13.896   0.531  1.00  0.00    -0.239 N 
HETATM    3  C   UNL     1      41.831 -15.119   0.172  1.00  0.00     0.142 C 
HETATM    4  C   UNL     1      42.335 -15.671   1.334  1.00  0.00     0.097 C 
HETATM    5  C   UNL     1      41.928 -14.759   2.345  1.00  0.00     0.160 C 
HETATM    6  N   UNL     1      41.294 -13.687   1.866  1.00  0.00    -0.181 NA
HETATM    7  N   UNL     1      41.735 -15.518  -1.125  1.00  0.00    -0.343 N 
HETATM    8  C   UNL     1      40.993 -14.797  -2.073  1.00  0.00     0.021 C 
HETATM    9  C   UNL     1      40.778 -15.492  -3.397  1.00  0.00     0.069 C 
HETATM   10  C   UNL     1      40.499 -13.568  -1.778  1.00  0.00     0.061 C 
HETATM   11  H   UNL     1      41.842 -16.504  -1.365  1.00  0.00     0.167 HD
ENDROOT
BRANCH   4  12
HETATM   12  C   UNL     1      43.092 -16.889   1.552  1.00  0.00     0.261 C 
HETATM   13  N   UNL     1      43.236 -17.220   2.887  1.00  0.00    -0.323 N 
HETATM   14  H   UNL     1      42.783 -16.596   3.542  1.00  0.00     0.169 HD
HETATM   15  O   UNL     1      43.485 -17.551   0.600  1.00  0.00    -0.267 OA
BRANCH  13  16
HETATM   16  C   UNL     1      43.800 -18.394   3.424  1.00  0.00     0.035 A 
HETATM   17  C   UNL     1      43.981 -19.578   2.701  1.00  0.00     0.032 A 
HETATM   18  C   UNL     1      44.513 -20.714   3.320  1.00  0.00     0.044 A 
HETATM   19  C   UNL     1      44.872 -20.662   4.659  1.00  0.00     0.116 A 
HETATM   20  F   UNL     1      45.375 -21.752   5.252  1.00  0.00    -0.206 F 
HETATM   21  C   UNL     1      44.711 -19.495   5.393  1.00  0.00     0.044 A 
HETATM   22  C   UNL     1      44.174 -18.361   4.775  1.00  0.00     0.032 A 
ENDBRANCH  13  16
ENDBRANCH   4  12
BRANCH   1  23
HETATM   23  C   UNL     1      41.585 -11.654  -0.432  1.00  0.00     0.005 A 
HETATM   24  C   UNL     1      41.221 -10.477   0.255  1.00  0.00     0.077 A 
HETATM   25  C   UNL     1      42.067  -9.362   0.218  1.00  0.00     0.037 A 
HETATM   26  C   UNL     1      43.254  -9.394  -0.516  1.00  0.00     0.003 A 
HETATM   27  C   UNL     1      43.608 -10.539  -1.218  1.00  0.00     0.001 A 
HETATM   28  C   UNL     1      42.782 -11.659  -1.178  1.00  0.00     0.012 A 
BRANCH  24  29
HETATM   29  O   UNL     1      40.049 -10.513   0.959  1.00  0.00    -0.351 OA
BRANCH  29  30
HETATM   30  C   UNL     1      39.006  -9.628   0.551  1.00  0.00     0.171 C 
HETATM   31  C   UNL     1      38.021 -10.421  -0.290  1.00  0.00     0.034 C 
ENDBRANCH  29  30
ENDBRANCH  24  29
ENDBRANCH   1  23
BRANCH  10  32
HETATM   32  C   UNL     1      39.455 -12.937  -2.643  1.00  0.00     0.256 C 
HETATM   33  N   UNL     1      38.186 -13.438  -2.461  1.00  0.00    -0.323 N 
HETATM   34  H   UNL     1      38.031 -14.053  -1.673  1.00  0.00     0.169 HD
HETATM   35  O   UNL     1      39.791 -12.093  -3.467  1.00  0.00    -0.267 OA
BRANCH  33  36
HETATM   36  C   UNL     1      37.064 -13.252  -3.298  1.00  0.00     0.035 A 
HETATM   37  C   UNL     1      36.343 -12.060  -3.392  1.00  0.00     0.029 A 
HETATM   38  C   UNL     1      35.272 -11.945  -4.284  1.00  0.00     0.002 A 
HETATM   39  C   UNL     1      34.917 -13.020  -5.097  1.00  0.00     0.000 A 
HETATM   40  C   UNL     1      35.625 -14.215  -5.010  1.00  0.00     0.002 A 
HETATM   41  C   UNL     1      36.689 -14.332  -4.110  1.00  0.00     0.029 A 
ENDBRANCH  33  36
ENDBRANCH  10  32
TORSDOF 7
ENDMDL
MODEL 7
REMARK VINA RESULT:      -8.9      5.565     10.627
REMARK  7 active torsions:
REMARK  status: ('A' for Active; 'I' for Inactive)
REMARK    1  A    between atoms: C_2  and  O_3 
REMARK    2  A    between atoms: O_3  and  C_4 
REMARK    3  A    between atoms: C_5  and  C_6 
REMARK    4  A    between atoms: C_9  and  C_10 
REMARK       I    between atoms: C_10  and  N_11 
REMARK    5  A    between atoms: N_11  and  C_12 
REMARK    6  A    between atoms: C_25  and  C_26 
REMARK       I    between atoms: C_26  and  N_27 
REMARK    7  A    between atoms: N_27  and  C_28 
ROOT
HETATM    1  C   UNL     1      42.198 -14.409   2.136  1.00  0.00     0.188 C 
HETATM    2  N   UNL     1      41.846 -13.819   0.836  1.00  0.00    -0.239 N 
HETATM    3  C   UNL     1      41.122 -14.468  -0.136  1.00  0.00     0.142 C 
HETATM    4  C   UNL     1      40.951 -13.549  -1.153  1.00  0.00     0.097 C 
HETATM    5  C   UNL     1      41.744 -12.443  -0.747  1.00  0.00     0.160 C 
HETATM    6  N   UNL     1      42.305 -12.607   0.453  1.00  0.00    -0.181 NA
HETATM    7  N   UNL     1      40.767 -15.766   0.064  1.00  0.00    -0.343 N 
HETATM    8  C   UNL     1      41.248 -16.510   1.153  1.00  0.00     0.021 C 
HETATM    9  C   UNL     1      40.967 -17.993   1.103  1.00  0.00     0.069 C 
HETATM   10  C   UNL     1      41.934 -15.906   2.157  1.00  0.00     0.061 C 
HETATM   11  H   UNL     1      40.490 -16.347  -0.727  1.00  0.00     0.167 HD
ENDROOT
BRANCH   4  12
HETATM   12  C   UNL     1      40.177 -13.628  -2.378  1.00  0.00     0.261 C 
HETATM   13  N   UNL     1      38.810 -13.582  -2.172  1.00  0.00    -0.323 N 
HETATM   14  H   UNL     1      38.517 -13.478  -1.209  1.00  0.00     0.169 HD
HETATM   15  O   UNL     1      40.740 -13.662  -3.464  1.00  0.00    -0.267 OA
BRANCH  13  16
HETATM   16  C   UNL     1      37.796 -13.509  -3.149  1.00  0.00     0.035 A 
HETATM   17  C   UNL     1      37.194 -14.626  -3.736  1.00  0.00     0.032 A 
HETATM   18  C   UNL     1      36.222 -14.468  -4.729  1.00  0.00     0.044 A 
HETATM   19  C   UNL     1      35.845 -13.193  -5.126  1.00  0.00     0.116 A 
HETATM   20  F   UNL     1      34.919 -13.043  -6.080  1.00  0.00    -0.206 F 
HETATM   21  C   UNL     1      36.423 -12.070  -4.549  1.00  0.00     0.044 A 
HETATM   22  C   UNL     1      37.399 -12.228  -3.560  1.00  0.00     0.032 A 
ENDBRANCH  13  16
ENDBRANCH   4  12
BRANCH   1  23
HETATM   23  C   UNL     1      41.525 -13.611   3.260  1.00  0.00     0.005 A 
HETATM   24  C   UNL     1      40.129 -13.434   3.355  1.00  0.00     0.077 A 
HETATM   25  C   UNL     1      39.591 -12.719   4.432  1.00  0.00     0.037 A 
HETATM   26  C   UNL     1      40.424 -12.155   5.398  1.00  0.00     0.003 A 
HETATM   27  C   UNL     1      41.802 -12.300   5.300  1.00  0.00     0.001 A 
HETATM   28  C   UNL     1      42.349 -13.020   4.241  1.00  0.00     0.012 A 
BRANCH  24  29
HETATM   29  O   UNL     1      39.367 -14.017   2.380  1.00  0.00    -0.351 OA
BRANCH  29  30
HETATM   30  C   UNL     1      38.394 -13.202   1.726  1.00  0.00     0.171 C 
HETATM   31  C   UNL     1      37.500 -14.110   0.901  1.00  0.00     0.034 C 
ENDBRANCH  29  30
ENDBRANCH  24  29
ENDBRANCH   1  23
BRANCH  10  32
HETATM   32  C   UNL     1      42.715 -16.716   3.142  1.00  0.00     0.256 C 
HETATM   33  N   UNL     1      42.056 -16.960   4.326  1.00  0.00    -0.323 N 
HETATM   34  H   UNL     1      41.073 -16.725   4.376  1.00  0.00     0.169 HD
HETATM   35  O   UNL     1      43.864 -17.045   2.869  1.00  0.00    -0.267 OA
BRANCH  33  36
HETATM   36  C   UNL     1      42.613 -17.444   5.531  1.00  0.00     0.035 A 
HETATM   37  C   UNL     1      43.159 -18.719   5.688  1.00  0.00     0.029 A 
HETATM   38  C   UNL     1      43.734 -19.100   6.904  1.00  0.00     0.002 A 
HETATM   39  C   UNL     1      43.776 -18.207   7.973  1.00  0.00     0.000 A 
HETATM   40  C   UNL     1      43.232 -16.934   7.830  1.00  0.00     0.002 A 
HETATM   41  C   UNL     1      42.647 -16.557   6.617  1.00  0.00     0.029 A 
ENDBRANCH  33  36
ENDBRANCH  10  32
TORSDOF 7
ENDMDL
MODEL 8
REMARK VINA RESULT:      -8.9      5.343     10.268
REMARK  7 active torsions:
REMARK  status: ('A' for Active; 'I' for Inactive)
REMARK    1  A    between atoms: C_2  and  O_3 
REMARK    2  A    between atoms: O_3  and  C_4 
REMARK    3  A    between atoms: C_5  and  C_6 
REMARK    4  A    between atoms: C_9  and  C_10 
REMARK       I    between atoms: C_10  and  N_11 
REMARK    5  A    between atoms: N_11  and  C_12 
REMARK    6  A    between atoms: C_25  and  C_26 
REMARK       I    between atoms: C_26  and  N_27 
REMARK    7  A    between atoms: N_27  and  C_28 
ROOT
HETATM    1  C   UNL     1      42.039 -14.435   2.731  1.00  0.00     0.188 C 
HETATM    2  N   UNL     1      41.964 -13.610   1.517  1.00  0.00    -0.239 N 
HETATM    3  C   UNL     1      41.324 -13.991   0.362  1.00  0.00     0.142 C 
HETATM    4  C   UNL     1      41.423 -12.913  -0.496  1.00  0.00     0.097 C 
HETATM    5  C   UNL     1      42.272 -12.008   0.195  1.00  0.00     0.160 C 
HETATM    6  N   UNL     1      42.618 -12.432   1.412  1.00  0.00    -0.181 NA
HETATM    7  N   UNL     1      40.789 -15.240   0.288  1.00  0.00    -0.343 N 
HETATM    8  C   UNL     1      41.004 -16.202   1.286  1.00  0.00     0.021 C 
HETATM    9  C   UNL     1      40.558 -17.605   0.945  1.00  0.00     0.069 C 
HETATM   10  C   UNL     1      41.597 -15.865   2.459  1.00  0.00     0.061 C 
HETATM   11  H   UNL     1      40.569 -15.647  -0.622  1.00  0.00     0.167 HD
ENDROOT
BRANCH   4  12
HETATM   12  C   UNL     1      40.842 -12.691  -1.807  1.00  0.00     0.261 C 
HETATM   13  N   UNL     1      41.129 -11.446  -2.336  1.00  0.00    -0.323 N 
HETATM   14  H   UNL     1      41.721 -10.855  -1.765  1.00  0.00     0.169 HD
HETATM   15  O   UNL     1      40.221 -13.585  -2.367  1.00  0.00    -0.267 OA
BRANCH  13  16
HETATM   16  C   UNL     1      40.826 -10.971  -3.628  1.00  0.00     0.035 A 
HETATM   17  C   UNL     1      39.529 -10.709  -4.080  1.00  0.00     0.032 A 
HETATM   18  C   UNL     1      39.309 -10.277  -5.392  1.00  0.00     0.044 A 
HETATM   19  C   UNL     1      40.387 -10.097  -6.247  1.00  0.00     0.116 A 
HETATM   20  F   UNL     1      40.175  -9.689  -7.504  1.00  0.00    -0.206 F 
HETATM   21  C   UNL     1      41.684 -10.341  -5.815  1.00  0.00     0.044 A 
HETATM   22  C   UNL     1      41.903 -10.778  -4.505  1.00  0.00     0.032 A 
ENDBRANCH  13  16
ENDBRANCH   4  12
BRANCH   1  23
HETATM   23  C   UNL     1      41.303 -13.730   3.878  1.00  0.00     0.005 A 
HETATM   24  C   UNL     1      41.943 -13.299   5.058  1.00  0.00     0.077 A 
HETATM   25  C   UNL     1      41.205 -12.632   6.044  1.00  0.00     0.037 A 
HETATM   26  C   UNL     1      39.836 -12.416   5.884  1.00  0.00     0.003 A 
HETATM   27  C   UNL     1      39.190 -12.861   4.737  1.00  0.00     0.001 A 
HETATM   28  C   UNL     1      39.916 -13.513   3.743  1.00  0.00     0.012 A 
BRANCH  24  29
HETATM   29  O   UNL     1      43.287 -13.536   5.152  1.00  0.00    -0.351 OA
BRANCH  29  30
HETATM   30  C   UNL     1      43.797 -13.957   6.417  1.00  0.00     0.171 C 
HETATM   31  C   UNL     1      43.896 -15.472   6.401  1.00  0.00     0.034 C 
ENDBRANCH  29  30
ENDBRANCH  24  29
ENDBRANCH   1  23
BRANCH  10  32
HETATM   32  C   UNL     1      42.115 -16.919   3.384  1.00  0.00     0.256 C 
HETATM   33  N   UNL     1      43.308 -17.483   2.992  1.00  0.00    -0.323 N 
HETATM   34  H   UNL     1      43.807 -17.047   2.228  1.00  0.00     0.169 HD
HETATM   35  O   UNL     1      41.444 -17.243   4.359  1.00  0.00    -0.267 OA
BRANCH  33  36
HETATM   36  C   UNL     1      43.900 -18.666   3.489  1.00  0.00     0.035 A 
HETATM   37  C   UNL     1      44.323 -18.837   4.808  1.00  0.00     0.029 A 
HETATM   38  C   UNL     1      44.855 -20.060   5.230  1.00  0.00     0.002 A 
HETATM   39  C   UNL     1      44.963 -21.125   4.338  1.00  0.00     0.000 A 
HETATM   40  C   UNL     1      44.548 -20.964   3.019  1.00  0.00     0.002 A 
HETATM   41  C   UNL     1      44.026 -19.739   2.595  1.00  0.00     0.029 A 
ENDBRANCH  33  36
ENDBRANCH  10  32
TORSDOF 7
ENDMDL
MODEL 9
REMARK VINA RESULT:      -8.8      6.230      9.210
REMARK  7 active torsions:
REMARK  status: ('A' for Active; 'I' for Inactive)
REMARK    1  A    between atoms: C_2  and  O_3 
REMARK    2  A    between atoms: O_3  and  C_4 
REMARK    3  A    between atoms: C_5  and  C_6 
REMARK    4  A    between atoms: C_9  and  C_10 
REMARK       I    between atoms: C_10  and  N_11 
REMARK    5  A    between atoms: N_11  and  C_12 
REMARK    6  A    between atoms: C_25  and  C_26 
REMARK       I    between atoms: C_26  and  N_27 
REMARK    7  A    between atoms: N_27  and  C_28 
ROOT
HETATM    1  C   UNL     1      40.976 -12.420   1.146  1.00  0.00     0.188 C 
HETATM    2  N   UNL     1      41.650 -13.506   1.872  1.00  0.00    -0.239 N 
HETATM    3  C   UNL     1      41.122 -14.764   2.044  1.00  0.00     0.142 C 
HETATM    4  C   UNL     1      42.092 -15.491   2.706  1.00  0.00     0.097 C 
HETATM    5  C   UNL     1      43.089 -14.526   3.011  1.00  0.00     0.160 C 
HETATM    6  N   UNL     1      42.820 -13.314   2.522  1.00  0.00    -0.181 NA
HETATM    7  N   UNL     1      39.863 -15.016   1.593  1.00  0.00    -0.343 N 
HETATM    8  C   UNL     1      39.031 -13.999   1.102  1.00  0.00     0.021 C 
HETATM    9  C   UNL     1      37.590 -14.391   0.875  1.00  0.00     0.069 C 
HETATM   10  C   UNL     1      39.517 -12.752   0.878  1.00  0.00     0.061 C 
HETATM   11  H   UNL     1      39.347 -15.822   1.947  1.00  0.00     0.167 HD
ENDROOT
BRANCH   4  12
HETATM   12  C   UNL     1      42.146 -16.898   3.054  1.00  0.00     0.261 C 
HETATM   13  N   UNL     1      43.220 -17.566   2.494  1.00  0.00    -0.323 N 
HETATM   14  H   UNL     1      43.843 -16.998   1.934  1.00  0.00     0.169 HD
HETATM   15  O   UNL     1      41.327 -17.375   3.829  1.00  0.00    -0.267 OA
BRANCH  13  16
HETATM   16  C   UNL     1      43.626 -18.894   2.735  1.00  0.00     0.035 A 
HETATM   17  C   UNL     1      44.305 -19.308   3.885  1.00  0.00     0.032 A 
HETATM   18  C   UNL     1      44.709 -20.639   4.030  1.00  0.00     0.044 A 
HETATM   19  C   UNL     1      44.424 -21.558   3.029  1.00  0.00     0.116 A 
HETATM   20  F   UNL     1      44.816 -22.830   3.167  1.00  0.00    -0.206 F 
HETATM   21  C   UNL     1      43.741 -21.170   1.884  1.00  0.00     0.044 A 
HETATM   22  C   UNL     1      43.342 -19.838   1.737  1.00  0.00     0.032 A 
ENDBRANCH  13  16
ENDBRANCH   4  12
BRANCH   1  23
HETATM   23  C   UNL     1      41.799 -12.042  -0.093  1.00  0.00     0.005 A 
HETATM   24  C   UNL     1      41.937 -12.885  -1.216  1.00  0.00     0.077 A 
HETATM   25  C   UNL     1      42.680 -12.452  -2.322  1.00  0.00     0.037 A 
HETATM   26  C   UNL     1      43.307 -11.206  -2.313  1.00  0.00     0.003 A 
HETATM   27  C   UNL     1      43.200 -10.379  -1.202  1.00  0.00     0.001 A 
HETATM   28  C   UNL     1      42.453 -10.793  -0.101  1.00  0.00     0.012 A 
BRANCH  24  29
HETATM   29  O   UNL     1      41.293 -14.090  -1.164  1.00  0.00    -0.351 OA
BRANCH  29  30
HETATM   30  C   UNL     1      40.432 -14.426  -2.252  1.00  0.00     0.171 C 
HETATM   31  C   UNL     1      40.919 -15.735  -2.848  1.00  0.00     0.034 C 
ENDBRANCH  29  30
ENDBRANCH  24  29
ENDBRANCH   1  23
BRANCH  10  32
HETATM   32  C   UNL     1      38.590 -11.598   0.665  1.00  0.00     0.256 C 
HETATM   33  N   UNL     1      37.706 -11.381   1.699  1.00  0.00    -0.323 N 
HETATM   34  H   UNL     1      37.854 -11.892   2.560  1.00  0.00     0.169 HD
HETATM   35  O   UNL     1      38.632 -10.983  -0.395  1.00  0.00    -0.267 OA
BRANCH  33  36
HETATM   36  C   UNL     1      36.552 -10.566   1.682  1.00  0.00     0.035 A 
HETATM   37  C   UNL     1      36.429  -9.364   2.380  1.00  0.00     0.029 A 
HETATM   38  C   UNL     1      35.267  -8.594   2.269  1.00  0.00     0.002 A 
HETATM   39  C   UNL     1      34.220  -9.015   1.452  1.00  0.00     0.000 A 
HETATM   40  C   UNL     1      34.330 -10.214   0.753  1.00  0.00     0.002 A 
HETATM   41  C   UNL     1      35.487 -10.989   0.874  1.00  0.00     0.029 A 
ENDBRANCH  33  36
ENDBRANCH  10  32
TORSDOF 7
ENDMDL
MODEL 10
REMARK VINA RESULT:      -8.6      5.060      9.380
REMARK  7 active torsions:
REMARK  status: ('A' for Active; 'I' for Inactive)
REMARK    1  A    between atoms: C_2  and  O_3 
REMARK    2  A    between atoms: O_3  and  C_4 
REMARK    3  A    between atoms: C_5  and  C_6 
REMARK    4  A    between atoms: C_9  and  C_10 
REMARK       I    between atoms: C_10  and  N_11 
REMARK    5  A    between atoms: N_11  and  C_12 
REMARK    6  A    between atoms: C_25  and  C_26 
REMARK       I    between atoms: C_26  and  N_27 
REMARK    7  A    between atoms: N_27  and  C_28 
ROOT
HETATM    1  C   UNL     1      40.485 -12.965   2.723  1.00  0.00     0.188 C 
HETATM    2  N   UNL     1      41.225 -14.223   2.541  1.00  0.00    -0.239 N 
HETATM    3  C   UNL     1      41.182 -15.279   3.419  1.00  0.00     0.142 C 
HETATM    4  C   UNL     1      41.947 -16.276   2.846  1.00  0.00     0.097 C 
HETATM    5  C   UNL     1      42.520 -15.650   1.707  1.00  0.00     0.160 C 
HETATM    6  N   UNL     1      42.098 -14.397   1.524  1.00  0.00    -0.181 NA
HETATM    7  N   UNL     1      40.481 -15.143   4.578  1.00  0.00    -0.343 N 
HETATM    8  C   UNL     1      39.934 -13.914   4.977  1.00  0.00     0.021 C 
HETATM    9  C   UNL     1      39.405 -13.866   6.391  1.00  0.00     0.069 C 
HETATM   10  C   UNL     1      39.918 -12.854   4.130  1.00  0.00     0.061 C 
HETATM   11  H   UNL     1      40.658 -15.776   5.358  1.00  0.00     0.167 HD
ENDROOT
BRANCH   4  12
HETATM   12  C   UNL     1      42.172 -17.649   3.257  1.00  0.00     0.261 C 
HETATM   13  N   UNL     1      43.070 -18.328   2.452  1.00  0.00    -0.323 N 
HETATM   14  H   UNL     1      43.473 -17.787   1.697  1.00  0.00     0.169 HD
HETATM   15  O   UNL     1      41.639 -18.088   4.268  1.00  0.00    -0.267 OA
BRANCH  13  16
HETATM   16  C   UNL     1      43.596 -19.620   2.651  1.00  0.00     0.035 A 
HETATM   17  C   UNL     1      43.436 -20.677   1.749  1.00  0.00     0.032 A 
HETATM   18  C   UNL     1      43.956 -21.942   2.039  1.00  0.00     0.044 A 
HETATM   19  C   UNL     1      44.643 -22.147   3.227  1.00  0.00     0.116 A 
HETATM   20  F   UNL     1      45.135 -23.360   3.507  1.00  0.00    -0.206 F 
HETATM   21  C   UNL     1      44.822 -21.109   4.131  1.00  0.00     0.044 A 
HETATM   22  C   UNL     1      44.298 -19.846   3.843  1.00  0.00     0.032 A 
ENDBRANCH  13  16
ENDBRANCH   4  12
BRANCH   1  23
HETATM   23  C   UNL     1      39.462 -12.803   1.592  1.00  0.00     0.005 A 
HETATM   24  C   UNL     1      39.578 -11.827   0.579  1.00  0.00     0.077 A 
HETATM   25  C   UNL     1      38.617 -11.766  -0.438  1.00  0.00     0.037 A 
HETATM   26  C   UNL     1      37.531 -12.642  -0.445  1.00  0.00     0.003 A 
HETATM   27  C   UNL     1      37.393 -13.588   0.562  1.00  0.00     0.001 A 
HETATM   28  C   UNL     1      38.349 -13.668   1.572  1.00  0.00     0.012 A 
BRANCH  24  29
HETATM   29  O   UNL     1      40.668 -11.004   0.639  1.00  0.00    -0.351 OA
BRANCH  29  30
HETATM   30  C   UNL     1      40.439  -9.598   0.546  1.00  0.00     0.171 C 
HETATM   31  C   UNL     1      40.482  -9.022   1.950  1.00  0.00     0.034 C 
ENDBRANCH  29  30
ENDBRANCH  24  29
ENDBRANCH   1  23
BRANCH  10  32
HETATM   32  C   UNL     1      39.639 -11.475   4.637  1.00  0.00     0.256 C 
HETATM   33  N   UNL     1      40.742 -10.818   5.136  1.00  0.00    -0.323 N 
HETATM   34  H   UNL     1      41.650 -11.235   4.977  1.00  0.00     0.169 HD
HETATM   35  O   UNL     1      38.486 -11.058   4.633  1.00  0.00    -0.267 OA
BRANCH  33  36
HETATM   36  C   UNL     1      40.756  -9.644   5.920  1.00  0.00     0.035 A 
HETATM   37  C   UNL     1      40.024  -9.476   7.097  1.00  0.00     0.029 A 
HETATM   38  C   UNL     1      40.134  -8.297   7.840  1.00  0.00     0.002 A 
HETATM   39  C   UNL     1      40.984  -7.276   7.417  1.00  0.00     0.000 A 
HETATM   40  C   UNL     1      41.716  -7.430   6.244  1.00  0.00     0.002 A 
HETATM   41  C   UNL     1      41.598  -8.605   5.496  1.00  0.00     0.029 A 
ENDBRANCH  33  36
ENDBRANCH  10  32
TORSDOF 7
ENDMDL
