MODEL 1
REMARK VINA RESULT:      -8.5      0.000      0.000
REMARK  7 active torsions:
REMARK  status: ('A' for Active; 'I' for Inactive)
REMARK    1  A    between atoms: C_2  and  O_3 
REMARK    2  A    between atoms: O_3  and  C_4 
REMARK    3  A    between atoms: C_5  and  O_6 
REMARK    4  A    between atoms: C_10  and  C_11 
REMARK    5  A    between atoms: C_12  and  C_13 
REMARK       I    between atoms: C_13  and  N_14 
REMARK    6  A    between atoms: N_14  and  N_15 
REMARK       I    between atoms: N_15  and  C_16 
REMARK    7  A    between atoms: C_16  and  C_17 
ROOT
HETATM    1  C   UNL     1      45.018 -13.383   7.709  1.00  0.00     0.259 C 
HETATM    2  N   UNL     1      43.989 -14.233   7.385  1.00  0.00    -0.264 N 
HETATM    3  O   UNL     1      46.046 -13.289   7.045  1.00  0.00    -0.267 OA
HETATM    4  H   UNL     1      43.088 -14.267   7.856  1.00  0.00     0.190 HD
ENDROOT
BRANCH   2   5
HETATM    5  N   UNL     1      44.104 -14.970   6.198  1.00  0.00    -0.263 N 
HETATM    6  C   UNL     1      43.398 -16.154   6.074  1.00  0.00     0.272 C 
HETATM    7  O   UNL     1      42.783 -16.634   7.026  1.00  0.00    -0.266 OA
HETATM    8  H   UNL     1      44.468 -14.466   5.395  1.00  0.00     0.190 HD
BRANCH   6   9
HETATM    9  C   UNL     1      43.436 -16.764   4.745  1.00  0.00     0.061 A 
HETATM   10  C   UNL     1      43.940 -18.068   4.407  1.00  0.00     0.008 A 
HETATM   11  C   UNL     1      43.782 -18.251   3.028  1.00  0.00     0.045 A 
HETATM   12  C   UNL     1      44.517 -19.115   5.160  1.00  0.00     0.015 A 
HETATM   13  C   UNL     1      44.173 -19.438   2.385  1.00  0.00     0.030 A 
HETATM   14  N   UNL     1      43.210 -17.099   2.537  1.00  0.00    -0.359 N 
HETATM   15  C   UNL     1      44.742 -20.455   3.158  1.00  0.00     0.002 A 
HETATM   16  C   UNL     1      44.913 -20.297   4.528  1.00  0.00     0.001 A 
HETATM   17  C   UNL     1      42.863 -16.827   1.160  1.00  0.00     0.156 C 
HETATM   18  C   UNL     1      43.000 -16.202   3.555  1.00  0.00     0.108 A 
ENDBRANCH   6   9
ENDBRANCH   2   5
BRANCH   1  19
HETATM   19  C   UNL     1      44.766 -12.587   8.936  1.00  0.00     0.076 C 
HETATM   20  C   UNL     1      43.732 -11.732   8.956  1.00  0.00     0.017 C 
BRANCH  20  21
HETATM   21  C   UNL     1      43.380 -10.853  10.080  1.00  0.00    -0.033 A 
HETATM   22  C   UNL     1      44.170 -10.908  11.233  1.00  0.00     0.014 A 
HETATM   23  C   UNL     1      43.910 -10.071  12.321  1.00  0.00     0.040 A 
HETATM   24  C   UNL     1      42.859  -9.154  12.270  1.00  0.00     0.101 A 
HETATM   25  C   UNL     1      42.057  -9.084  11.113  1.00  0.00     0.102 A 
HETATM   26  C   UNL     1      42.329  -9.928  10.025  1.00  0.00     0.051 A 
BRANCH  24  27
HETATM   27  O   UNL     1      42.531  -8.294  13.288  1.00  0.00    -0.353 OA
HETATM   28  C   UNL     1      42.248  -8.860  14.559  1.00  0.00     0.210 C 
ENDBRANCH  24  27
BRANCH  25  29
HETATM   29  O   UNL     1      41.048  -8.154  11.143  1.00  0.00    -0.349 OA
BRANCH  29  30
HETATM   30  C   UNL     1      39.721  -8.591  10.867  1.00  0.00     0.171 C 
HETATM   31  C   UNL     1      39.222  -9.361  12.077  1.00  0.00     0.034 C 
ENDBRANCH  29  30
ENDBRANCH  25  29
ENDBRANCH  20  21
ENDBRANCH   1  19
TORSDOF 7
ENDMDL
MODEL 2
REMARK VINA RESULT:      -8.5      1.149      2.072
REMARK  7 active torsions:
REMARK  status: ('A' for Active; 'I' for Inactive)
REMARK    1  A    between atoms: C_2  and  O_3 
REMARK    2  A    between atoms: O_3  and  C_4 
REMARK    3  A    between atoms: C_5  and  O_6 
REMARK    4  A    between atoms: C_10  and  C_11 
REMARK    5  A    between atoms: C_12  and  C_13 
REMARK       I    between atoms: C_13  and  N_14 
REMARK    6  A    between atoms: N_14  and  N_15 
REMARK       I    between atoms: N_15  and  C_16 
REMARK    7  A    between atoms: C_16  and  C_17 
ROOT
HETATM    1  C   UNL     1      44.763 -13.691   7.373  1.00  0.00     0.259 C 
HETATM    2  N   UNL     1      43.935 -14.781   7.493  1.00  0.00    -0.264 N 
HETATM    3  O   UNL     1      45.813 -13.713   6.737  1.00  0.00    -0.267 OA
HETATM    4  H   UNL     1      43.016 -14.771   7.930  1.00  0.00     0.190 HD
ENDROOT
BRANCH   2   5
HETATM    5  N   UNL     1      44.284 -15.943   6.793  1.00  0.00    -0.263 N 
HETATM    6  C   UNL     1      43.406 -17.012   6.790  1.00  0.00     0.272 C 
HETATM    7  O   UNL     1      42.395 -17.011   7.491  1.00  0.00    -0.266 OA
HETATM    8  H   UNL     1      45.022 -15.842   6.103  1.00  0.00     0.190 HD
BRANCH   6   9
HETATM    9  C   UNL     1      43.768 -18.111   5.894  1.00  0.00     0.061 A 
HETATM   10  C   UNL     1      43.726 -18.103   4.457  1.00  0.00     0.008 A 
HETATM   11  C   UNL     1      44.157 -19.356   4.002  1.00  0.00     0.045 A 
HETATM   12  C   UNL     1      43.360 -17.132   3.497  1.00  0.00     0.015 A 
HETATM   13  C   UNL     1      44.238 -19.663   2.633  1.00  0.00     0.030 A 
HETATM   14  N   UNL     1      44.445 -20.106   5.120  1.00  0.00    -0.359 N 
HETATM   15  C   UNL     1      43.868 -18.681   1.710  1.00  0.00     0.002 A 
HETATM   16  C   UNL     1      43.434 -17.431   2.134  1.00  0.00     0.001 A 
HETATM   17  C   UNL     1      44.922 -21.471   5.143  1.00  0.00     0.156 C 
HETATM   18  C   UNL     1      44.214 -19.373   6.257  1.00  0.00     0.108 A 
ENDBRANCH   6   9
ENDBRANCH   2   5
BRANCH   1  19
HETATM   19  C   UNL     1      44.264 -12.486   8.081  1.00  0.00     0.076 C 
HETATM   20  C   UNL     1      44.168 -12.511   9.419  1.00  0.00     0.017 C 
BRANCH  20  21
HETATM   21  C   UNL     1      43.661 -11.412  10.253  1.00  0.00    -0.033 A 
HETATM   22  C   UNL     1      44.332 -11.124  11.446  1.00  0.00     0.014 A 
HETATM   23  C   UNL     1      43.923 -10.067  12.262  1.00  0.00     0.040 A 
HETATM   24  C   UNL     1      42.837  -9.271  11.893  1.00  0.00     0.101 A 
HETATM   25  C   UNL     1      42.153  -9.546  10.691  1.00  0.00     0.102 A 
HETATM   26  C   UNL     1      42.575 -10.608   9.878  1.00  0.00     0.051 A 
BRANCH  24  27
HETATM   27  O   UNL     1      42.365  -8.213  12.631  1.00  0.00    -0.353 OA
HETATM   28  C   UNL     1      41.982  -8.471  13.974  1.00  0.00     0.210 C 
ENDBRANCH  24  27
BRANCH  25  29
HETATM   29  O   UNL     1      41.101  -8.713  10.401  1.00  0.00    -0.349 OA
BRANCH  29  30
HETATM   30  C   UNL     1      39.819  -9.297  10.191  1.00  0.00     0.171 C 
HETATM   31  C   UNL     1      39.229  -9.629  11.550  1.00  0.00     0.034 C 
ENDBRANCH  29  30
ENDBRANCH  25  29
ENDBRANCH  20  21
ENDBRANCH   1  19
TORSDOF 7
ENDMDL
MODEL 3
REMARK VINA RESULT:      -8.2      7.883     11.419
REMARK  7 active torsions:
REMARK  status: ('A' for Active; 'I' for Inactive)
REMARK    1  A    between atoms: C_2  and  O_3 
REMARK    2  A    between atoms: O_3  and  C_4 
REMARK    3  A    between atoms: C_5  and  O_6 
REMARK    4  A    between atoms: C_10  and  C_11 
REMARK    5  A    between atoms: C_12  and  C_13 
REMARK       I    between atoms: C_13  and  N_14 
REMARK    6  A    between atoms: N_14  and  N_15 
REMARK       I    between atoms: N_15  and  C_16 
REMARK    7  A    between atoms: C_16  and  C_17 
ROOT
HETATM    1  C   UNL     1      41.193 -15.980   0.668  1.00  0.00     0.259 C 
HETATM    2  N   UNL     1      41.814 -15.687  -0.521  1.00  0.00    -0.264 N 
HETATM    3  O   UNL     1      40.300 -15.287   1.149  1.00  0.00    -0.267 OA
HETATM    4  H   UNL     1      42.487 -16.287  -0.993  1.00  0.00     0.190 HD
ENDROOT
BRANCH   2   5
HETATM    5  N   UNL     1      41.346 -14.580  -1.243  1.00  0.00    -0.263 N 
HETATM    6  C   UNL     1      40.834 -14.777  -2.513  1.00  0.00     0.272 C 
HETATM    7  O   UNL     1      40.902 -15.874  -3.067  1.00  0.00    -0.266 OA
HETATM    8  H   UNL     1      41.149 -13.745  -0.699  1.00  0.00     0.190 HD
BRANCH   6   9
HETATM    9  C   UNL     1      40.210 -13.601  -3.121  1.00  0.00     0.061 A 
HETATM   10  C   UNL     1      40.882 -12.452  -3.666  1.00  0.00     0.008 A 
HETATM   11  C   UNL     1      39.908 -11.568  -4.147  1.00  0.00     0.045 A 
HETATM   12  C   UNL     1      42.241 -12.087  -3.796  1.00  0.00     0.015 A 
HETATM   13  C   UNL     1      40.247 -10.345  -4.752  1.00  0.00     0.030 A 
HETATM   14  N   UNL     1      38.686 -12.149  -3.898  1.00  0.00    -0.359 N 
HETATM   15  C   UNL     1      41.600 -10.013  -4.865  1.00  0.00     0.002 A 
HETATM   16  C   UNL     1      42.586 -10.872  -4.393  1.00  0.00     0.001 A 
HETATM   17  C   UNL     1      37.387 -11.599  -4.218  1.00  0.00     0.156 C 
HETATM   18  C   UNL     1      38.854 -13.365  -3.283  1.00  0.00     0.108 A 
ENDBRANCH   6   9
ENDBRANCH   2   5
BRANCH   1  19
HETATM   19  C   UNL     1      41.701 -17.215   1.315  1.00  0.00     0.076 C 
HETATM   20  C   UNL     1      42.764 -17.133   2.131  1.00  0.00     0.017 C 
BRANCH  20  21
HETATM   21  C   UNL     1      43.400 -18.269   2.811  1.00  0.00    -0.033 A 
HETATM   22  C   UNL     1      43.736 -19.392   2.048  1.00  0.00     0.014 A 
HETATM   23  C   UNL     1      44.378 -20.488   2.628  1.00  0.00     0.040 A 
HETATM   24  C   UNL     1      44.705 -20.476   3.986  1.00  0.00     0.101 A 
HETATM   25  C   UNL     1      44.377 -19.349   4.767  1.00  0.00     0.102 A 
HETATM   26  C   UNL     1      43.736 -18.253   4.172  1.00  0.00     0.051 A 
BRANCH  24  27
HETATM   27  O   UNL     1      45.335 -21.506   4.640  1.00  0.00    -0.353 OA
HETATM   28  C   UNL     1      44.745 -22.795   4.555  1.00  0.00     0.210 C 
ENDBRANCH  24  27
BRANCH  25  29
HETATM   29  O   UNL     1      44.738 -19.417   6.090  1.00  0.00    -0.349 OA
BRANCH  29  30
HETATM   30  C   UNL     1      43.704 -19.443   7.069  1.00  0.00     0.171 C 
HETATM   31  C   UNL     1      43.555 -20.875   7.551  1.00  0.00     0.034 C 
ENDBRANCH  29  30
ENDBRANCH  25  29
ENDBRANCH  20  21
ENDBRANCH   1  19
TORSDOF 7
ENDMDL
MODEL 4
REMARK VINA RESULT:      -8.1      7.966     11.725
REMARK  7 active torsions:
REMARK  status: ('A' for Active; 'I' for Inactive)
REMARK    1  A    between atoms: C_2  and  O_3 
REMARK    2  A    between atoms: O_3  and  C_4 
REMARK    3  A    between atoms: C_5  and  O_6 
REMARK    4  A    between atoms: C_10  and  C_11 
REMARK    5  A    between atoms: C_12  and  C_13 
REMARK       I    between atoms: C_13  and  N_14 
REMARK    6  A    between atoms: N_14  and  N_15 
REMARK       I    between atoms: N_15  and  C_16 
REMARK    7  A    between atoms: C_16  and  C_17 
ROOT
HETATM    1  C   UNL     1      41.697 -15.735   0.249  1.00  0.00     0.259 C 
HETATM    2  N   UNL     1      40.861 -15.910  -0.826  1.00  0.00    -0.264 N 
HETATM    3  O   UNL     1      41.952 -14.635   0.730  1.00  0.00    -0.267 OA
HETATM    4  H   UNL     1      40.554 -16.810  -1.188  1.00  0.00     0.190 HD
ENDROOT
BRANCH   2   5
HETATM    5  N   UNL     1      40.221 -14.776  -1.343  1.00  0.00    -0.263 N 
HETATM    6  C   UNL     1      39.944 -14.722  -2.697  1.00  0.00     0.272 C 
HETATM    7  O   UNL     1      40.363 -15.582  -3.470  1.00  0.00    -0.266 OA
HETATM    8  H   UNL     1      39.746 -14.186  -0.666  1.00  0.00     0.190 HD
BRANCH   6   9
HETATM    9  C   UNL     1      39.121 -13.588  -3.119  1.00  0.00     0.061 A 
HETATM   10  C   UNL     1      37.817 -13.645  -3.724  1.00  0.00     0.008 A 
HETATM   11  C   UNL     1      37.391 -12.332  -3.963  1.00  0.00     0.045 A 
HETATM   12  C   UNL     1      36.956 -14.706  -4.088  1.00  0.00     0.015 A 
HETATM   13  C   UNL     1      36.142 -12.050  -4.543  1.00  0.00     0.030 A 
HETATM   14  N   UNL     1      38.399 -11.503  -3.528  1.00  0.00    -0.359 N 
HETATM   15  C   UNL     1      35.315 -13.121  -4.892  1.00  0.00     0.002 A 
HETATM   16  C   UNL     1      35.715 -14.433  -4.669  1.00  0.00     0.001 A 
HETATM   17  C   UNL     1      38.407 -10.057  -3.576  1.00  0.00     0.156 C 
HETATM   18  C   UNL     1      39.439 -12.242  -3.023  1.00  0.00     0.108 A 
ENDBRANCH   6   9
ENDBRANCH   2   5
BRANCH   1  19
HETATM   19  C   UNL     1      42.260 -17.004   0.776  1.00  0.00     0.076 C 
HETATM   20  C   UNL     1      42.718 -17.039   2.037  1.00  0.00     0.017 C 
BRANCH  20  21
HETATM   21  C   UNL     1      43.333 -18.207   2.683  1.00  0.00    -0.033 A 
HETATM   22  C   UNL     1      43.578 -19.341   1.902  1.00  0.00     0.014 A 
HETATM   23  C   UNL     1      44.196 -20.468   2.448  1.00  0.00     0.040 A 
HETATM   24  C   UNL     1      44.590 -20.477   3.787  1.00  0.00     0.101 A 
HETATM   25  C   UNL     1      44.354 -19.339   4.586  1.00  0.00     0.102 A 
HETATM   26  C   UNL     1      43.736 -18.212   4.026  1.00  0.00     0.051 A 
BRANCH  24  27
HETATM   27  O   UNL     1      45.202 -21.538   4.408  1.00  0.00    -0.353 OA
HETATM   28  C   UNL     1      44.684 -22.835   4.153  1.00  0.00     0.210 C 
ENDBRANCH  24  27
BRANCH  25  29
HETATM   29  O   UNL     1      44.776 -19.429   5.889  1.00  0.00    -0.349 OA
BRANCH  29  30
HETATM   30  C   UNL     1      43.792 -19.400   6.918  1.00  0.00     0.171 C 
HETATM   31  C   UNL     1      43.574 -20.824   7.395  1.00  0.00     0.034 C 
ENDBRANCH  29  30
ENDBRANCH  25  29
ENDBRANCH  20  21
ENDBRANCH   1  19
TORSDOF 7
ENDMDL
MODEL 5
REMARK VINA RESULT:      -8.1      7.046     11.525
REMARK  7 active torsions:
REMARK  status: ('A' for Active; 'I' for Inactive)
REMARK    1  A    between atoms: C_2  and  O_3 
REMARK    2  A    between atoms: O_3  and  C_4 
REMARK    3  A    between atoms: C_5  and  O_6 
REMARK    4  A    between atoms: C_10  and  C_11 
REMARK    5  A    between atoms: C_12  and  C_13 
REMARK       I    between atoms: C_13  and  N_14 
REMARK    6  A    between atoms: N_14  and  N_15 
REMARK       I    between atoms: N_15  and  C_16 
REMARK    7  A    between atoms: C_16  and  C_17 
ROOT
HETATM    1  C   UNL     1      41.144 -15.982   0.486  1.00  0.00     0.259 C 
HETATM    2  N   UNL     1      41.125 -15.908  -0.886  1.00  0.00    -0.264 N 
HETATM    3  O   UNL     1      40.387 -15.335   1.204  1.00  0.00    -0.267 OA
HETATM    4  H   UNL     1      41.670 -16.499  -1.511  1.00  0.00     0.190 HD
ENDROOT
BRANCH   2   5
HETATM    5  N   UNL     1      40.142 -15.106  -1.480  1.00  0.00    -0.263 N 
HETATM    6  C   UNL     1      39.935 -15.200  -2.844  1.00  0.00     0.272 C 
HETATM    7  O   UNL     1      40.679 -15.871  -3.559  1.00  0.00    -0.266 OA
HETATM    8  H   UNL     1      39.451 -14.709  -0.850  1.00  0.00     0.190 HD
BRANCH   6   9
HETATM    9  C   UNL     1      38.778 -14.461  -3.351  1.00  0.00     0.061 A 
HETATM   10  C   UNL     1      38.607 -13.034  -3.371  1.00  0.00     0.008 A 
HETATM   11  C   UNL     1      37.359 -12.754  -3.942  1.00  0.00     0.045 A 
HETATM   12  C   UNL     1      39.411 -11.948  -2.954  1.00  0.00     0.015 A 
HETATM   13  C   UNL     1      36.897 -11.438  -4.113  1.00  0.00     0.030 A 
HETATM   14  N   UNL     1      36.784 -13.965  -4.253  1.00  0.00    -0.359 N 
HETATM   15  C   UNL     1      37.715 -10.387  -3.689  1.00  0.00     0.002 A 
HETATM   16  C   UNL     1      38.956 -10.637  -3.116  1.00  0.00     0.001 A 
HETATM   17  C   UNL     1      35.488 -14.175  -4.860  1.00  0.00     0.156 C 
HETATM   18  C   UNL     1      37.623 -14.993  -3.902  1.00  0.00     0.108 A 
ENDBRANCH   6   9
ENDBRANCH   2   5
BRANCH   1  19
HETATM   19  C   UNL     1      42.164 -16.921   1.016  1.00  0.00     0.076 C 
HETATM   20  C   UNL     1      41.889 -17.621   2.128  1.00  0.00     0.017 C 
BRANCH  20  21
HETATM   21  C   UNL     1      42.809 -18.558   2.788  1.00  0.00    -0.033 A 
HETATM   22  C   UNL     1      43.329 -19.615   2.034  1.00  0.00     0.014 A 
HETATM   23  C   UNL     1      44.238 -20.516   2.593  1.00  0.00     0.040 A 
HETATM   24  C   UNL     1      44.652 -20.368   3.919  1.00  0.00     0.101 A 
HETATM   25  C   UNL     1      44.140 -19.305   4.690  1.00  0.00     0.102 A 
HETATM   26  C   UNL     1      43.230 -18.404   4.116  1.00  0.00     0.051 A 
BRANCH  24  27
HETATM   27  O   UNL     1      45.540 -21.204   4.551  1.00  0.00    -0.353 OA
HETATM   28  C   UNL     1      45.052 -22.459   5.000  1.00  0.00     0.210 C 
ENDBRANCH  24  27
BRANCH  25  29
HETATM   29  O   UNL     1      44.601 -19.229   5.981  1.00  0.00    -0.349 OA
BRANCH  29  30
HETATM   30  C   UNL     1      44.831 -17.939   6.539  1.00  0.00     0.171 C 
HETATM   31  C   UNL     1      43.864 -17.752   7.694  1.00  0.00     0.034 C 
ENDBRANCH  29  30
ENDBRANCH  25  29
ENDBRANCH  20  21
ENDBRANCH   1  19
TORSDOF 7
ENDMDL
MODEL 6
REMARK VINA RESULT:      -7.8      7.348     11.388
REMARK  7 active torsions:
REMARK  status: ('A' for Active; 'I' for Inactive)
REMARK    1  A    between atoms: C_2  and  O_3 
REMARK    2  A    between atoms: O_3  and  C_4 
REMARK    3  A    between atoms: C_5  and  O_6 
REMARK    4  A    between atoms: C_10  and  C_11 
REMARK    5  A    between atoms: C_12  and  C_13 
REMARK       I    between atoms: C_13  and  N_14 
REMARK    6  A    between atoms: N_14  and  N_15 
REMARK       I    between atoms: N_15  and  C_16 
REMARK    7  A    between atoms: C_16  and  C_17 
ROOT
HETATM    1  C   UNL     1      41.238 -16.079   0.015  1.00  0.00     0.259 C 
HETATM    2  N   UNL     1      40.290 -15.402   0.742  1.00  0.00    -0.264 N 
HETATM    3  O   UNL     1      41.249 -16.108  -1.213  1.00  0.00    -0.267 OA
HETATM    4  H   UNL     1      40.306 -15.278   1.752  1.00  0.00     0.190 HD
ENDROOT
BRANCH   2   5
HETATM    5  N   UNL     1      39.338 -14.656   0.035  1.00  0.00    -0.263 N 
HETATM    6  C   UNL     1      39.549 -13.301  -0.149  1.00  0.00     0.272 C 
HETATM    7  O   UNL     1      40.481 -12.719   0.405  1.00  0.00    -0.266 OA
HETATM    8  H   UNL     1      38.693 -15.190  -0.541  1.00  0.00     0.190 HD
BRANCH   6   9
HETATM    9  C   UNL     1      38.600 -12.639  -1.045  1.00  0.00     0.061 A 
HETATM   10  C   UNL     1      37.332 -12.064  -0.685  1.00  0.00     0.008 A 
HETATM   11  C   UNL     1      36.752 -11.534  -1.845  1.00  0.00     0.045 A 
HETATM   12  C   UNL     1      36.624 -11.944   0.532  1.00  0.00     0.015 A 
HETATM   13  C   UNL     1      35.502 -10.890  -1.824  1.00  0.00     0.030 A 
HETATM   14  N   UNL     1      37.628 -11.782  -2.876  1.00  0.00    -0.359 N 
HETATM   15  C   UNL     1      34.828 -10.789  -0.604  1.00  0.00     0.002 A 
HETATM   16  C   UNL     1      35.379 -11.309   0.560  1.00  0.00     0.001 A 
HETATM   17  C   UNL     1      37.451 -11.419  -4.265  1.00  0.00     0.156 C 
HETATM   18  C   UNL     1      38.736 -12.444  -2.410  1.00  0.00     0.108 A 
ENDBRANCH   6   9
ENDBRANCH   2   5
BRANCH   1  19
HETATM   19  C   UNL     1      42.250 -16.768   0.854  1.00  0.00     0.076 C 
HETATM   20  C   UNL     1      41.942 -17.952   1.403  1.00  0.00     0.017 C 
BRANCH  20  21
HETATM   21  C   UNL     1      42.823 -18.734   2.283  1.00  0.00    -0.033 A 
HETATM   22  C   UNL     1      43.178 -20.026   1.883  1.00  0.00     0.014 A 
HETATM   23  C   UNL     1      44.043 -20.804   2.656  1.00  0.00     0.040 A 
HETATM   24  C   UNL     1      44.578 -20.296   3.842  1.00  0.00     0.101 A 
HETATM   25  C   UNL     1      44.234 -18.993   4.255  1.00  0.00     0.102 A 
HETATM   26  C   UNL     1      43.367 -18.220   3.469  1.00  0.00     0.051 A 
BRANCH  24  27
HETATM   27  O   UNL     1      45.435 -20.987   4.663  1.00  0.00    -0.353 OA
HETATM   28  C   UNL     1      44.971 -22.211   5.212  1.00  0.00     0.210 C 
ENDBRANCH  24  27
BRANCH  25  29
HETATM   29  O   UNL     1      44.807 -18.570   5.428  1.00  0.00    -0.349 OA
BRANCH  29  30
HETATM   30  C   UNL     1      43.948 -18.212   6.506  1.00  0.00     0.171 C 
HETATM   31  C   UNL     1      43.766 -19.437   7.384  1.00  0.00     0.034 C 
ENDBRANCH  29  30
ENDBRANCH  25  29
ENDBRANCH  20  21
ENDBRANCH   1  19
TORSDOF 7
ENDMDL
MODEL 7
REMARK VINA RESULT:      -7.7      7.518     10.916
REMARK  7 active torsions:
REMARK  status: ('A' for Active; 'I' for Inactive)
REMARK    1  A    between atoms: C_2  and  O_3 
REMARK    2  A    between atoms: O_3  and  C_4 
REMARK    3  A    between atoms: C_5  and  O_6 
REMARK    4  A    between atoms: C_10  and  C_11 
REMARK    5  A    between atoms: C_12  and  C_13 
REMARK       I    between atoms: C_13  and  N_14 
REMARK    6  A    between atoms: N_14  and  N_15 
REMARK       I    between atoms: N_15  and  C_16 
REMARK    7  A    between atoms: C_16  and  C_17 
ROOT
HETATM    1  C   UNL     1      40.054 -15.334   1.708  1.00  0.00     0.259 C 
HETATM    2  N   UNL     1      40.607 -16.463   1.154  1.00  0.00    -0.264 N 
HETATM    3  O   UNL     1      40.088 -15.090   2.910  1.00  0.00    -0.267 OA
HETATM    4  H   UNL     1      40.681 -16.649   0.157  1.00  0.00     0.190 HD
ENDROOT
BRANCH   2   5
HETATM    5  N   UNL     1      41.300 -17.332   2.007  1.00  0.00    -0.263 N 
HETATM    6  C   UNL     1      42.675 -17.433   1.888  1.00  0.00     0.272 C 
HETATM    7  O   UNL     1      43.279 -16.881   0.969  1.00  0.00    -0.266 OA
HETATM    8  H   UNL     1      40.803 -17.626   2.843  1.00  0.00     0.190 HD
BRANCH   6   9
HETATM    9  C   UNL     1      43.333 -18.225   2.928  1.00  0.00     0.061 A 
HETATM   10  C   UNL     1      43.704 -19.612   2.852  1.00  0.00     0.008 A 
HETATM   11  C   UNL     1      44.310 -19.966   4.064  1.00  0.00     0.045 A 
HETATM   12  C   UNL     1      43.578 -20.602   1.851  1.00  0.00     0.015 A 
HETATM   13  C   UNL     1      44.795 -21.264   4.302  1.00  0.00     0.030 A 
HETATM   14  N   UNL     1      44.304 -18.840   4.855  1.00  0.00    -0.359 N 
HETATM   15  C   UNL     1      44.655 -22.220   3.292  1.00  0.00     0.002 A 
HETATM   16  C   UNL     1      44.054 -21.896   2.082  1.00  0.00     0.001 A 
HETATM   17  C   UNL     1      44.823 -18.728   6.201  1.00  0.00     0.156 C 
HETATM   18  C   UNL     1      43.720 -17.793   4.187  1.00  0.00     0.108 A 
ENDBRANCH   6   9
ENDBRANCH   2   5
BRANCH   1  19
HETATM   19  C   UNL     1      39.416 -14.436   0.712  1.00  0.00     0.076 C 
HETATM   20  C   UNL     1      39.874 -14.433  -0.549  1.00  0.00     0.017 C 
BRANCH  20  21
HETATM   21  C   UNL     1      39.369 -13.577  -1.632  1.00  0.00    -0.033 A 
HETATM   22  C   UNL     1      37.994 -13.332  -1.693  1.00  0.00     0.014 A 
HETATM   23  C   UNL     1      37.457 -12.496  -2.675  1.00  0.00     0.040 A 
HETATM   24  C   UNL     1      38.292 -11.880  -3.610  1.00  0.00     0.101 A 
HETATM   25  C   UNL     1      39.681 -12.114  -3.557  1.00  0.00     0.102 A 
HETATM   26  C   UNL     1      40.209 -12.953  -2.565  1.00  0.00     0.051 A 
BRANCH  24  27
HETATM   27  O   UNL     1      37.854 -11.044  -4.607  1.00  0.00    -0.353 OA
HETATM   28  C   UNL     1      36.451 -10.883  -4.759  1.00  0.00     0.210 C 
ENDBRANCH  24  27
BRANCH  25  29
HETATM   29  O   UNL     1      40.430 -11.467  -4.509  1.00  0.00    -0.349 OA
BRANCH  29  30
HETATM   30  C   UNL     1      41.491 -10.624  -4.072  1.00  0.00     0.171 C 
HETATM   31  C   UNL     1      42.228 -10.125  -5.302  1.00  0.00     0.034 C 
ENDBRANCH  29  30
ENDBRANCH  25  29
ENDBRANCH  20  21
ENDBRANCH   1  19
TORSDOF 7
ENDMDL
MODEL 8
REMARK VINA RESULT:      -7.5      7.790     11.262
REMARK  7 active torsions:
REMARK  status: ('A' for Active; 'I' for Inactive)
REMARK    1  A    between atoms: C_2  and  O_3 
REMARK    2  A    between atoms: O_3  and  C_4 
REMARK    3  A    between atoms: C_5  and  O_6 
REMARK    4  A    between atoms: C_10  and  C_11 
REMARK    5  A    between atoms: C_12  and  C_13 
REMARK       I    between atoms: C_13  and  N_14 
REMARK    6  A    between atoms: N_14  and  N_15 
REMARK       I    between atoms: N_15  and  C_16 
REMARK    7  A    between atoms: C_16  and  C_17 
ROOT
HETATM    1  C   UNL     1      41.049 -15.496   0.711  1.00  0.00     0.259 C 
HETATM    2  N   UNL     1      41.919 -14.812  -0.103  1.00  0.00    -0.264 N 
HETATM    3  O   UNL     1      39.937 -15.072   1.011  1.00  0.00    -0.267 OA
HETATM    4  H   UNL     1      42.805 -15.175  -0.448  1.00  0.00     0.190 HD
ENDROOT
BRANCH   2   5
HETATM    5  N   UNL     1      41.474 -13.609  -0.666  1.00  0.00    -0.263 N 
HETATM    6  C   UNL     1      41.941 -12.414  -0.150  1.00  0.00     0.272 C 
HETATM    7  O   UNL     1      42.630 -12.384   0.870  1.00  0.00    -0.266 OA
HETATM    8  H   UNL     1      41.058 -13.678  -1.591  1.00  0.00     0.190 HD
BRANCH   6   9
HETATM    9  C   UNL     1      41.565 -11.220  -0.907  1.00  0.00     0.061 A 
HETATM   10  C   UNL     1      41.803 -10.973  -2.304  1.00  0.00     0.008 A 
HETATM   11  C   UNL     1      41.278  -9.712  -2.617  1.00  0.00     0.045 A 
HETATM   12  C   UNL     1      42.419 -11.717  -3.335  1.00  0.00     0.015 A 
HETATM   13  C   UNL     1      41.345  -9.181  -3.917  1.00  0.00     0.030 A 
HETATM   14  N   UNL     1      40.747  -9.203  -1.454  1.00  0.00    -0.359 N 
HETATM   15  C   UNL     1      41.962  -9.942  -4.914  1.00  0.00     0.002 A 
HETATM   16  C   UNL     1      42.493 -11.194  -4.629  1.00  0.00     0.001 A 
HETATM   17  C   UNL     1      40.098  -7.921  -1.292  1.00  0.00     0.156 C 
HETATM   18  C   UNL     1      40.914 -10.095  -0.425  1.00  0.00     0.108 A 
ENDBRANCH   6   9
ENDBRANCH   2   5
BRANCH   1  19
HETATM   19  C   UNL     1      41.581 -16.796   1.189  1.00  0.00     0.076 C 
HETATM   20  C   UNL     1      42.480 -16.805   2.186  1.00  0.00     0.017 C 
BRANCH  20  21
HETATM   21  C   UNL     1      43.121 -18.006   2.739  1.00  0.00    -0.033 A 
HETATM   22  C   UNL     1      43.317 -19.100   1.890  1.00  0.00     0.014 A 
HETATM   23  C   UNL     1      43.955 -20.256   2.346  1.00  0.00     0.040 A 
HETATM   24  C   UNL     1      44.419 -20.334   3.660  1.00  0.00     0.101 A 
HETATM   25  C   UNL     1      44.232 -19.237   4.526  1.00  0.00     0.102 A 
HETATM   26  C   UNL     1      43.593 -18.081   4.057  1.00  0.00     0.051 A 
BRANCH  24  27
HETATM   27  O   UNL     1      45.056 -21.427   4.194  1.00  0.00    -0.353 OA
HETATM   28  C   UNL     1      44.636 -22.710   3.753  1.00  0.00     0.210 C 
ENDBRANCH  24  27
BRANCH  25  29
HETATM   29  O   UNL     1      44.721 -19.394   5.800  1.00  0.00    -0.349 OA
BRANCH  29  30
HETATM   30  C   UNL     1      43.789 -19.470   6.874  1.00  0.00     0.171 C 
HETATM   31  C   UNL     1      43.624 -20.933   7.245  1.00  0.00     0.034 C 
ENDBRANCH  29  30
ENDBRANCH  25  29
ENDBRANCH  20  21
ENDBRANCH   1  19
TORSDOF 7
ENDMDL
MODEL 9
REMARK VINA RESULT:      -7.5      3.594     10.978
REMARK  7 active torsions:
REMARK  status: ('A' for Active; 'I' for Inactive)
REMARK    1  A    between atoms: C_2  and  O_3 
REMARK    2  A    between atoms: O_3  and  C_4 
REMARK    3  A    between atoms: C_5  and  O_6 
REMARK    4  A    between atoms: C_10  and  C_11 
REMARK    5  A    between atoms: C_12  and  C_13 
REMARK       I    between atoms: C_13  and  N_14 
REMARK    6  A    between atoms: N_14  and  N_15 
REMARK       I    between atoms: N_15  and  C_16 
REMARK    7  A    between atoms: C_16  and  C_17 
ROOT
HETATM    1  C   UNL     1      42.608 -13.532   4.945  1.00  0.00     0.259 C 
HETATM    2  N   UNL     1      42.141 -13.347   6.224  1.00  0.00    -0.264 N 
HETATM    3  O   UNL     1      42.514 -12.681   4.066  1.00  0.00    -0.267 OA
HETATM    4  H   UNL     1      42.286 -13.990   6.999  1.00  0.00     0.190 HD
ENDROOT
BRANCH   2   5
HETATM    5  N   UNL     1      41.598 -12.095   6.543  1.00  0.00    -0.263 N 
HETATM    6  C   UNL     1      40.224 -11.967   6.644  1.00  0.00     0.272 C 
HETATM    7  O   UNL     1      39.471 -12.889   6.333  1.00  0.00    -0.266 OA
HETATM    8  H   UNL     1      42.240 -11.423   6.954  1.00  0.00     0.190 HD
BRANCH   6   9
HETATM    9  C   UNL     1      39.756 -10.676   7.151  1.00  0.00     0.061 A 
HETATM   10  C   UNL     1      39.644 -10.280   8.529  1.00  0.00     0.008 A 
HETATM   11  C   UNL     1      39.158  -8.966   8.565  1.00  0.00     0.045 A 
HETATM   12  C   UNL     1      39.917 -10.926   9.756  1.00  0.00     0.015 A 
HETATM   13  C   UNL     1      38.945  -8.285   9.775  1.00  0.00     0.030 A 
HETATM   14  N   UNL     1      38.973  -8.576   7.258  1.00  0.00    -0.359 N 
HETATM   15  C   UNL     1      39.224  -8.952  10.971  1.00  0.00     0.002 A 
HETATM   16  C   UNL     1      39.704 -10.256  10.964  1.00  0.00     0.001 A 
HETATM   17  C   UNL     1      38.480  -7.295   6.802  1.00  0.00     0.156 C 
HETATM   18  C   UNL     1      39.325  -9.591   6.404  1.00  0.00     0.108 A 
ENDBRANCH   6   9
ENDBRANCH   2   5
BRANCH   1  19
HETATM   19  C   UNL     1      43.239 -14.858   4.731  1.00  0.00     0.076 C 
HETATM   20  C   UNL     1      42.727 -15.680   3.802  1.00  0.00     0.017 C 
BRANCH  20  21
HETATM   21  C   UNL     1      43.219 -17.032   3.502  1.00  0.00    -0.033 A 
HETATM   22  C   UNL     1      43.409 -17.383   2.162  1.00  0.00     0.014 A 
HETATM   23  C   UNL     1      43.912 -18.639   1.813  1.00  0.00     0.040 A 
HETATM   24  C   UNL     1      44.244 -19.565   2.804  1.00  0.00     0.101 A 
HETATM   25  C   UNL     1      44.063 -19.223   4.160  1.00  0.00     0.102 A 
HETATM   26  C   UNL     1      43.560 -17.958   4.498  1.00  0.00     0.051 A 
BRANCH  24  27
HETATM   27  O   UNL     1      44.744 -20.820   2.556  1.00  0.00    -0.353 OA
HETATM   28  C   UNL     1      43.960 -21.690   1.754  1.00  0.00     0.210 C 
ENDBRANCH  24  27
BRANCH  25  29
HETATM   29  O   UNL     1      44.418 -20.188   5.070  1.00  0.00    -0.349 OA
BRANCH  29  30
HETATM   30  C   UNL     1      44.128 -19.956   6.445  1.00  0.00     0.171 C 
HETATM   31  C   UNL     1      43.643 -21.262   7.047  1.00  0.00     0.034 C 
ENDBRANCH  29  30
ENDBRANCH  25  29
ENDBRANCH  20  21
ENDBRANCH   1  19
TORSDOF 7
ENDMDL
MODEL 10
REMARK VINA RESULT:      -7.4      7.726     10.422
REMARK  7 active torsions:
REMARK  status: ('A' for Active; 'I' for Inactive)
REMARK    1  A    between atoms: C_2  and  O_3 
REMARK    2  A    between atoms: O_3  and  C_4 
REMARK    3  A    between atoms: C_5  and  O_6 
REMARK    4  A    between atoms: C_10  and  C_11 
REMARK    5  A    between atoms: C_12  and  C_13 
REMARK       I    between atoms: C_13  and  N_14 
REMARK    6  A    between atoms: N_14  and  N_15 
REMARK       I    between atoms: N_15  and  C_16 
REMARK    7  A    between atoms: C_16  and  C_17 
ROOT
HETATM    1  C   UNL     1      41.237 -15.777   0.524  1.00  0.00     0.259 C 
HETATM    2  N   UNL     1      42.173 -16.749   0.269  1.00  0.00    -0.264 N 
HETATM    3  O   UNL     1      40.639 -15.684   1.593  1.00  0.00    -0.267 OA
HETATM    4  H   UNL     1      42.754 -16.797  -0.565  1.00  0.00     0.190 HD
ENDROOT
BRANCH   2   5
HETATM    5  N   UNL     1      42.501 -17.626   1.312  1.00  0.00    -0.263 N 
HETATM    6  C   UNL     1      43.797 -17.635   1.797  1.00  0.00     0.272 C 
HETATM    7  O   UNL     1      44.690 -16.990   1.248  1.00  0.00    -0.266 OA
HETATM    8  H   UNL     1      41.719 -18.000   1.841  1.00  0.00     0.190 HD
BRANCH   6   9
HETATM    9  C   UNL     1      44.006 -18.447   2.996  1.00  0.00     0.061 A 
HETATM   10  C   UNL     1      44.206 -19.870   3.050  1.00  0.00     0.008 A 
HETATM   11  C   UNL     1      44.370 -20.235   4.393  1.00  0.00     0.045 A 
HETATM   12  C   UNL     1      44.265 -20.885   2.068  1.00  0.00     0.015 A 
HETATM   13  C   UNL     1      44.594 -21.567   4.780  1.00  0.00     0.030 A 
HETATM   14  N   UNL     1      44.267 -19.080   5.133  1.00  0.00    -0.359 N 
HETATM   15  C   UNL     1      44.645 -22.548   3.785  1.00  0.00     0.002 A 
HETATM   16  C   UNL     1      44.483 -22.214   2.446  1.00  0.00     0.001 A 
HETATM   17  C   UNL     1      44.366 -18.965   6.572  1.00  0.00     0.156 C 
HETATM   18  C   UNL     1      44.048 -18.005   4.309  1.00  0.00     0.108 A 
ENDBRANCH   6   9
ENDBRANCH   2   5
BRANCH   1  19
HETATM   19  C   UNL     1      41.021 -14.848  -0.613  1.00  0.00     0.076 C 
HETATM   20  C   UNL     1      41.712 -13.699  -0.655  1.00  0.00     0.017 C 
BRANCH  20  21
HETATM   21  C   UNL     1      41.579 -12.668  -1.694  1.00  0.00    -0.033 A 
HETATM   22  C   UNL     1      42.393 -12.764  -2.828  1.00  0.00     0.014 A 
HETATM   23  C   UNL     1      42.288 -11.838  -3.868  1.00  0.00     0.040 A 
HETATM   24  C   UNL     1      41.355 -10.801  -3.797  1.00  0.00     0.101 A 
HETATM   25  C   UNL     1      40.524 -10.694  -2.663  1.00  0.00     0.102 A 
HETATM   26  C   UNL     1      40.637 -11.632  -1.626  1.00  0.00     0.051 A 
BRANCH  24  27
HETATM   27  O   UNL     1      41.181  -9.848  -4.769  1.00  0.00    -0.353 OA
HETATM   28  C   UNL     1      40.476 -10.228  -5.941  1.00  0.00     0.210 C 
ENDBRANCH  24  27
BRANCH  25  29
HETATM   29  O   UNL     1      39.632  -9.650  -2.674  1.00  0.00    -0.349 OA
BRANCH  29  30
HETATM   30  C   UNL     1      39.841  -8.577  -1.762  1.00  0.00     0.171 C 
HETATM   31  C   UNL     1      39.705  -7.276  -2.532  1.00  0.00     0.034 C 
ENDBRANCH  29  30
ENDBRANCH  25  29
ENDBRANCH  20  21
ENDBRANCH   1  19
TORSDOF 7
ENDMDL
