MODEL 1
REMARK VINA RESULT:      -8.1      0.000      0.000
REMARK  3 active torsions:
REMARK  status: ('A' for Active; 'I' for Inactive)
REMARK    1  A    between atoms: C_4  and  N_5 
REMARK       I    between atoms: N_5  and  C_6 
REMARK    2  A    between atoms: C_6  and  C_7 
REMARK    3  A    between atoms: C_7  and  C_8 
ROOT
HETATM    1  C   UNL     1      42.195 -16.909   4.573  1.00  0.00     0.286 C 
HETATM    2  N   UNL     1      42.023 -17.331   3.115  1.00  0.00    -0.056 N 
HETATM    3  H   UNL     1      42.920 -17.778   2.829  1.00  0.00     0.278 HD
HETATM    4  H   UNL     1      41.302 -18.059   3.034  1.00  0.00     0.278 HD
HETATM    5  C   UNL     1      41.712 -16.143   2.257  1.00  0.00     0.209 C 
HETATM    6  C   UNL     1      40.377 -15.534   2.746  1.00  0.00     0.115 C 
HETATM    7  N   UNL     1      40.381 -15.259   4.181  1.00  0.00    -0.353 N 
HETATM    8  C   UNL     1      40.976 -16.115   5.088  1.00  0.00     0.249 C 
HETATM    9  O   UNL     1      40.587 -16.157   6.248  1.00  0.00    -0.271 OA
HETATM   10  C   UNL     1      41.626 -16.546   0.792  1.00  0.00     0.035 C 
HETATM   11  C   UNL     1      41.275 -15.324  -0.061  1.00  0.00     0.002 C 
HETATM   12  C   UNL     1      40.006 -14.619   0.427  1.00  0.00     0.002 C 
HETATM   13  C   UNL     1      40.049 -14.289   1.922  1.00  0.00     0.027 C 
HETATM   14  H   UNL     1      39.570 -14.783   4.574  1.00  0.00     0.163 HD
ENDROOT
BRANCH   1  15
HETATM   15  C   UNL     1      42.515 -18.112   5.467  1.00  0.00     0.146 C 
BRANCH  15  16
HETATM   16  C   UNL     1      43.988 -18.125   5.793  1.00  0.00     0.224 C 
HETATM   17  N   UNL     1      44.834 -19.072   5.314  1.00  0.00    -0.327 N 
HETATM   18  H   UNL     1      45.753 -19.014   5.744  1.00  0.00     0.169 HD
HETATM   19  O   UNL     1      44.436 -17.240   6.536  1.00  0.00    -0.273 OA
BRANCH  17  20
HETATM   20  C   UNL     1      44.681 -20.123   4.390  1.00  0.00     0.034 A 
HETATM   21  C   UNL     1      44.425 -19.968   3.027  1.00  0.00     0.029 A 
HETATM   22  C   UNL     1      44.287 -21.088   2.199  1.00  0.00     0.002 A 
HETATM   23  C   UNL     1      44.415 -22.372   2.722  1.00  0.00     0.000 A 
HETATM   24  C   UNL     1      44.699 -22.539   4.073  1.00  0.00     0.002 A 
HETATM   25  C   UNL     1      44.840 -21.421   4.898  1.00  0.00     0.029 A 
ENDBRANCH  17  20
ENDBRANCH  15  16
ENDBRANCH   1  15
TORSDOF 3
ENDMDL
MODEL 2
REMARK VINA RESULT:      -7.7      1.099      5.773
REMARK  3 active torsions:
REMARK  status: ('A' for Active; 'I' for Inactive)
REMARK    1  A    between atoms: C_4  and  N_5 
REMARK       I    between atoms: N_5  and  C_6 
REMARK    2  A    between atoms: C_6  and  C_7 
REMARK    3  A    between atoms: C_7  and  C_8 
ROOT
HETATM    1  C   UNL     1      43.447 -17.708   4.819  1.00  0.00     0.286 C 
HETATM    2  N   UNL     1      43.628 -18.173   3.375  1.00  0.00    -0.056 N 
HETATM    3  H   UNL     1      42.850 -17.747   2.829  1.00  0.00     0.278 HD
HETATM    4  H   UNL     1      44.497 -17.791   2.980  1.00  0.00     0.278 HD
HETATM    5  C   UNL     1      43.591 -19.668   3.295  1.00  0.00     0.209 C 
HETATM    6  C   UNL     1      44.766 -20.223   4.132  1.00  0.00     0.115 C 
HETATM    7  N   UNL     1      44.783 -19.691   5.493  1.00  0.00    -0.353 N 
HETATM    8  C   UNL     1      44.467 -18.374   5.767  1.00  0.00     0.249 C 
HETATM    9  O   UNL     1      44.924 -17.821   6.759  1.00  0.00    -0.271 OA
HETATM   10  C   UNL     1      43.683 -20.131   1.848  1.00  0.00     0.035 C 
HETATM   11  C   UNL     1      43.677 -21.661   1.792  1.00  0.00     0.002 C 
HETATM   12  C   UNL     1      44.765 -22.279   2.674  1.00  0.00     0.002 C 
HETATM   13  C   UNL     1      44.734 -21.752   4.111  1.00  0.00     0.027 C 
HETATM   14  H   UNL     1      45.477 -20.065   6.138  1.00  0.00     0.163 HD
ENDROOT
BRANCH   1  15
HETATM   15  C   UNL     1      43.481 -16.180   4.922  1.00  0.00     0.146 C 
BRANCH  15  16
HETATM   16  C   UNL     1      42.082 -15.654   5.120  1.00  0.00     0.224 C 
HETATM   17  N   UNL     1      41.240 -15.408   4.085  1.00  0.00    -0.327 N 
HETATM   18  H   UNL     1      40.397 -14.925   4.386  1.00  0.00     0.169 HD
HETATM   19  O   UNL     1      41.695 -15.427   6.276  1.00  0.00    -0.273 OA
BRANCH  17  20
HETATM   20  C   UNL     1      41.319 -15.647   2.700  1.00  0.00     0.034 A 
HETATM   21  C   UNL     1      41.844 -14.761   1.758  1.00  0.00     0.029 A 
HETATM   22  C   UNL     1      41.870 -15.102   0.401  1.00  0.00     0.002 A 
HETATM   23  C   UNL     1      41.385 -16.334  -0.027  1.00  0.00     0.000 A 
HETATM   24  C   UNL     1      40.887 -17.238   0.905  1.00  0.00     0.002 A 
HETATM   25  C   UNL     1      40.864 -16.899   2.261  1.00  0.00     0.029 A 
ENDBRANCH  17  20
ENDBRANCH  15  16
ENDBRANCH   1  15
TORSDOF 3
ENDMDL
MODEL 3
REMARK VINA RESULT:      -7.6      2.113      3.079
REMARK  3 active torsions:
REMARK  status: ('A' for Active; 'I' for Inactive)
REMARK    1  A    between atoms: C_4  and  N_5 
REMARK       I    between atoms: N_5  and  C_6 
REMARK    2  A    between atoms: C_6  and  C_7 
REMARK    3  A    between atoms: C_7  and  C_8 
ROOT
HETATM    1  C   UNL     1      41.792 -16.252   4.400  1.00  0.00     0.286 C 
HETATM    2  N   UNL     1      40.862 -15.449   3.492  1.00  0.00    -0.056 N 
HETATM    3  H   UNL     1      41.340 -15.381   2.568  1.00  0.00     0.278 HD
HETATM    4  H   UNL     1      39.989 -15.964   3.325  1.00  0.00     0.278 HD
HETATM    5  C   UNL     1      40.605 -14.092   4.070  1.00  0.00     0.209 C 
HETATM    6  C   UNL     1      39.905 -14.277   5.436  1.00  0.00     0.115 C 
HETATM    7  N   UNL     1      40.636 -15.182   6.320  1.00  0.00    -0.353 N 
HETATM    8  C   UNL     1      41.261 -16.320   5.848  1.00  0.00     0.249 C 
HETATM    9  O   UNL     1      41.439 -17.281   6.585  1.00  0.00    -0.271 OA
HETATM   10  C   UNL     1      39.750 -13.259   3.125  1.00  0.00     0.035 C 
HETATM   11  C   UNL     1      39.471 -11.890   3.751  1.00  0.00     0.002 C 
HETATM   12  C   UNL     1      38.857 -12.002   5.149  1.00  0.00     0.002 C 
HETATM   13  C   UNL     1      39.665 -12.911   6.080  1.00  0.00     0.027 C 
HETATM   14  H   UNL     1      40.287 -15.299   7.271  1.00  0.00     0.163 HD
ENDROOT
BRANCH   1  15
HETATM   15  C   UNL     1      42.070 -17.644   3.825  1.00  0.00     0.146 C 
BRANCH  15  16
HETATM   16  C   UNL     1      43.087 -17.542   2.716  1.00  0.00     0.224 C 
HETATM   17  N   UNL     1      44.036 -18.489   2.505  1.00  0.00    -0.327 N 
HETATM   18  H   UNL     1      44.721 -18.193   1.815  1.00  0.00     0.169 HD
HETATM   19  O   UNL     1      43.058 -16.546   1.979  1.00  0.00    -0.273 OA
BRANCH  17  20
HETATM   20  C   UNL     1      44.278 -19.754   3.072  1.00  0.00     0.034 A 
HETATM   21  C   UNL     1      44.642 -19.987   4.399  1.00  0.00     0.029 A 
HETATM   22  C   UNL     1      44.862 -21.291   4.856  1.00  0.00     0.002 A 
HETATM   23  C   UNL     1      44.708 -22.376   3.997  1.00  0.00     0.000 A 
HETATM   24  C   UNL     1      44.317 -22.159   2.680  1.00  0.00     0.002 A 
HETATM   25  C   UNL     1      44.094 -20.857   2.225  1.00  0.00     0.029 A 
ENDBRANCH  17  20
ENDBRANCH  15  16
ENDBRANCH   1  15
TORSDOF 3
ENDMDL
MODEL 4
REMARK VINA RESULT:      -7.5      2.231      7.169
REMARK  3 active torsions:
REMARK  status: ('A' for Active; 'I' for Inactive)
REMARK    1  A    between atoms: C_4  and  N_5 
REMARK       I    between atoms: N_5  and  C_6 
REMARK    2  A    between atoms: C_6  and  C_7 
REMARK    3  A    between atoms: C_7  and  C_8 
ROOT
HETATM    1  C   UNL     1      42.547 -17.723   2.317  1.00  0.00     0.286 C 
HETATM    2  N   UNL     1      43.315 -18.907   1.732  1.00  0.00    -0.056 N 
HETATM    3  H   UNL     1      42.748 -19.259   0.932  1.00  0.00     0.278 HD
HETATM    4  H   UNL     1      44.209 -18.595   1.333  1.00  0.00     0.278 HD
HETATM    5  C   UNL     1      43.510 -19.971   2.767  1.00  0.00     0.209 C 
HETATM    6  C   UNL     1      44.350 -19.373   3.919  1.00  0.00     0.115 C 
HETATM    7  N   UNL     1      43.786 -18.126   4.432  1.00  0.00    -0.353 N 
HETATM    8  C   UNL     1      43.218 -17.182   3.598  1.00  0.00     0.249 C 
HETATM    9  O   UNL     1      43.193 -16.002   3.923  1.00  0.00    -0.271 OA
HETATM   10  C   UNL     1      44.196 -21.188   2.164  1.00  0.00     0.035 C 
HETATM   11  C   UNL     1      44.416 -22.248   3.247  1.00  0.00     0.002 C 
HETATM   12  C   UNL     1      45.168 -21.694   4.460  1.00  0.00     0.002 C 
HETATM   13  C   UNL     1      44.532 -20.418   5.020  1.00  0.00     0.027 C 
HETATM   14  H   UNL     1      44.232 -17.704   5.246  1.00  0.00     0.163 HD
ENDROOT
BRANCH   1  15
HETATM   15  C   UNL     1      42.336 -16.623   1.272  1.00  0.00     0.146 C 
BRANCH  15  16
HETATM   16  C   UNL     1      40.866 -16.302   1.163  1.00  0.00     0.224 C 
HETATM   17  N   UNL     1      40.368 -15.473   0.211  1.00  0.00    -0.327 N 
HETATM   18  H   UNL     1      39.388 -15.256   0.371  1.00  0.00     0.169 HD
HETATM   19  O   UNL     1      40.089 -16.809   1.984  1.00  0.00    -0.273 OA
BRANCH  17  20
HETATM   20  C   UNL     1      40.940 -14.833  -0.905  1.00  0.00     0.034 A 
HETATM   21  C   UNL     1      40.852 -15.282  -2.224  1.00  0.00     0.029 A 
HETATM   22  C   UNL     1      41.463 -14.566  -3.259  1.00  0.00     0.002 A 
HETATM   23  C   UNL     1      42.158 -13.389  -2.989  1.00  0.00     0.000 A 
HETATM   24  C   UNL     1      42.228 -12.917  -1.684  1.00  0.00     0.002 A 
HETATM   25  C   UNL     1      41.614 -13.630  -0.651  1.00  0.00     0.029 A 
ENDBRANCH  17  20
ENDBRANCH  15  16
ENDBRANCH   1  15
TORSDOF 3
ENDMDL
MODEL 5
REMARK VINA RESULT:      -7.4      2.462      6.881
REMARK  3 active torsions:
REMARK  status: ('A' for Active; 'I' for Inactive)
REMARK    1  A    between atoms: C_4  and  N_5 
REMARK       I    between atoms: N_5  and  C_6 
REMARK    2  A    between atoms: C_6  and  C_7 
REMARK    3  A    between atoms: C_7  and  C_8 
ROOT
HETATM    1  C   UNL     1      41.025 -17.053   2.413  1.00  0.00     0.286 C 
HETATM    2  N   UNL     1      42.257 -17.721   1.803  1.00  0.00    -0.056 N 
HETATM    3  H   UNL     1      41.957 -18.108   0.883  1.00  0.00     0.278 HD
HETATM    4  H   UNL     1      42.981 -17.023   1.598  1.00  0.00     0.278 HD
HETATM    5  C   UNL     1      42.768 -18.803   2.704  1.00  0.00     0.209 C 
HETATM    6  C   UNL     1      43.184 -18.155   4.045  1.00  0.00     0.115 C 
HETATM    7  N   UNL     1      42.119 -17.338   4.624  1.00  0.00    -0.353 N 
HETATM    8  C   UNL     1      41.299 -16.545   3.845  1.00  0.00     0.249 C 
HETATM    9  O   UNL     1      40.770 -15.547   4.317  1.00  0.00    -0.271 OA
HETATM   10  C   UNL     1      43.940 -19.529   2.061  1.00  0.00     0.035 C 
HETATM   11  C   UNL     1      44.467 -20.606   3.012  1.00  0.00     0.002 C 
HETATM   12  C   UNL     1      44.815 -20.044   4.393  1.00  0.00     0.002 C 
HETATM   13  C   UNL     1      43.670 -19.237   5.010  1.00  0.00     0.027 C 
HETATM   14  H   UNL     1      42.280 -16.937   5.548  1.00  0.00     0.163 HD
ENDROOT
BRANCH   1  15
HETATM   15  C   UNL     1      40.486 -15.943   1.504  1.00  0.00     0.146 C 
BRANCH  15  16
HETATM   16  C   UNL     1      41.636 -15.216   0.853  1.00  0.00     0.224 C 
HETATM   17  N   UNL     1      41.618 -14.842  -0.452  1.00  0.00    -0.327 N 
HETATM   18  H   UNL     1      42.523 -14.496  -0.759  1.00  0.00     0.169 HD
HETATM   19  O   UNL     1      42.637 -14.964   1.537  1.00  0.00    -0.273 OA
BRANCH  17  20
HETATM   20  C   UNL     1      40.629 -14.879  -1.452  1.00  0.00     0.034 A 
HETATM   21  C   UNL     1      39.489 -14.075  -1.488  1.00  0.00     0.029 A 
HETATM   22  C   UNL     1      38.567 -14.199  -2.533  1.00  0.00     0.002 A 
HETATM   23  C   UNL     1      38.780 -15.117  -3.558  1.00  0.00     0.000 A 
HETATM   24  C   UNL     1      39.927 -15.902  -3.549  1.00  0.00     0.002 A 
HETATM   25  C   UNL     1      40.850 -15.776  -2.507  1.00  0.00     0.029 A 
ENDBRANCH  17  20
ENDBRANCH  15  16
ENDBRANCH   1  15
TORSDOF 3
ENDMDL
MODEL 6
REMARK VINA RESULT:      -7.4      1.883      2.764
REMARK  3 active torsions:
REMARK  status: ('A' for Active; 'I' for Inactive)
REMARK    1  A    between atoms: C_4  and  N_5 
REMARK       I    between atoms: N_5  and  C_6 
REMARK    2  A    between atoms: C_6  and  C_7 
REMARK    3  A    between atoms: C_7  and  C_8 
ROOT
HETATM    1  C   UNL     1      41.014 -17.019   4.622  1.00  0.00     0.286 C 
HETATM    2  N   UNL     1      41.046 -15.787   5.526  1.00  0.00    -0.056 N 
HETATM    3  H   UNL     1      40.770 -16.112   6.477  1.00  0.00     0.278 HD
HETATM    4  H   UNL     1      42.005 -15.430   5.613  1.00  0.00     0.278 HD
HETATM    5  C   UNL     1      40.106 -14.738   5.017  1.00  0.00     0.209 C 
HETATM    6  C   UNL     1      40.576 -14.315   3.606  1.00  0.00     0.115 C 
HETATM    7  N   UNL     1      40.750 -15.456   2.710  1.00  0.00    -0.353 N 
HETATM    8  C   UNL     1      41.281 -16.655   3.146  1.00  0.00     0.249 C 
HETATM    9  O   UNL     1      41.856 -17.400   2.363  1.00  0.00    -0.271 OA
HETATM   10  C   UNL     1      40.071 -13.546   5.962  1.00  0.00     0.035 C 
HETATM   11  C   UNL     1      39.131 -12.472   5.406  1.00  0.00     0.002 C 
HETATM   12  C   UNL     1      39.489 -12.071   3.973  1.00  0.00     0.002 C 
HETATM   13  C   UNL     1      39.613 -13.275   3.034  1.00  0.00     0.027 C 
HETATM   14  H   UNL     1      40.981 -15.263   1.737  1.00  0.00     0.163 HD
ENDROOT
BRANCH   1  15
HETATM   15  C   UNL     1      41.968 -18.106   5.127  1.00  0.00     0.146 C 
BRANCH  15  16
HETATM   16  C   UNL     1      43.395 -17.645   4.966  1.00  0.00     0.224 C 
HETATM   17  N   UNL     1      44.351 -18.415   4.387  1.00  0.00    -0.327 N 
HETATM   18  H   UNL     1      45.278 -18.010   4.490  1.00  0.00     0.169 HD
HETATM   19  O   UNL     1      43.703 -16.522   5.390  1.00  0.00    -0.273 OA
BRANCH  17  20
HETATM   20  C   UNL     1      44.319 -19.656   3.725  1.00  0.00     0.034 A 
HETATM   21  C   UNL     1      43.948 -19.850   2.394  1.00  0.00     0.029 A 
HETATM   22  C   UNL     1      43.950 -21.135   1.837  1.00  0.00     0.002 A 
HETATM   23  C   UNL     1      44.333 -22.234   2.600  1.00  0.00     0.000 A 
HETATM   24  C   UNL     1      44.733 -22.050   3.919  1.00  0.00     0.002 A 
HETATM   25  C   UNL     1      44.735 -20.767   4.473  1.00  0.00     0.029 A 
ENDBRANCH  17  20
ENDBRANCH  15  16
ENDBRANCH   1  15
TORSDOF 3
ENDMDL
MODEL 7
REMARK VINA RESULT:      -7.3      2.001      6.520
REMARK  3 active torsions:
REMARK  status: ('A' for Active; 'I' for Inactive)
REMARK    1  A    between atoms: C_4  and  N_5 
REMARK       I    between atoms: N_5  and  C_6 
REMARK    2  A    between atoms: C_6  and  C_7 
REMARK    3  A    between atoms: C_7  and  C_8 
ROOT
HETATM    1  C   UNL     1      43.580 -17.866   5.099  1.00  0.00     0.286 C 
HETATM    2  N   UNL     1      43.466 -18.153   3.602  1.00  0.00    -0.056 N 
HETATM    3  H   UNL     1      42.579 -17.709   3.284  1.00  0.00     0.278 HD
HETATM    4  H   UNL     1      44.221 -17.683   3.088  1.00  0.00     0.278 HD
HETATM    5  C   UNL     1      43.455 -19.629   3.349  1.00  0.00     0.209 C 
HETATM    6  C   UNL     1      44.795 -20.213   3.853  1.00  0.00     0.115 C 
HETATM    7  N   UNL     1      45.082 -19.839   5.236  1.00  0.00    -0.353 N 
HETATM    8  C   UNL     1      44.794 -18.581   5.729  1.00  0.00     0.249 C 
HETATM    9  O   UNL     1      45.434 -18.121   6.666  1.00  0.00    -0.271 OA
HETATM   10  C   UNL     1      43.254 -19.918   1.868  1.00  0.00     0.035 C 
HETATM   11  C   UNL     1      43.280 -21.430   1.628  1.00  0.00     0.002 C 
HETATM   12  C   UNL     1      44.545 -22.087   2.185  1.00  0.00     0.002 C 
HETATM   13  C   UNL     1      44.802 -21.729   3.652  1.00  0.00     0.027 C 
HETATM   14  H   UNL     1      45.907 -20.247   5.674  1.00  0.00     0.163 HD
ENDROOT
BRANCH   1  15
HETATM   15  C   UNL     1      43.591 -16.360   5.379  1.00  0.00     0.146 C 
BRANCH  15  16
HETATM   16  C   UNL     1      42.567 -16.032   6.436  1.00  0.00     0.224 C 
HETATM   17  N   UNL     1      41.662 -15.031   6.291  1.00  0.00    -0.327 N 
HETATM   18  H   UNL     1      41.147 -14.857   7.150  1.00  0.00     0.169 HD
HETATM   19  O   UNL     1      42.563 -16.699   7.481  1.00  0.00    -0.273 OA
BRANCH  17  20
HETATM   20  C   UNL     1      41.332 -14.177   5.222  1.00  0.00     0.034 A 
HETATM   21  C   UNL     1      41.966 -12.968   4.933  1.00  0.00     0.029 A 
HETATM   22  C   UNL     1      41.552 -12.193   3.842  1.00  0.00     0.002 A 
HETATM   23  C   UNL     1      40.511 -12.625   3.025  1.00  0.00     0.000 A 
HETATM   24  C   UNL     1      39.891 -13.842   3.286  1.00  0.00     0.002 A 
HETATM   25  C   UNL     1      40.307 -14.616   4.372  1.00  0.00     0.029 A 
ENDBRANCH  17  20
ENDBRANCH  15  16
ENDBRANCH   1  15
TORSDOF 3
ENDMDL
MODEL 8
REMARK VINA RESULT:      -7.2      2.300      3.445
REMARK  3 active torsions:
REMARK  status: ('A' for Active; 'I' for Inactive)
REMARK    1  A    between atoms: C_4  and  N_5 
REMARK       I    between atoms: N_5  and  C_6 
REMARK    2  A    between atoms: C_6  and  C_7 
REMARK    3  A    between atoms: C_7  and  C_8 
ROOT
HETATM    1  C   UNL     1      40.219 -16.488   2.103  1.00  0.00     0.286 C 
HETATM    2  N   UNL     1      39.616 -15.126   2.446  1.00  0.00    -0.056 N 
HETATM    3  H   UNL     1      38.989 -15.279   3.264  1.00  0.00     0.278 HD
HETATM    4  H   UNL     1      40.348 -14.479   2.763  1.00  0.00     0.278 HD
HETATM    5  C   UNL     1      38.857 -14.578   1.277  1.00  0.00     0.209 C 
HETATM    6  C   UNL     1      39.850 -14.387   0.107  1.00  0.00     0.115 C 
HETATM    7  N   UNL     1      40.613 -15.599  -0.182  1.00  0.00    -0.353 N 
HETATM    8  C   UNL     1      41.076 -16.429   0.821  1.00  0.00     0.249 C 
HETATM    9  O   UNL     1      42.067 -17.125   0.641  1.00  0.00    -0.271 OA
HETATM   10  C   UNL     1      38.183 -13.264   1.643  1.00  0.00     0.035 C 
HETATM   11  C   UNL     1      37.442 -12.705   0.425  1.00  0.00     0.002 C 
HETATM   12  C   UNL     1      38.352 -12.574  -0.800  1.00  0.00     0.002 C 
HETATM   13  C   UNL     1      39.102 -13.870  -1.123  1.00  0.00     0.027 C 
HETATM   14  H   UNL     1      41.234 -15.586  -0.991  1.00  0.00     0.163 HD
ENDROOT
BRANCH   1  15
HETATM   15  C   UNL     1      40.999 -17.067   3.288  1.00  0.00     0.146 C 
BRANCH  15  16
HETATM   16  C   UNL     1      42.279 -16.294   3.480  1.00  0.00     0.224 C 
HETATM   17  N   UNL     1      43.477 -16.900   3.675  1.00  0.00    -0.327 N 
HETATM   18  H   UNL     1      44.203 -16.235   3.929  1.00  0.00     0.169 HD
HETATM   19  O   UNL     1      42.227 -15.055   3.470  1.00  0.00    -0.273 OA
BRANCH  17  20
HETATM   20  C   UNL     1      43.895 -18.244   3.640  1.00  0.00     0.034 A 
HETATM   21  C   UNL     1      44.005 -19.023   2.487  1.00  0.00     0.029 A 
HETATM   22  C   UNL     1      44.429 -20.354   2.569  1.00  0.00     0.002 A 
HETATM   23  C   UNL     1      44.757 -20.916   3.800  1.00  0.00     0.000 A 
HETATM   24  C   UNL     1      44.679 -20.142   4.952  1.00  0.00     0.002 A 
HETATM   25  C   UNL     1      44.260 -18.811   4.869  1.00  0.00     0.029 A 
ENDBRANCH  17  20
ENDBRANCH  15  16
ENDBRANCH   1  15
TORSDOF 3
ENDMDL
MODEL 9
REMARK VINA RESULT:      -7.1      2.403      6.996
REMARK  3 active torsions:
REMARK  status: ('A' for Active; 'I' for Inactive)
REMARK    1  A    between atoms: C_4  and  N_5 
REMARK       I    between atoms: N_5  and  C_6 
REMARK    2  A    between atoms: C_6  and  C_7 
REMARK    3  A    between atoms: C_7  and  C_8 
ROOT
HETATM    1  C   UNL     1      43.057 -16.264   4.864  1.00  0.00     0.286 C 
HETATM    2  N   UNL     1      43.290 -17.654   5.454  1.00  0.00    -0.056 N 
HETATM    3  H   UNL     1      43.829 -17.514   6.335  1.00  0.00     0.278 HD
HETATM    4  H   UNL     1      42.398 -18.083   5.730  1.00  0.00     0.278 HD
HETATM    5  C   UNL     1      44.045 -18.515   4.489  1.00  0.00     0.209 C 
HETATM    6  C   UNL     1      43.187 -18.670   3.211  1.00  0.00     0.115 C 
HETATM    7  N   UNL     1      42.759 -17.383   2.667  1.00  0.00    -0.353 N 
HETATM    8  C   UNL     1      42.374 -16.336   3.482  1.00  0.00     0.249 C 
HETATM    9  O   UNL     1      41.595 -15.485   3.071  1.00  0.00    -0.271 OA
HETATM   10  C   UNL     1      44.355 -19.871   5.107  1.00  0.00     0.035 C 
HETATM   11  C   UNL     1      45.096 -20.746   4.092  1.00  0.00     0.002 C 
HETATM   12  C   UNL     1      44.339 -20.867   2.766  1.00  0.00     0.002 C 
HETATM   13  C   UNL     1      43.946 -19.508   2.181  1.00  0.00     0.027 C 
HETATM   14  H   UNL     1      42.256 -17.388   1.780  1.00  0.00     0.163 HD
ENDROOT
BRANCH   1  15
HETATM   15  C   UNL     1      42.287 -15.367   5.839  1.00  0.00     0.146 C 
BRANCH  15  16
HETATM   16  C   UNL     1      40.861 -15.844   5.950  1.00  0.00     0.224 C 
HETATM   17  N   UNL     1      39.798 -15.012   5.805  1.00  0.00    -0.327 N 
HETATM   18  H   UNL     1      38.923 -15.466   6.052  1.00  0.00     0.169 HD
HETATM   19  O   UNL     1      40.657 -17.042   6.194  1.00  0.00    -0.273 OA
BRANCH  17  20
HETATM   20  C   UNL     1      39.676 -13.660   5.431  1.00  0.00     0.034 A 
HETATM   21  C   UNL     1      39.565 -13.194   4.121  1.00  0.00     0.029 A 
HETATM   22  C   UNL     1      39.451 -11.822   3.864  1.00  0.00     0.002 A 
HETATM   23  C   UNL     1      39.436 -10.907   4.912  1.00  0.00     0.000 A 
HETATM   24  C   UNL     1      39.517 -11.361   6.223  1.00  0.00     0.002 A 
HETATM   25  C   UNL     1      39.627 -12.730   6.480  1.00  0.00     0.029 A 
ENDBRANCH  17  20
ENDBRANCH  15  16
ENDBRANCH   1  15
TORSDOF 3
ENDMDL
MODEL 10
REMARK VINA RESULT:      -7.1      2.069      2.911
REMARK  3 active torsions:
REMARK  status: ('A' for Active; 'I' for Inactive)
REMARK    1  A    between atoms: C_4  and  N_5 
REMARK       I    between atoms: N_5  and  C_6 
REMARK    2  A    between atoms: C_6  and  C_7 
REMARK    3  A    between atoms: C_7  and  C_8 
ROOT
HETATM    1  C   UNL     1      42.978 -14.813   2.688  1.00  0.00     0.286 C 
HETATM    2  N   UNL     1      42.057 -15.558   1.722  1.00  0.00    -0.056 N 
HETATM    3  H   UNL     1      42.482 -16.498   1.577  1.00  0.00     0.278 HD
HETATM    4  H   UNL     1      41.140 -15.722   2.154  1.00  0.00     0.278 HD
HETATM    5  C   UNL     1      41.937 -14.812   0.429  1.00  0.00     0.209 C 
HETATM    6  C   UNL     1      41.309 -13.431   0.727  1.00  0.00     0.115 C 
HETATM    7  N   UNL     1      42.022 -12.708   1.778  1.00  0.00    -0.353 N 
HETATM    8  C   UNL     1      42.531 -13.349   2.892  1.00  0.00     0.249 C 
HETATM    9  O   UNL     1      42.680 -12.741   3.943  1.00  0.00    -0.271 OA
HETATM   10  C   UNL     1      41.092 -15.595  -0.566  1.00  0.00     0.035 C 
HETATM   11  C   UNL     1      40.955 -14.800  -1.867  1.00  0.00     0.002 C 
HETATM   12  C   UNL     1      40.419 -13.385  -1.630  1.00  0.00     0.002 C 
HETATM   13  C   UNL     1      41.211 -12.621  -0.566  1.00  0.00     0.027 C 
HETATM   14  H   UNL     1      41.724 -11.756   1.983  1.00  0.00     0.163 HD
ENDROOT
BRANCH   1  15
HETATM   15  C   UNL     1      43.115 -15.561   4.018  1.00  0.00     0.146 C 
BRANCH  15  16
HETATM   16  C   UNL     1      41.886 -16.401   4.257  1.00  0.00     0.224 C 
HETATM   17  N   UNL     1      41.875 -17.747   4.083  1.00  0.00    -0.327 N 
HETATM   18  H   UNL     1      40.936 -18.131   4.148  1.00  0.00     0.169 HD
HETATM   19  O   UNL     1      40.844 -15.833   4.616  1.00  0.00    -0.273 OA
BRANCH  17  20
HETATM   20  C   UNL     1      42.879 -18.690   3.794  1.00  0.00     0.034 A 
HETATM   21  C   UNL     1      43.168 -19.196   2.526  1.00  0.00     0.029 A 
HETATM   22  C   UNL     1      44.190 -20.137   2.355  1.00  0.00     0.002 A 
HETATM   23  C   UNL     1      44.940 -20.571   3.444  1.00  0.00     0.000 A 
HETATM   24  C   UNL     1      44.681 -20.052   4.708  1.00  0.00     0.002 A 
HETATM   25  C   UNL     1      43.663 -19.111   4.878  1.00  0.00     0.029 A 
ENDBRANCH  17  20
ENDBRANCH  15  16
ENDBRANCH   1  15
TORSDOF 3
ENDMDL
