MODEL 1
REMARK VINA RESULT:      -8.2      0.000      0.000
REMARK  6 active torsions:
REMARK  status: ('A' for Active; 'I' for Inactive)
REMARK    1  A    between atoms: C_3  and  C_4 
REMARK    2  A    between atoms: C_4  and  N_5 
REMARK    3  A    between atoms: N_5  and  C_6 
REMARK    4  A    between atoms: C_8  and  N_9 
REMARK    5  A    between atoms: C_11  and  N_12 
REMARK    6  A    between atoms: C_18  and  N_19 
ROOT
HETATM    1  C   UNL     1      41.183 -16.748   3.930  1.00  0.00     0.110 A 
HETATM    2  N   UNL     1      40.968 -16.068   5.064  1.00  0.00    -0.206 NA
HETATM    3  C   UNL     1      40.290 -14.922   4.979  1.00  0.00     0.202 A 
HETATM    4  N   UNL     1      39.789 -14.416   3.856  1.00  0.00    -0.199 NA
HETATM    5  C   UNL     1      40.010 -15.128   2.727  1.00  0.00     0.156 A 
HETATM    6  C   UNL     1      40.702 -16.322   2.716  1.00  0.00     0.096 A 
ENDROOT
BRANCH   1   7
HETATM    7  N   UNL     1      41.898 -17.941   4.087  1.00  0.00    -0.273 NA
HETATM    8  H   UNL     1      42.253 -17.853   5.039  1.00  0.00     0.129 HD
BRANCH   7   9
HETATM    9  C   UNL     1      42.994 -18.117   3.133  1.00  0.00     0.134 C 
BRANCH   9  10
HETATM   10  C   UNL     1      43.560 -19.534   3.092  1.00  0.00    -0.018 A 
HETATM   11  C   UNL     1      43.465 -20.291   1.899  1.00  0.00     0.011 A 
HETATM   12  C   UNL     1      43.997 -21.576   1.785  1.00  0.00     0.001 A 
HETATM   13  C   UNL     1      44.650 -22.149   2.863  1.00  0.00     0.002 A 
HETATM   14  C   UNL     1      44.768 -21.437   4.054  1.00  0.00     0.030 A 
HETATM   15  C   UNL     1      44.223 -20.140   4.194  1.00  0.00     0.047 A 
BRANCH  15  16
HETATM   16  N   UNL     1      44.393 -19.515   5.469  1.00  0.00    -0.315 N 
HETATM   17  C   UNL     1      45.223 -18.473   5.824  1.00  0.00     0.214 A 
HETATM   18  N   UNL     1      45.131 -18.153   7.096  1.00  0.00    -0.254 NA
HETATM   19  C   UNL     1      44.177 -18.982   7.602  1.00  0.00     0.135 A 
HETATM   20  C   UNL     1      43.689 -19.813   6.623  1.00  0.00     0.117 A 
ENDBRANCH  15  16
ENDBRANCH   9  10
ENDBRANCH   7   9
ENDBRANCH   1   7
BRANCH   3  21
HETATM   21  N   UNL     1      40.057 -14.232   6.149  1.00  0.00    -0.271 NA
HETATM   22  H   UNL     1      39.112 -14.402   6.464  1.00  0.00     0.127 HD
HETATM   23  H   UNL     1      40.339 -13.267   6.042  1.00  0.00     0.127 HD
ENDBRANCH   3  21
BRANCH   5  24
HETATM   24  N   UNL     1      39.506 -14.609   1.499  1.00  0.00    -0.227 N 
HETATM   25  N   UNL     1      40.229 -14.632   0.345  1.00  0.00    -0.179 NA
HETATM   26  C   UNL     1      39.437 -14.044  -0.553  1.00  0.00     0.141 A 
HETATM   27  C   UNL     1      38.207 -13.642  -0.011  1.00  0.00     0.040 A 
HETATM   28  C   UNL     1      38.274 -14.017   1.309  1.00  0.00     0.122 A 
ENDBRANCH   5  24
TORSDOF 6
ENDMDL
MODEL 2
REMARK VINA RESULT:      -8.2      3.026      5.569
REMARK  6 active torsions:
REMARK  status: ('A' for Active; 'I' for Inactive)
REMARK    1  A    between atoms: C_3  and  C_4 
REMARK    2  A    between atoms: C_4  and  N_5 
REMARK    3  A    between atoms: N_5  and  C_6 
REMARK    4  A    between atoms: C_8  and  N_9 
REMARK    5  A    between atoms: C_11  and  N_12 
REMARK    6  A    between atoms: C_18  and  N_19 
ROOT
HETATM    1  C   UNL     1      43.363 -16.881   6.004  1.00  0.00     0.110 A 
HETATM    2  N   UNL     1      42.254 -16.396   5.430  1.00  0.00    -0.206 NA
HETATM    3  C   UNL     1      42.039 -15.082   5.513  1.00  0.00     0.202 A 
HETATM    4  N   UNL     1      42.855 -14.212   6.101  1.00  0.00    -0.199 NA
HETATM    5  C   UNL     1      43.974 -14.727   6.662  1.00  0.00     0.156 A 
HETATM    6  C   UNL     1      44.281 -16.072   6.629  1.00  0.00     0.096 A 
ENDROOT
BRANCH   1   7
HETATM    7  N   UNL     1      43.532 -18.265   5.880  1.00  0.00    -0.273 NA
HETATM    8  H   UNL     1      43.627 -18.555   6.853  1.00  0.00     0.129 HD
BRANCH   7   9
HETATM    9  C   UNL     1      44.704 -18.661   5.098  1.00  0.00     0.134 C 
BRANCH   9  10
HETATM   10  C   UNL     1      44.407 -19.696   4.016  1.00  0.00    -0.018 A 
HETATM   11  C   UNL     1      44.836 -21.034   4.193  1.00  0.00     0.011 A 
HETATM   12  C   UNL     1      44.561 -22.036   3.260  1.00  0.00     0.001 A 
HETATM   13  C   UNL     1      43.841 -21.735   2.117  1.00  0.00     0.002 A 
HETATM   14  C   UNL     1      43.398 -20.431   1.907  1.00  0.00     0.030 A 
HETATM   15  C   UNL     1      43.678 -19.399   2.832  1.00  0.00     0.047 A 
BRANCH  15  16
HETATM   16  N   UNL     1      43.184 -18.098   2.501  1.00  0.00    -0.315 N 
HETATM   17  C   UNL     1      41.883 -17.647   2.453  1.00  0.00     0.214 A 
HETATM   18  N   UNL     1      41.789 -16.384   2.099  1.00  0.00    -0.254 NA
HETATM   19  C   UNL     1      43.076 -15.963   1.944  1.00  0.00     0.135 A 
HETATM   20  C   UNL     1      43.954 -16.986   2.206  1.00  0.00     0.117 A 
ENDBRANCH  15  16
ENDBRANCH   9  10
ENDBRANCH   7   9
ENDBRANCH   1   7
BRANCH   3  21
HETATM   21  N   UNL     1      40.905 -14.582   4.909  1.00  0.00    -0.271 NA
HETATM   22  H   UNL     1      40.159 -15.262   4.970  1.00  0.00     0.127 HD
HETATM   23  H   UNL     1      41.131 -14.230   3.990  1.00  0.00     0.127 HD
ENDBRANCH   3  21
BRANCH   5  24
HETATM   24  N   UNL     1      44.866 -13.830   7.319  1.00  0.00    -0.227 N 
HETATM   25  N   UNL     1      44.613 -13.329   8.560  1.00  0.00    -0.179 NA
HETATM   26  C   UNL     1      45.650 -12.526   8.810  1.00  0.00     0.141 A 
HETATM   27  C   UNL     1      46.580 -12.499   7.761  1.00  0.00     0.040 A 
HETATM   28  C   UNL     1      46.056 -13.346   6.814  1.00  0.00     0.122 A 
ENDBRANCH   5  24
TORSDOF 6
ENDMDL
MODEL 3
REMARK VINA RESULT:      -8.2      2.031      2.375
REMARK  6 active torsions:
REMARK  status: ('A' for Active; 'I' for Inactive)
REMARK    1  A    between atoms: C_3  and  C_4 
REMARK    2  A    between atoms: C_4  and  N_5 
REMARK    3  A    between atoms: N_5  and  C_6 
REMARK    4  A    between atoms: C_8  and  N_9 
REMARK    5  A    between atoms: C_11  and  N_12 
REMARK    6  A    between atoms: C_18  and  N_19 
ROOT
HETATM    1  C   UNL     1      41.931 -16.355   1.881  1.00  0.00     0.110 A 
HETATM    2  N   UNL     1      42.396 -15.251   2.483  1.00  0.00    -0.206 NA
HETATM    3  C   UNL     1      42.273 -14.094   1.830  1.00  0.00     0.202 A 
HETATM    4  N   UNL     1      41.702 -13.948   0.638  1.00  0.00    -0.199 NA
HETATM    5  C   UNL     1      41.230 -15.077   0.059  1.00  0.00     0.156 A 
HETATM    6  C   UNL     1      41.313 -16.318   0.655  1.00  0.00     0.096 A 
ENDROOT
BRANCH   1   7
HETATM    7  N   UNL     1      42.087 -17.535   2.618  1.00  0.00    -0.273 NA
HETATM    8  H   UNL     1      41.522 -17.344   3.446  1.00  0.00     0.129 HD
BRANCH   7   9
HETATM    9  C   UNL     1      43.471 -17.836   2.986  1.00  0.00     0.134 C 
BRANCH   9  10
HETATM   10  C   UNL     1      43.799 -19.327   3.001  1.00  0.00    -0.018 A 
HETATM   11  C   UNL     1      43.683 -20.079   1.807  1.00  0.00     0.011 A 
HETATM   12  C   UNL     1      44.006 -21.436   1.746  1.00  0.00     0.001 A 
HETATM   13  C   UNL     1      44.460 -22.089   2.878  1.00  0.00     0.002 A 
HETATM   14  C   UNL     1      44.590 -21.383   4.073  1.00  0.00     0.030 A 
HETATM   15  C   UNL     1      44.255 -20.013   4.159  1.00  0.00     0.047 A 
BRANCH  15  16
HETATM   16  N   UNL     1      44.415 -19.400   5.442  1.00  0.00    -0.315 N 
HETATM   17  C   UNL     1      45.305 -18.424   5.835  1.00  0.00     0.214 A 
HETATM   18  N   UNL     1      45.181 -18.096   7.103  1.00  0.00    -0.254 NA
HETATM   19  C   UNL     1      44.145 -18.850   7.564  1.00  0.00     0.135 A 
HETATM   20  C   UNL     1      43.640 -19.643   6.562  1.00  0.00     0.117 A 
ENDBRANCH  15  16
ENDBRANCH   9  10
ENDBRANCH   7   9
ENDBRANCH   1   7
BRANCH   3  21
HETATM   21  N   UNL     1      42.738 -12.957   2.457  1.00  0.00    -0.271 NA
HETATM   22  H   UNL     1      43.731 -12.860   2.293  1.00  0.00     0.127 HD
HETATM   23  H   UNL     1      42.427 -12.942   3.418  1.00  0.00     0.127 HD
ENDBRANCH   3  21
BRANCH   5  24
HETATM   24  N   UNL     1      40.629 -14.966  -1.229  1.00  0.00    -0.227 N 
HETATM   25  N   UNL     1      39.545 -14.175  -1.463  1.00  0.00    -0.179 NA
HETATM   26  C   UNL     1      39.274 -14.359  -2.756  1.00  0.00     0.141 A 
HETATM   27  C   UNL     1      40.165 -15.249  -3.376  1.00  0.00     0.040 A 
HETATM   28  C   UNL     1      41.027 -15.624  -2.375  1.00  0.00     0.122 A 
ENDBRANCH   5  24
TORSDOF 6
ENDMDL
MODEL 4
REMARK VINA RESULT:      -8.1      1.735      3.292
REMARK  6 active torsions:
REMARK  status: ('A' for Active; 'I' for Inactive)
REMARK    1  A    between atoms: C_3  and  C_4 
REMARK    2  A    between atoms: C_4  and  N_5 
REMARK    3  A    between atoms: N_5  and  C_6 
REMARK    4  A    between atoms: C_8  and  N_9 
REMARK    5  A    between atoms: C_11  and  N_12 
REMARK    6  A    between atoms: C_18  and  N_19 
ROOT
HETATM    1  C   UNL     1      41.862 -17.303   2.487  1.00  0.00     0.110 A 
HETATM    2  N   UNL     1      40.660 -17.045   1.954  1.00  0.00    -0.206 NA
HETATM    3  C   UNL     1      40.016 -15.956   2.380  1.00  0.00     0.202 A 
HETATM    4  N   UNL     1      40.488 -15.094   3.276  1.00  0.00    -0.199 NA
HETATM    5  C   UNL     1      41.709 -15.373   3.789  1.00  0.00     0.156 A 
HETATM    6  C   UNL     1      42.449 -16.475   3.412  1.00  0.00     0.096 A 
ENDROOT
BRANCH   1   7
HETATM    7  N   UNL     1      42.486 -18.457   1.997  1.00  0.00    -0.273 NA
HETATM    8  H   UNL     1      41.883 -19.195   2.361  1.00  0.00     0.129 HD
BRANCH   7   9
HETATM    9  C   UNL     1      43.866 -18.635   2.453  1.00  0.00     0.134 C 
BRANCH   9  10
HETATM   10  C   UNL     1      44.154 -20.017   3.033  1.00  0.00    -0.018 A 
HETATM   11  C   UNL     1      44.254 -21.132   2.165  1.00  0.00     0.011 A 
HETATM   12  C   UNL     1      44.554 -22.414   2.628  1.00  0.00     0.001 A 
HETATM   13  C   UNL     1      44.770 -22.625   3.979  1.00  0.00     0.002 A 
HETATM   14  C   UNL     1      44.683 -21.555   4.865  1.00  0.00     0.030 A 
HETATM   15  C   UNL     1      44.366 -20.252   4.419  1.00  0.00     0.047 A 
BRANCH  15  16
HETATM   16  N   UNL     1      44.290 -19.237   5.424  1.00  0.00    -0.315 N 
HETATM   17  C   UNL     1      45.283 -18.408   5.901  1.00  0.00     0.214 A 
HETATM   18  N   UNL     1      44.862 -17.591   6.841  1.00  0.00    -0.254 NA
HETATM   19  C   UNL     1      43.532 -17.853   6.969  1.00  0.00     0.135 A 
HETATM   20  C   UNL     1      43.148 -18.842   6.096  1.00  0.00     0.117 A 
ENDBRANCH  15  16
ENDBRANCH   9  10
ENDBRANCH   7   9
ENDBRANCH   1   7
BRANCH   3  21
HETATM   21  N   UNL     1      38.787 -15.684   1.820  1.00  0.00    -0.271 NA
HETATM   22  H   UNL     1      38.057 -15.856   2.498  1.00  0.00     0.127 HD
HETATM   23  H   UNL     1      38.704 -16.150   0.927  1.00  0.00     0.127 HD
ENDBRANCH   3  21
BRANCH   5  24
HETATM   24  N   UNL     1      42.241 -14.483   4.767  1.00  0.00    -0.227 N 
HETATM   25  N   UNL     1      43.446 -14.693   5.366  1.00  0.00    -0.179 NA
HETATM   26  C   UNL     1      43.573 -13.675   6.219  1.00  0.00     0.141 A 
HETATM   27  C   UNL     1      42.478 -12.798   6.185  1.00  0.00     0.040 A 
HETATM   28  C   UNL     1      41.636 -13.338   5.244  1.00  0.00     0.122 A 
ENDBRANCH   5  24
TORSDOF 6
ENDMDL
MODEL 5
REMARK VINA RESULT:      -8.0      1.355      1.844
REMARK  6 active torsions:
REMARK  status: ('A' for Active; 'I' for Inactive)
REMARK    1  A    between atoms: C_3  and  C_4 
REMARK    2  A    between atoms: C_4  and  N_5 
REMARK    3  A    between atoms: N_5  and  C_6 
REMARK    4  A    between atoms: C_8  and  N_9 
REMARK    5  A    between atoms: C_11  and  N_12 
REMARK    6  A    between atoms: C_18  and  N_19 
ROOT
HETATM    1  C   UNL     1      42.059 -17.722   1.835  1.00  0.00     0.110 A 
HETATM    2  N   UNL     1      41.685 -17.408   3.083  1.00  0.00    -0.206 NA
HETATM    3  C   UNL     1      40.956 -16.303   3.250  1.00  0.00     0.202 A 
HETATM    4  N   UNL     1      40.551 -15.503   2.268  1.00  0.00    -0.199 NA
HETATM    5  C   UNL     1      40.933 -15.850   1.017  1.00  0.00     0.156 A 
HETATM    6  C   UNL     1      41.688 -16.972   0.746  1.00  0.00     0.096 A 
ENDROOT
BRANCH   1   7
HETATM    7  N   UNL     1      42.819 -18.893   1.728  1.00  0.00    -0.273 NA
HETATM    8  H   UNL     1      42.168 -19.601   2.068  1.00  0.00     0.129 HD
BRANCH   7   9
HETATM    9  C   UNL     1      44.049 -18.888   2.523  1.00  0.00     0.134 C 
BRANCH   9  10
HETATM   10  C   UNL     1      44.280 -20.171   3.317  1.00  0.00    -0.018 A 
HETATM   11  C   UNL     1      44.413 -21.402   2.631  1.00  0.00     0.011 A 
HETATM   12  C   UNL     1      44.665 -22.604   3.296  1.00  0.00     0.001 A 
HETATM   13  C   UNL     1      44.797 -22.614   4.673  1.00  0.00     0.002 A 
HETATM   14  C   UNL     1      44.676 -21.423   5.385  1.00  0.00     0.030 A 
HETATM   15  C   UNL     1      44.407 -20.199   4.732  1.00  0.00     0.047 A 
BRANCH  15  16
HETATM   16  N   UNL     1      44.288 -19.045   5.570  1.00  0.00    -0.315 N 
HETATM   17  C   UNL     1      45.274 -18.199   6.030  1.00  0.00     0.214 A 
HETATM   18  N   UNL     1      44.808 -17.235   6.795  1.00  0.00    -0.254 NA
HETATM   19  C   UNL     1      43.459 -17.419   6.814  1.00  0.00     0.135 A 
HETATM   20  C   UNL     1      43.108 -18.508   6.053  1.00  0.00     0.117 A 
ENDBRANCH  15  16
ENDBRANCH   9  10
ENDBRANCH   7   9
ENDBRANCH   1   7
BRANCH   3  21
HETATM   21  N   UNL     1      40.559 -15.989   4.532  1.00  0.00    -0.271 NA
HETATM   22  H   UNL     1      41.072 -15.182   4.860  1.00  0.00     0.127 HD
HETATM   23  H   UNL     1      40.583 -16.816   5.112  1.00  0.00     0.127 HD
ENDBRANCH   3  21
BRANCH   5  24
HETATM   24  N   UNL     1      40.536 -15.007  -0.062  1.00  0.00    -0.227 N 
HETATM   25  N   UNL     1      40.986 -15.187  -1.334  1.00  0.00    -0.179 NA
HETATM   26  C   UNL     1      40.417 -14.202  -2.030  1.00  0.00     0.141 A 
HETATM   27  C   UNL     1      39.595 -13.384  -1.239  1.00  0.00     0.040 A 
HETATM   28  C   UNL     1      39.686 -13.922   0.021  1.00  0.00     0.122 A 
ENDBRANCH   5  24
TORSDOF 6
ENDMDL
MODEL 6
REMARK VINA RESULT:      -7.9      1.926      3.211
REMARK  6 active torsions:
REMARK  status: ('A' for Active; 'I' for Inactive)
REMARK    1  A    between atoms: C_3  and  C_4 
REMARK    2  A    between atoms: C_4  and  N_5 
REMARK    3  A    between atoms: N_5  and  C_6 
REMARK    4  A    between atoms: C_8  and  N_9 
REMARK    5  A    between atoms: C_11  and  N_12 
REMARK    6  A    between atoms: C_18  and  N_19 
ROOT
HETATM    1  C   UNL     1      41.723 -17.196   1.450  1.00  0.00     0.110 A 
HETATM    2  N   UNL     1      40.917 -16.683   2.389  1.00  0.00    -0.206 NA
HETATM    3  C   UNL     1      40.261 -15.559   2.094  1.00  0.00     0.202 A 
HETATM    4  N   UNL     1      40.328 -14.922   0.929  1.00  0.00    -0.199 NA
HETATM    5  C   UNL     1      41.139 -15.468  -0.006  1.00  0.00     0.156 A 
HETATM    6  C   UNL     1      41.858 -16.626   0.207  1.00  0.00     0.096 A 
ENDROOT
BRANCH   1   7
HETATM    7  N   UNL     1      42.380 -18.375   1.820  1.00  0.00    -0.273 NA
HETATM    8  H   UNL     1      41.698 -18.812   2.441  1.00  0.00     0.129 HD
BRANCH   7   9
HETATM    9  C   UNL     1      43.655 -18.165   2.507  1.00  0.00     0.134 C 
BRANCH   9  10
HETATM   10  C   UNL     1      43.850 -19.048   3.736  1.00  0.00    -0.018 A 
HETATM   11  C   UNL     1      44.569 -20.262   3.617  1.00  0.00     0.011 A 
HETATM   12  C   UNL     1      44.817 -21.094   4.710  1.00  0.00     0.001 A 
HETATM   13  C   UNL     1      44.356 -20.738   5.966  1.00  0.00     0.002 A 
HETATM   14  C   UNL     1      43.646 -19.550   6.126  1.00  0.00     0.030 A 
HETATM   15  C   UNL     1      43.373 -18.701   5.030  1.00  0.00     0.047 A 
BRANCH  15  16
HETATM   16  N   UNL     1      42.622 -17.517   5.315  1.00  0.00    -0.315 N 
HETATM   17  C   UNL     1      41.282 -17.385   5.608  1.00  0.00     0.214 A 
HETATM   18  N   UNL     1      40.921 -16.137   5.810  1.00  0.00    -0.254 NA
HETATM   19  C   UNL     1      42.067 -15.411   5.689  1.00  0.00     0.135 A 
HETATM   20  C   UNL     1      43.132 -16.234   5.408  1.00  0.00     0.117 A 
ENDBRANCH  15  16
ENDBRANCH   9  10
ENDBRANCH   7   9
ENDBRANCH   1   7
BRANCH   3  21
HETATM   21  N   UNL     1      39.421 -15.041   3.057  1.00  0.00    -0.271 NA
HETATM   22  H   UNL     1      39.521 -15.565   3.915  1.00  0.00     0.127 HD
HETATM   23  H   UNL     1      38.487 -14.945   2.683  1.00  0.00     0.127 HD
ENDBRANCH   3  21
BRANCH   5  24
HETATM   24  N   UNL     1      41.253 -14.804  -1.262  1.00  0.00    -0.227 N 
HETATM   25  N   UNL     1      41.812 -13.569  -1.387  1.00  0.00    -0.179 NA
HETATM   26  C   UNL     1      41.712 -13.289  -2.688  1.00  0.00     0.141 A 
HETATM   27  C   UNL     1      41.105 -14.322  -3.419  1.00  0.00     0.040 A 
HETATM   28  C   UNL     1      40.821 -15.285  -2.482  1.00  0.00     0.122 A 
ENDBRANCH   5  24
TORSDOF 6
ENDMDL
MODEL 7
REMARK VINA RESULT:      -7.9      2.218      3.701
REMARK  6 active torsions:
REMARK  status: ('A' for Active; 'I' for Inactive)
REMARK    1  A    between atoms: C_3  and  C_4 
REMARK    2  A    between atoms: C_4  and  N_5 
REMARK    3  A    between atoms: N_5  and  C_6 
REMARK    4  A    between atoms: C_8  and  N_9 
REMARK    5  A    between atoms: C_11  and  N_12 
REMARK    6  A    between atoms: C_18  and  N_19 
ROOT
HETATM    1  C   UNL     1      43.169 -16.822   5.610  1.00  0.00     0.110 A 
HETATM    2  N   UNL     1      43.829 -16.275   6.641  1.00  0.00    -0.206 NA
HETATM    3  C   UNL     1      43.741 -14.953   6.800  1.00  0.00     0.202 A 
HETATM    4  N   UNL     1      43.029 -14.139   6.027  1.00  0.00    -0.199 NA
HETATM    5  C   UNL     1      42.362 -14.718   5.001  1.00  0.00     0.156 A 
HETATM    6  C   UNL     1      42.393 -16.076   4.756  1.00  0.00     0.096 A 
ENDROOT
BRANCH   1   7
HETATM    7  N   UNL     1      43.298 -18.211   5.501  1.00  0.00    -0.273 NA
HETATM    8  H   UNL     1      43.229 -18.509   6.474  1.00  0.00     0.129 HD
BRANCH   7   9
HETATM    9  C   UNL     1      44.561 -18.653   4.906  1.00  0.00     0.134 C 
BRANCH   9  10
HETATM   10  C   UNL     1      44.416 -19.831   3.947  1.00  0.00    -0.018 A 
HETATM   11  C   UNL     1      44.837 -21.120   4.355  1.00  0.00     0.011 A 
HETATM   12  C   UNL     1      44.695 -22.245   3.541  1.00  0.00     0.001 A 
HETATM   13  C   UNL     1      44.122 -22.120   2.288  1.00  0.00     0.002 A 
HETATM   14  C   UNL     1      43.692 -20.869   1.849  1.00  0.00     0.030 A 
HETATM   15  C   UNL     1      43.840 -19.716   2.652  1.00  0.00     0.047 A 
BRANCH  15  16
HETATM   16  N   UNL     1      43.376 -18.486   2.089  1.00  0.00    -0.315 N 
HETATM   17  C   UNL     1      44.101 -17.387   1.681  1.00  0.00     0.214 A 
HETATM   18  N   UNL     1      43.345 -16.417   1.214  1.00  0.00    -0.254 NA
HETATM   19  C   UNL     1      42.073 -16.900   1.273  1.00  0.00     0.135 A 
HETATM   20  C   UNL     1      42.063 -18.175   1.784  1.00  0.00     0.117 A 
ENDBRANCH  15  16
ENDBRANCH   9  10
ENDBRANCH   7   9
ENDBRANCH   1   7
BRANCH   3  21
HETATM   21  N   UNL     1      44.409 -14.395   7.869  1.00  0.00    -0.271 NA
HETATM   22  H   UNL     1      43.971 -14.685   8.733  1.00  0.00     0.127 HD
HETATM   23  H   UNL     1      44.524 -13.402   7.722  1.00  0.00     0.127 HD
ENDBRANCH   3  21
BRANCH   5  24
HETATM   24  N   UNL     1      41.603 -13.877   4.137  1.00  0.00    -0.227 N 
HETATM   25  N   UNL     1      42.133 -12.772   3.543  1.00  0.00    -0.179 NA
HETATM   26  C   UNL     1      41.119 -12.252   2.848  1.00  0.00     0.141 A 
HETATM   27  C   UNL     1      39.938 -12.999   2.969  1.00  0.00     0.040 A 
HETATM   28  C   UNL     1      40.274 -14.039   3.802  1.00  0.00     0.122 A 
ENDBRANCH   5  24
TORSDOF 6
ENDMDL
MODEL 8
REMARK VINA RESULT:      -7.9      2.756      8.729
REMARK  6 active torsions:
REMARK  status: ('A' for Active; 'I' for Inactive)
REMARK    1  A    between atoms: C_3  and  C_4 
REMARK    2  A    between atoms: C_4  and  N_5 
REMARK    3  A    between atoms: N_5  and  C_6 
REMARK    4  A    between atoms: C_8  and  N_9 
REMARK    5  A    between atoms: C_11  and  N_12 
REMARK    6  A    between atoms: C_18  and  N_19 
ROOT
HETATM    1  C   UNL     1      41.810 -16.544   0.762  1.00  0.00     0.110 A 
HETATM    2  N   UNL     1      41.063 -15.962   1.711  1.00  0.00    -0.206 NA
HETATM    3  C   UNL     1      41.104 -16.487   2.937  1.00  0.00     0.202 A 
HETATM    4  N   UNL     1      41.849 -17.530   3.295  1.00  0.00    -0.199 NA
HETATM    5  C   UNL     1      42.602 -18.090   2.320  1.00  0.00     0.156 A 
HETATM    6  C   UNL     1      42.625 -17.618   1.023  1.00  0.00     0.096 A 
ENDROOT
BRANCH   1   7
HETATM    7  N   UNL     1      41.725 -15.944  -0.500  1.00  0.00    -0.273 NA
HETATM    8  H   UNL     1      42.696 -15.687  -0.679  1.00  0.00     0.129 HD
BRANCH   7   9
HETATM    9  C   UNL     1      40.853 -14.769  -0.552  1.00  0.00     0.134 C 
BRANCH   9  10
HETATM   10  C   UNL     1      41.271 -13.732  -1.591  1.00  0.00    -0.018 A 
HETATM   11  C   UNL     1      42.335 -12.845  -1.303  1.00  0.00     0.011 A 
HETATM   12  C   UNL     1      42.791 -11.901  -2.226  1.00  0.00     0.001 A 
HETATM   13  C   UNL     1      42.198 -11.815  -3.473  1.00  0.00     0.002 A 
HETATM   14  C   UNL     1      41.149 -12.673  -3.797  1.00  0.00     0.030 A 
HETATM   15  C   UNL     1      40.664 -13.625  -2.872  1.00  0.00     0.047 A 
BRANCH  15  16
HETATM   16  N   UNL     1      39.573 -14.439  -3.313  1.00  0.00    -0.315 N 
HETATM   17  C   UNL     1      39.599 -15.675  -3.921  1.00  0.00     0.214 A 
HETATM   18  N   UNL     1      38.400 -16.135  -4.202  1.00  0.00    -0.254 NA
HETATM   19  C   UNL     1      37.538 -15.193  -3.727  1.00  0.00     0.135 A 
HETATM   20  C   UNL     1      38.228 -14.152  -3.155  1.00  0.00     0.117 A 
ENDBRANCH  15  16
ENDBRANCH   9  10
ENDBRANCH   7   9
ENDBRANCH   1   7
BRANCH   3  21
HETATM   21  N   UNL     1      40.347 -15.879   3.916  1.00  0.00    -0.271 NA
HETATM   22  H   UNL     1      40.937 -15.635   4.700  1.00  0.00     0.127 HD
HETATM   23  H   UNL     1      39.528 -16.436   4.113  1.00  0.00     0.127 HD
ENDBRANCH   3  21
BRANCH   5  24
HETATM   24  N   UNL     1      43.399 -19.222   2.659  1.00  0.00    -0.227 N 
HETATM   25  N   UNL     1      44.140 -19.278   3.800  1.00  0.00    -0.179 NA
HETATM   26  C   UNL     1      44.749 -20.464   3.741  1.00  0.00     0.141 A 
HETATM   27  C   UNL     1      44.415 -21.189   2.587  1.00  0.00     0.040 A 
HETATM   28  C   UNL     1      43.545 -20.371   1.908  1.00  0.00     0.122 A 
ENDBRANCH   5  24
TORSDOF 6
ENDMDL
MODEL 9
REMARK VINA RESULT:      -7.7      1.919      7.322
REMARK  6 active torsions:
REMARK  status: ('A' for Active; 'I' for Inactive)
REMARK    1  A    between atoms: C_3  and  C_4 
REMARK    2  A    between atoms: C_4  and  N_5 
REMARK    3  A    between atoms: N_5  and  C_6 
REMARK    4  A    between atoms: C_8  and  N_9 
REMARK    5  A    between atoms: C_11  and  N_12 
REMARK    6  A    between atoms: C_18  and  N_19 
ROOT
HETATM    1  C   UNL     1      42.637 -16.698   6.495  1.00  0.00     0.110 A 
HETATM    2  N   UNL     1      43.023 -17.062   7.726  1.00  0.00    -0.206 NA
HETATM    3  C   UNL     1      43.695 -18.208   7.849  1.00  0.00     0.202 A 
HETATM    4  N   UNL     1      44.034 -19.004   6.840  1.00  0.00    -0.199 NA
HETATM    5  C   UNL     1      43.643 -18.607   5.607  1.00  0.00     0.156 A 
HETATM    6  C   UNL     1      42.942 -17.440   5.380  1.00  0.00     0.096 A 
ENDROOT
BRANCH   1   7
HETATM    7  N   UNL     1      41.939 -15.486   6.433  1.00  0.00    -0.273 NA
HETATM    8  H   UNL     1      41.934 -15.194   7.410  1.00  0.00     0.129 HD
BRANCH   7   9
HETATM    9  C   UNL     1      40.575 -15.603   5.914  1.00  0.00     0.134 C 
BRANCH   9  10
HETATM   10  C   UNL     1      40.084 -14.362   5.173  1.00  0.00    -0.018 A 
HETATM   11  C   UNL     1      39.506 -13.296   5.903  1.00  0.00     0.011 A 
HETATM   12  C   UNL     1      39.076 -12.118   5.289  1.00  0.00     0.001 A 
HETATM   13  C   UNL     1      39.212 -11.965   3.920  1.00  0.00     0.002 A 
HETATM   14  C   UNL     1      39.778 -12.990   3.166  1.00  0.00     0.030 A 
HETATM   15  C   UNL     1      40.207 -14.196   3.767  1.00  0.00     0.047 A 
BRANCH  15  16
HETATM   16  N   UNL     1      40.758 -15.181   2.888  1.00  0.00    -0.315 N 
HETATM   17  C   UNL     1      40.127 -16.224   2.245  1.00  0.00     0.214 A 
HETATM   18  N   UNL     1      40.946 -16.948   1.514  1.00  0.00    -0.254 NA
HETATM   19  C   UNL     1      42.161 -16.344   1.639  1.00  0.00     0.135 A 
HETATM   20  C   UNL     1      42.071 -15.244   2.457  1.00  0.00     0.117 A 
ENDBRANCH  15  16
ENDBRANCH   9  10
ENDBRANCH   7   9
ENDBRANCH   1   7
BRANCH   3  21
HETATM   21  N   UNL     1      44.104 -18.573   9.114  1.00  0.00    -0.271 NA
HETATM   22  H   UNL     1      43.297 -18.778   9.687  1.00  0.00     0.127 HD
HETATM   23  H   UNL     1      44.762 -17.896   9.473  1.00  0.00     0.127 HD
ENDBRANCH   3  21
BRANCH   5  24
HETATM   24  N   UNL     1      43.969 -19.444   4.500  1.00  0.00    -0.227 N 
HETATM   25  N   UNL     1      43.535 -19.185   3.236  1.00  0.00    -0.179 NA
HETATM   26  C   UNL     1      44.022 -20.190   2.506  1.00  0.00     0.141 A 
HETATM   27  C   UNL     1      44.773 -21.099   3.267  1.00  0.00     0.040 A 
HETATM   28  C   UNL     1      44.726 -20.597   4.545  1.00  0.00     0.122 A 
ENDBRANCH   5  24
TORSDOF 6
ENDMDL
MODEL 10
REMARK VINA RESULT:      -7.7      2.437      3.716
REMARK  6 active torsions:
REMARK  status: ('A' for Active; 'I' for Inactive)
REMARK    1  A    between atoms: C_3  and  C_4 
REMARK    2  A    between atoms: C_4  and  N_5 
REMARK    3  A    between atoms: N_5  and  C_6 
REMARK    4  A    between atoms: C_8  and  N_9 
REMARK    5  A    between atoms: C_11  and  N_12 
REMARK    6  A    between atoms: C_18  and  N_19 
ROOT
HETATM    1  C   UNL     1      41.779 -14.143   1.630  1.00  0.00     0.110 A 
HETATM    2  N   UNL     1      42.311 -12.915   1.554  1.00  0.00    -0.206 NA
HETATM    3  C   UNL     1      42.204 -12.267   0.392  1.00  0.00     0.202 A 
HETATM    4  N   UNL     1      41.586 -12.736  -0.688  1.00  0.00    -0.199 NA
HETATM    5  C   UNL     1      41.047 -13.973  -0.579  1.00  0.00     0.156 A 
HETATM    6  C   UNL     1      41.109 -14.720   0.579  1.00  0.00     0.096 A 
ENDROOT
BRANCH   1   7
HETATM    7  N   UNL     1      41.923 -14.768   2.874  1.00  0.00    -0.273 NA
HETATM    8  H   UNL     1      41.658 -14.023   3.519  1.00  0.00     0.129 HD
BRANCH   7   9
HETATM    9  C   UNL     1      43.278 -15.245   3.155  1.00  0.00     0.134 C 
BRANCH   9  10
HETATM   10  C   UNL     1      43.468 -16.742   2.929  1.00  0.00    -0.018 A 
HETATM   11  C   UNL     1      43.692 -17.228   1.618  1.00  0.00     0.011 A 
HETATM   12  C   UNL     1      43.912 -18.581   1.350  1.00  0.00     0.001 A 
HETATM   13  C   UNL     1      43.921 -19.496   2.388  1.00  0.00     0.002 A 
HETATM   14  C   UNL     1      43.707 -19.058   3.693  1.00  0.00     0.030 A 
HETATM   15  C   UNL     1      43.468 -17.696   3.984  1.00  0.00     0.047 A 
BRANCH  15  16
HETATM   16  N   UNL     1      43.247 -17.369   5.359  1.00  0.00    -0.315 N 
HETATM   17  C   UNL     1      42.067 -17.345   6.069  1.00  0.00     0.214 A 
HETATM   18  N   UNL     1      42.229 -16.988   7.325  1.00  0.00    -0.254 NA
HETATM   19  C   UNL     1      43.572 -16.807   7.471  1.00  0.00     0.135 A 
HETATM   20  C   UNL     1      44.224 -17.057   6.288  1.00  0.00     0.117 A 
ENDBRANCH  15  16
ENDBRANCH   9  10
ENDBRANCH   7   9
ENDBRANCH   1   7
BRANCH   3  21
HETATM   21  N   UNL     1      42.739 -10.998   0.320  1.00  0.00    -0.271 NA
HETATM   22  H   UNL     1      43.602 -11.022  -0.206  1.00  0.00     0.127 HD
HETATM   23  H   UNL     1      42.773 -10.585   1.241  1.00  0.00     0.127 HD
ENDBRANCH   3  21
BRANCH   5  24
HETATM   24  N   UNL     1      40.393 -14.520  -1.721  1.00  0.00    -0.227 N 
HETATM   25  N   UNL     1      39.150 -14.125  -2.110  1.00  0.00    -0.179 NA
HETATM   26  C   UNL     1      38.885 -14.872  -3.183  1.00  0.00     0.141 A 
HETATM   27  C   UNL     1      39.935 -15.743  -3.510  1.00  0.00     0.040 A 
HETATM   28  C   UNL     1      40.894 -15.497  -2.557  1.00  0.00     0.122 A 
ENDBRANCH   5  24
TORSDOF 6
ENDMDL
