MODEL 1
REMARK VINA RESULT:      -8.8      0.000      0.000
REMARK  7 active torsions:
REMARK  status: ('A' for Active; 'I' for Inactive)
REMARK    1  A    between atoms: C_2  and  C_3 
REMARK       I    between atoms: C_3  and  N_4 
REMARK    2  A    between atoms: N_7  and  C_8 
REMARK    3  A    between atoms: C_12  and  N_13 
REMARK    4  A    between atoms: N_13  and  C_14 
REMARK    5  A    between atoms: C_14  and  N_15 
REMARK       I    between atoms: N_15  and  C_16 
REMARK    6  A    between atoms: C_16  and  C_17 
REMARK    7  A    between atoms: C_18  and  O_19 
ROOT
HETATM    1  C   UNL     1      40.384 -13.603   0.622  1.00  0.00     0.052 A 
HETATM    2  C   UNL     1      39.223 -14.282   1.035  1.00  0.00     0.062 A 
HETATM    3 CL   UNL     1      37.664 -14.013   0.328  1.00  0.00    -0.082 Cl
HETATM    4  C   UNL     1      39.258 -15.199   2.098  1.00  0.00     0.055 A 
HETATM    5  C   UNL     1      40.440 -15.463   2.784  1.00  0.00     0.036 A 
HETATM    6  C   UNL     1      41.564 -14.697   2.473  1.00  0.00     0.032 A 
HETATM    7  C   UNL     1      41.536 -13.790   1.406  1.00  0.00     0.033 A 
ENDROOT
BRANCH   5   8
HETATM    8  N   UNL     1      40.591 -16.444   3.788  1.00  0.00    -0.333 N 
HETATM    9  H   UNL     1      39.721 -16.891   4.088  1.00  0.00     0.168 HD
BRANCH   8  10
HETATM   10  C   UNL     1      41.670 -16.799   4.566  1.00  0.00     0.179 C 
HETATM   11  S   UNL     1      42.293 -16.072   5.936  1.00  0.00    -0.040 SA
BRANCH  10  12
HETATM   12  N   UNL     1      42.317 -17.955   4.167  1.00  0.00    -0.299 N 
HETATM   13  C   UNL     1      43.402 -18.125   3.320  1.00  0.00     0.260 C 
HETATM   14  O   UNL     1      43.934 -17.216   2.691  1.00  0.00    -0.267 OA
HETATM   15  H   UNL     1      41.921 -18.794   4.580  1.00  0.00     0.171 HD
BRANCH  13  16
HETATM   16  C   UNL     1      43.840 -19.532   3.147  1.00  0.00     0.066 A 
HETATM   17  C   UNL     1      44.460 -20.260   4.176  1.00  0.00     0.089 A 
HETATM   18  C   UNL     1      44.728 -21.629   4.022  1.00  0.00    -0.028 A 
HETATM   19  C   UNL     1      45.309 -22.438   5.147  1.00  0.00     0.051 C 
HETATM   20  C   UNL     1      44.405 -22.247   2.805  1.00  0.00     0.009 A 
HETATM   21  C   UNL     1      43.839 -21.513   1.760  1.00  0.00     0.002 A 
HETATM   22  C   UNL     1      43.558 -20.157   1.927  1.00  0.00     0.020 A 
BRANCH  17  23
HETATM   23  O   UNL     1      44.769 -19.678   5.382  1.00  0.00    -0.354 OA
HETATM   24  C   UNL     1      43.813 -20.043   6.386  1.00  0.00     0.210 C 
ENDBRANCH  17  23
ENDBRANCH  13  16
ENDBRANCH  10  12
ENDBRANCH   8  10
ENDBRANCH   5   8
BRANCH   1  25
HETATM   25  N   UNL     1      40.536 -12.805  -0.516  1.00  0.00    -0.376 N 
HETATM   26  C   UNL     1      40.146 -13.434  -1.792  1.00  0.00     0.143 C 
HETATM   27  C   UNL     1      39.942 -12.344  -2.869  1.00  0.00     0.145 C 
HETATM   28  N   UNL     1      41.048 -11.375  -2.947  1.00  0.00    -0.349 N 
HETATM   29  C   UNL     1      41.248 -10.710  -4.151  1.00  0.00     0.219 C 
HETATM   30  C   UNL     1      41.518 -10.860  -1.650  1.00  0.00     0.145 C 
HETATM   31  O   UNL     1      40.621 -11.003  -5.170  1.00  0.00    -0.273 OA
HETATM   32  C   UNL     1      41.756 -11.988  -0.633  1.00  0.00     0.143 C 
BRANCH  29  33
HETATM   33  C   UNL     1      42.303  -9.612  -4.157  1.00  0.00     0.098 C 
HETATM   34  C   UNL     1      42.564  -9.054  -5.546  1.00  0.00     0.014 C 
ENDBRANCH  29  33
ENDBRANCH   1  25
TORSDOF 7
ENDMDL
MODEL 2
REMARK VINA RESULT:      -8.7      1.046      1.114
REMARK  7 active torsions:
REMARK  status: ('A' for Active; 'I' for Inactive)
REMARK    1  A    between atoms: C_2  and  C_3 
REMARK       I    between atoms: C_3  and  N_4 
REMARK    2  A    between atoms: N_7  and  C_8 
REMARK    3  A    between atoms: C_12  and  N_13 
REMARK    4  A    between atoms: N_13  and  C_14 
REMARK    5  A    between atoms: C_14  and  N_15 
REMARK       I    between atoms: N_15  and  C_16 
REMARK    6  A    between atoms: C_16  and  C_17 
REMARK    7  A    between atoms: C_18  and  O_19 
ROOT
HETATM    1  C   UNL     1      40.496 -13.994   0.089  1.00  0.00     0.052 A 
HETATM    2  C   UNL     1      40.811 -15.364   0.024  1.00  0.00     0.062 A 
HETATM    3 CL   UNL     1      41.177 -16.185  -1.457  1.00  0.00    -0.082 Cl
HETATM    4  C   UNL     1      40.800 -16.167   1.177  1.00  0.00     0.055 A 
HETATM    5  C   UNL     1      40.470 -15.637   2.421  1.00  0.00     0.036 A 
HETATM    6  C   UNL     1      40.025 -14.316   2.475  1.00  0.00     0.032 A 
HETATM    7  C   UNL     1      40.046 -13.509   1.330  1.00  0.00     0.033 A 
ENDROOT
BRANCH   5   8
HETATM    8  N   UNL     1      40.538 -16.341   3.643  1.00  0.00    -0.333 N 
HETATM    9  H   UNL     1      39.635 -16.517   4.090  1.00  0.00     0.168 HD
BRANCH   8  10
HETATM   10  C   UNL     1      41.605 -16.689   4.440  1.00  0.00     0.179 C 
HETATM   11  S   UNL     1      42.214 -15.946   5.808  1.00  0.00    -0.040 SA
BRANCH  10  12
HETATM   12  N   UNL     1      42.253 -17.853   4.066  1.00  0.00    -0.299 N 
HETATM   13  C   UNL     1      43.393 -18.034   3.297  1.00  0.00     0.260 C 
HETATM   14  O   UNL     1      43.991 -17.126   2.728  1.00  0.00    -0.267 OA
HETATM   15  H   UNL     1      41.808 -18.689   4.430  1.00  0.00     0.171 HD
BRANCH  13  16
HETATM   16  C   UNL     1      43.809 -19.448   3.127  1.00  0.00     0.066 A 
HETATM   17  C   UNL     1      44.441 -20.175   4.149  1.00  0.00     0.089 A 
HETATM   18  C   UNL     1      44.688 -21.549   4.000  1.00  0.00    -0.028 A 
HETATM   19  C   UNL     1      45.282 -22.357   5.120  1.00  0.00     0.051 C 
HETATM   20  C   UNL     1      44.333 -22.172   2.795  1.00  0.00     0.009 A 
HETATM   21  C   UNL     1      43.755 -21.440   1.756  1.00  0.00     0.002 A 
HETATM   22  C   UNL     1      43.494 -20.079   1.918  1.00  0.00     0.020 A 
BRANCH  17  23
HETATM   23  O   UNL     1      44.782 -19.587   5.343  1.00  0.00    -0.354 OA
HETATM   24  C   UNL     1      43.780 -19.832   6.338  1.00  0.00     0.210 C 
ENDBRANCH  17  23
ENDBRANCH  13  16
ENDBRANCH  10  12
ENDBRANCH   8  10
ENDBRANCH   5   8
BRANCH   1  25
HETATM   25  N   UNL     1      40.634 -13.047  -0.929  1.00  0.00    -0.376 N 
HETATM   26  C   UNL     1      39.616 -13.105  -1.996  1.00  0.00     0.143 C 
HETATM   27  C   UNL     1      39.614 -11.778  -2.788  1.00  0.00     0.145 C 
HETATM   28  N   UNL     1      40.956 -11.339  -3.209  1.00  0.00    -0.349 N 
HETATM   29  C   UNL     1      41.050 -10.509  -4.321  1.00  0.00     0.219 C 
HETATM   30  C   UNL     1      41.993 -11.418  -2.166  1.00  0.00     0.145 C 
HETATM   31  O   UNL     1      40.073 -10.248  -5.025  1.00  0.00    -0.273 OA
HETATM   32  C   UNL     1      41.986 -12.776  -1.448  1.00  0.00     0.143 C 
BRANCH  29  33
HETATM   33  C   UNL     1      42.431  -9.956  -4.643  1.00  0.00     0.098 C 
HETATM   34  C   UNL     1      42.461  -9.163  -5.938  1.00  0.00     0.014 C 
ENDBRANCH  29  33
ENDBRANCH   1  25
TORSDOF 7
ENDMDL
MODEL 3
REMARK VINA RESULT:      -8.6      6.007      9.881
REMARK  7 active torsions:
REMARK  status: ('A' for Active; 'I' for Inactive)
REMARK    1  A    between atoms: C_2  and  C_3 
REMARK       I    between atoms: C_3  and  N_4 
REMARK    2  A    between atoms: N_7  and  C_8 
REMARK    3  A    between atoms: C_12  and  N_13 
REMARK    4  A    between atoms: N_13  and  C_14 
REMARK    5  A    between atoms: C_14  and  N_15 
REMARK       I    between atoms: N_15  and  C_16 
REMARK    6  A    between atoms: C_16  and  C_17 
REMARK    7  A    between atoms: C_18  and  O_19 
ROOT
HETATM    1  C   UNL     1      41.964 -15.040   5.077  1.00  0.00     0.052 A 
HETATM    2  C   UNL     1      42.539 -13.801   4.739  1.00  0.00     0.062 A 
HETATM    3 CL   UNL     1      44.078 -13.649   3.957  1.00  0.00    -0.082 Cl
HETATM    4  C   UNL     1      41.904 -12.592   5.071  1.00  0.00     0.055 A 
HETATM    5  C   UNL     1      40.689 -12.578   5.749  1.00  0.00     0.036 A 
HETATM    6  C   UNL     1      40.179 -13.794   6.206  1.00  0.00     0.032 A 
HETATM    7  C   UNL     1      40.803 -15.001   5.867  1.00  0.00     0.033 A 
ENDROOT
BRANCH   5   8
HETATM    8  N   UNL     1      39.930 -11.420   6.025  1.00  0.00    -0.333 N 
HETATM    9  H   UNL     1      38.972 -11.438   5.668  1.00  0.00     0.168 HD
BRANCH   8  10
HETATM   10  C   UNL     1      40.286 -10.194   6.539  1.00  0.00     0.179 C 
HETATM   11  S   UNL     1      39.896  -8.655   6.016  1.00  0.00    -0.040 SA
BRANCH  10  12
HETATM   12  N   UNL     1      41.060 -10.247   7.684  1.00  0.00    -0.299 N 
HETATM   13  C   UNL     1      40.777 -10.788   8.930  1.00  0.00     0.260 C 
HETATM   14  O   UNL     1      39.689 -11.259   9.245  1.00  0.00    -0.267 OA
HETATM   15  H   UNL     1      41.976  -9.826   7.564  1.00  0.00     0.171 HD
BRANCH  13  16
HETATM   16  C   UNL     1      41.878 -10.678   9.919  1.00  0.00     0.066 A 
HETATM   17  C   UNL     1      43.225 -10.868   9.570  1.00  0.00     0.089 A 
HETATM   18  C   UNL     1      44.246 -10.615  10.499  1.00  0.00    -0.028 A 
HETATM   19  C   UNL     1      45.694 -10.729  10.112  1.00  0.00     0.051 C 
HETATM   20  C   UNL     1      43.895 -10.211  11.795  1.00  0.00     0.009 A 
HETATM   21  C   UNL     1      42.554 -10.075  12.161  1.00  0.00     0.002 A 
HETATM   22  C   UNL     1      41.545 -10.309  11.227  1.00  0.00     0.020 A 
BRANCH  17  23
HETATM   23  O   UNL     1      43.591 -11.248   8.301  1.00  0.00    -0.354 OA
HETATM   24  C   UNL     1      43.965 -12.631   8.269  1.00  0.00     0.210 C 
ENDBRANCH  17  23
ENDBRANCH  13  16
ENDBRANCH  10  12
ENDBRANCH   8  10
ENDBRANCH   5   8
BRANCH   1  25
HETATM   25  N   UNL     1      42.387 -16.307   4.664  1.00  0.00    -0.376 N 
HETATM   26  C   UNL     1      43.537 -16.866   5.400  1.00  0.00     0.143 C 
HETATM   27  C   UNL     1      43.616 -18.391   5.163  1.00  0.00     0.145 C 
HETATM   28  N   UNL     1      43.519 -18.774   3.744  1.00  0.00    -0.349 N 
HETATM   29  C   UNL     1      44.085 -19.984   3.356  1.00  0.00     0.219 C 
HETATM   30  C   UNL     1      42.449 -18.101   2.988  1.00  0.00     0.145 C 
HETATM   31  O   UNL     1      44.766 -20.662   4.126  1.00  0.00    -0.273 OA
HETATM   32  C   UNL     1      42.449 -16.582   3.218  1.00  0.00     0.143 C 
BRANCH  29  33
HETATM   33  C   UNL     1      43.842 -20.420   1.918  1.00  0.00     0.098 C 
HETATM   34  C   UNL     1      43.886 -21.928   1.744  1.00  0.00     0.014 C 
ENDBRANCH  29  33
ENDBRANCH   1  25
TORSDOF 7
ENDMDL
MODEL 4
REMARK VINA RESULT:      -8.5      6.302     10.266
REMARK  7 active torsions:
REMARK  status: ('A' for Active; 'I' for Inactive)
REMARK    1  A    between atoms: C_2  and  C_3 
REMARK       I    between atoms: C_3  and  N_4 
REMARK    2  A    between atoms: N_7  and  C_8 
REMARK    3  A    between atoms: C_12  and  N_13 
REMARK    4  A    between atoms: N_13  and  C_14 
REMARK    5  A    between atoms: C_14  and  N_15 
REMARK       I    between atoms: N_15  and  C_16 
REMARK    6  A    between atoms: C_16  and  C_17 
REMARK    7  A    between atoms: C_18  and  O_19 
ROOT
HETATM    1  C   UNL     1      41.933 -15.317   5.503  1.00  0.00     0.052 A 
HETATM    2  C   UNL     1      42.631 -14.103   5.648  1.00  0.00     0.062 A 
HETATM    3 CL   UNL     1      44.360 -13.998   5.670  1.00  0.00    -0.082 Cl
HETATM    4  C   UNL     1      41.946 -12.891   5.834  1.00  0.00     0.055 A 
HETATM    5  C   UNL     1      40.556 -12.849   5.889  1.00  0.00     0.036 A 
HETATM    6  C   UNL     1      39.862 -14.060   5.882  1.00  0.00     0.032 A 
HETATM    7  C   UNL     1      40.541 -15.269   5.685  1.00  0.00     0.033 A 
ENDROOT
BRANCH   5   8
HETATM    8  N   UNL     1      39.785 -11.669   5.963  1.00  0.00    -0.333 N 
HETATM    9  H   UNL     1      39.266 -11.439   5.112  1.00  0.00     0.168 HD
BRANCH   8  10
HETATM   10  C   UNL     1      39.729 -10.670   6.909  1.00  0.00     0.179 C 
HETATM   11  S   UNL     1      38.770  -9.302   6.973  1.00  0.00    -0.040 SA
BRANCH  10  12
HETATM   12  N   UNL     1      40.576 -10.845   7.988  1.00  0.00    -0.299 N 
HETATM   13  C   UNL     1      41.750 -10.184   8.320  1.00  0.00     0.260 C 
HETATM   14  O   UNL     1      42.290  -9.341   7.610  1.00  0.00    -0.267 OA
HETATM   15  H   UNL     1      40.263 -11.571   8.625  1.00  0.00     0.171 HD
BRANCH  13  16
HETATM   16  C   UNL     1      42.381 -10.635   9.585  1.00  0.00     0.066 A 
HETATM   17  C   UNL     1      41.750 -10.495  10.832  1.00  0.00     0.089 A 
HETATM   18  C   UNL     1      42.314 -11.063  11.985  1.00  0.00    -0.028 A 
HETATM   19  C   UNL     1      41.606 -10.997  13.309  1.00  0.00     0.051 C 
HETATM   20  C   UNL     1      43.540 -11.735  11.877  1.00  0.00     0.009 A 
HETATM   21  C   UNL     1      44.197 -11.827  10.647  1.00  0.00     0.002 A 
HETATM   22  C   UNL     1      43.621 -11.277   9.502  1.00  0.00     0.020 A 
BRANCH  17  23
HETATM   23  O   UNL     1      40.541  -9.856  10.958  1.00  0.00    -0.354 OA
HETATM   24  C   UNL     1      40.721  -8.438  11.072  1.00  0.00     0.210 C 
ENDBRANCH  17  23
ENDBRANCH  13  16
ENDBRANCH  10  12
ENDBRANCH   8  10
ENDBRANCH   5   8
BRANCH   1  25
HETATM   25  N   UNL     1      42.465 -16.558   5.142  1.00  0.00    -0.376 N 
HETATM   26  C   UNL     1      43.321 -17.205   6.156  1.00  0.00     0.143 C 
HETATM   27  C   UNL     1      43.471 -18.708   5.829  1.00  0.00     0.145 C 
HETATM   28  N   UNL     1      43.831 -18.975   4.426  1.00  0.00    -0.349 N 
HETATM   29  C   UNL     1      44.491 -20.164   4.138  1.00  0.00     0.219 C 
HETATM   30  C   UNL     1      43.058 -18.215   3.429  1.00  0.00     0.145 C 
HETATM   31  O   UNL     1      44.891 -20.920   5.025  1.00  0.00    -0.273 OA
HETATM   32  C   UNL     1      42.985 -16.719   3.773  1.00  0.00     0.143 C 
BRANCH  29  33
HETATM   33  C   UNL     1      44.719 -20.478   2.666  1.00  0.00     0.098 C 
HETATM   34  C   UNL     1      44.241 -21.867   2.279  1.00  0.00     0.014 C 
ENDBRANCH  29  33
ENDBRANCH   1  25
TORSDOF 7
ENDMDL
MODEL 5
REMARK VINA RESULT:      -8.3      2.448      2.853
REMARK  7 active torsions:
REMARK  status: ('A' for Active; 'I' for Inactive)
REMARK    1  A    between atoms: C_2  and  C_3 
REMARK       I    between atoms: C_3  and  N_4 
REMARK    2  A    between atoms: N_7  and  C_8 
REMARK    3  A    between atoms: C_12  and  N_13 
REMARK    4  A    between atoms: N_13  and  C_14 
REMARK    5  A    between atoms: C_14  and  N_15 
REMARK       I    between atoms: N_15  and  C_16 
REMARK    6  A    between atoms: C_16  and  C_17 
REMARK    7  A    between atoms: C_18  and  O_19 
ROOT
HETATM    1  C   UNL     1      39.349 -13.766   1.280  1.00  0.00     0.052 A 
HETATM    2  C   UNL     1      39.654 -13.241   2.549  1.00  0.00     0.062 A 
HETATM    3 CL   UNL     1      39.508 -11.559   2.941  1.00  0.00    -0.082 Cl
HETATM    4  C   UNL     1      40.149 -14.063   3.574  1.00  0.00     0.055 A 
HETATM    5  C   UNL     1      40.363 -15.423   3.369  1.00  0.00     0.036 A 
HETATM    6  C   UNL     1      40.192 -15.926   2.078  1.00  0.00     0.032 A 
HETATM    7  C   UNL     1      39.687 -15.112   1.057  1.00  0.00     0.033 A 
ENDROOT
BRANCH   5   8
HETATM    8  N   UNL     1      40.753 -16.341   4.368  1.00  0.00    -0.333 N 
HETATM    9  H   UNL     1      39.981 -16.771   4.883  1.00  0.00     0.168 HD
BRANCH   8  10
HETATM   10  C   UNL     1      41.985 -16.644   4.902  1.00  0.00     0.179 C 
HETATM   11  S   UNL     1      42.884 -15.837   6.057  1.00  0.00    -0.040 SA
BRANCH  10  12
HETATM   12  N   UNL     1      42.550 -17.815   4.429  1.00  0.00    -0.299 N 
HETATM   13  C   UNL     1      43.517 -18.011   3.453  1.00  0.00     0.260 C 
HETATM   14  O   UNL     1      43.989 -17.114   2.761  1.00  0.00    -0.267 OA
HETATM   15  H   UNL     1      42.188 -18.644   4.889  1.00  0.00     0.171 HD
BRANCH  13  16
HETATM   16  C   UNL     1      43.896 -19.428   3.231  1.00  0.00     0.066 A 
HETATM   17  C   UNL     1      44.502 -20.211   4.227  1.00  0.00     0.089 A 
HETATM   18  C   UNL     1      44.713 -21.584   4.026  1.00  0.00    -0.028 A 
HETATM   19  C   UNL     1      45.278 -22.450   5.117  1.00  0.00     0.051 C 
HETATM   20  C   UNL     1      44.348 -22.151   2.797  1.00  0.00     0.009 A 
HETATM   21  C   UNL     1      43.796 -21.363   1.784  1.00  0.00     0.002 A 
HETATM   22  C   UNL     1      43.571 -20.003   1.997  1.00  0.00     0.020 A 
BRANCH  17  23
HETATM   23  O   UNL     1      44.852 -19.679   5.444  1.00  0.00    -0.354 OA
HETATM   24  C   UNL     1      43.875 -20.001   6.443  1.00  0.00     0.210 C 
ENDBRANCH  17  23
ENDBRANCH  13  16
ENDBRANCH  10  12
ENDBRANCH   8  10
ENDBRANCH   5   8
BRANCH   1  25
HETATM   25  N   UNL     1      38.693 -13.114   0.231  1.00  0.00    -0.376 N 
HETATM   26  C   UNL     1      37.288 -12.744   0.490  1.00  0.00     0.143 C 
HETATM   27  C   UNL     1      36.835 -11.675  -0.530  1.00  0.00     0.145 C 
HETATM   28  N   UNL     1      37.159 -12.014  -1.926  1.00  0.00    -0.349 N 
HETATM   29  C   UNL     1      36.381 -11.449  -2.930  1.00  0.00     0.219 C 
HETATM   30  C   UNL     1      38.527 -12.513  -2.144  1.00  0.00     0.145 C 
HETATM   31  O   UNL     1      35.368 -10.794  -2.681  1.00  0.00    -0.273 OA
HETATM   32  C   UNL     1      38.908 -13.611  -1.139  1.00  0.00     0.143 C 
BRANCH  29  33
HETATM   33  C   UNL     1      36.830 -11.701  -4.363  1.00  0.00     0.098 C 
HETATM   34  C   UNL     1      35.819 -12.503  -5.165  1.00  0.00     0.014 C 
ENDBRANCH  29  33
ENDBRANCH   1  25
TORSDOF 7
ENDMDL
MODEL 6
REMARK VINA RESULT:      -8.3      5.821      8.325
REMARK  7 active torsions:
REMARK  status: ('A' for Active; 'I' for Inactive)
REMARK    1  A    between atoms: C_2  and  C_3 
REMARK       I    between atoms: C_3  and  N_4 
REMARK    2  A    between atoms: N_7  and  C_8 
REMARK    3  A    between atoms: C_12  and  N_13 
REMARK    4  A    between atoms: N_13  and  C_14 
REMARK    5  A    between atoms: C_14  and  N_15 
REMARK       I    between atoms: N_15  and  C_16 
REMARK    6  A    between atoms: C_16  and  C_17 
REMARK    7  A    between atoms: C_18  and  O_19 
ROOT
HETATM    1  C   UNL     1      40.514 -11.805   6.337  1.00  0.00     0.052 A 
HETATM    2  C   UNL     1      40.696 -11.119   5.123  1.00  0.00     0.062 A 
HETATM    3 CL   UNL     1      41.060  -9.427   5.033  1.00  0.00    -0.082 Cl
HETATM    4  C   UNL     1      40.542 -11.774   3.889  1.00  0.00     0.055 A 
HETATM    5  C   UNL     1      40.197 -13.121   3.826  1.00  0.00     0.036 A 
HETATM    6  C   UNL     1      39.883 -13.774   5.018  1.00  0.00     0.032 A 
HETATM    7  C   UNL     1      40.047 -13.128   6.250  1.00  0.00     0.033 A 
ENDROOT
BRANCH   5   8
HETATM    8  N   UNL     1      40.128 -13.883   2.640  1.00  0.00    -0.333 N 
HETATM    9  H   UNL     1      39.227 -14.338   2.472  1.00  0.00     0.168 HD
BRANCH   8  10
HETATM   10  C   UNL     1      41.098 -14.272   1.744  1.00  0.00     0.179 C 
HETATM   11  S   UNL     1      41.572 -13.573   0.302  1.00  0.00    -0.040 SA
BRANCH  10  12
HETATM   12  N   UNL     1      41.811 -15.398   2.115  1.00  0.00    -0.299 N 
HETATM   13  C   UNL     1      41.382 -16.703   2.312  1.00  0.00     0.260 C 
HETATM   14  O   UNL     1      40.209 -17.057   2.261  1.00  0.00    -0.267 OA
HETATM   15  H   UNL     1      42.800 -15.215   2.249  1.00  0.00     0.171 HD
BRANCH  13  16
HETATM   16  C   UNL     1      42.454 -17.659   2.686  1.00  0.00     0.066 A 
HETATM   17  C   UNL     1      43.154 -17.567   3.900  1.00  0.00     0.089 A 
HETATM   18  C   UNL     1      44.058 -18.571   4.280  1.00  0.00    -0.028 A 
HETATM   19  C   UNL     1      44.747 -18.530   5.616  1.00  0.00     0.051 C 
HETATM   20  C   UNL     1      44.282 -19.645   3.406  1.00  0.00     0.009 A 
HETATM   21  C   UNL     1      43.628 -19.710   2.173  1.00  0.00     0.002 A 
HETATM   22  C   UNL     1      42.717 -18.718   1.810  1.00  0.00     0.020 A 
BRANCH  17  23
HETATM   23  O   UNL     1      42.937 -16.532   4.777  1.00  0.00    -0.354 OA
HETATM   24  C   UNL     1      41.853 -16.834   5.665  1.00  0.00     0.210 C 
ENDBRANCH  17  23
ENDBRANCH  13  16
ENDBRANCH  10  12
ENDBRANCH   8  10
ENDBRANCH   5   8
BRANCH   1  25
HETATM   25  N   UNL     1      40.801 -11.337   7.623  1.00  0.00    -0.376 N 
HETATM   26  C   UNL     1      39.718 -10.582   8.282  1.00  0.00     0.143 C 
HETATM   27  C   UNL     1      39.983 -10.512   9.804  1.00  0.00     0.145 C 
HETATM   28  N   UNL     1      41.354 -10.095  10.146  1.00  0.00    -0.349 N 
HETATM   29  C   UNL     1      41.562  -9.500  11.386  1.00  0.00     0.219 C 
HETATM   30  C   UNL     1      42.419 -10.762   9.379  1.00  0.00     0.145 C 
HETATM   31  O   UNL     1      40.628  -9.198  12.130  1.00  0.00    -0.273 OA
HETATM   32  C   UNL     1      42.132 -10.755   7.869  1.00  0.00     0.143 C 
BRANCH  29  33
HETATM   33  C   UNL     1      43.007  -9.213  11.770  1.00  0.00     0.098 C 
HETATM   34  C   UNL     1      43.343  -9.669  13.179  1.00  0.00     0.014 C 
ENDBRANCH  29  33
ENDBRANCH   1  25
TORSDOF 7
ENDMDL
MODEL 7
REMARK VINA RESULT:      -8.2      3.128      4.081
REMARK  7 active torsions:
REMARK  status: ('A' for Active; 'I' for Inactive)
REMARK    1  A    between atoms: C_2  and  C_3 
REMARK       I    between atoms: C_3  and  N_4 
REMARK    2  A    between atoms: N_7  and  C_8 
REMARK    3  A    between atoms: C_12  and  N_13 
REMARK    4  A    between atoms: N_13  and  C_14 
REMARK    5  A    between atoms: C_14  and  N_15 
REMARK       I    between atoms: N_15  and  C_16 
REMARK    6  A    between atoms: C_16  and  C_17 
REMARK    7  A    between atoms: C_18  and  O_19 
ROOT
HETATM    1  C   UNL     1      38.998 -13.502  -1.475  1.00  0.00     0.052 A 
HETATM    2  C   UNL     1      38.819 -13.701  -0.094  1.00  0.00     0.062 A 
HETATM    3 CL   UNL     1      37.266 -13.692   0.675  1.00  0.00    -0.082 Cl
HETATM    4  C   UNL     1      39.920 -13.874   0.762  1.00  0.00     0.055 A 
HETATM    5  C   UNL     1      41.223 -13.847   0.276  1.00  0.00     0.036 A 
HETATM    6  C   UNL     1      41.416 -13.517  -1.066  1.00  0.00     0.032 A 
HETATM    7  C   UNL     1      40.321 -13.355  -1.925  1.00  0.00     0.033 A 
ENDROOT
BRANCH   5   8
HETATM    8  N   UNL     1      42.378 -14.119   1.041  1.00  0.00    -0.333 N 
HETATM    9  H   UNL     1      43.229 -14.279   0.496  1.00  0.00     0.168 HD
BRANCH   8  10
HETATM   10  C   UNL     1      42.546 -14.380   2.383  1.00  0.00     0.179 C 
HETATM   11  S   UNL     1      42.272 -13.401   3.710  1.00  0.00    -0.040 SA
BRANCH  10  12
HETATM   12  N   UNL     1      42.979 -15.660   2.675  1.00  0.00    -0.299 N 
HETATM   13  C   UNL     1      42.411 -16.888   2.366  1.00  0.00     0.260 C 
HETATM   14  O   UNL     1      41.321 -17.025   1.820  1.00  0.00    -0.267 OA
HETATM   15  H   UNL     1      43.854 -15.676   3.188  1.00  0.00     0.171 HD
BRANCH  13  16
HETATM   16  C   UNL     1      43.186 -18.065   2.831  1.00  0.00     0.066 A 
HETATM   17  C   UNL     1      43.515 -18.264   4.182  1.00  0.00     0.089 A 
HETATM   18  C   UNL     1      44.123 -19.458   4.600  1.00  0.00    -0.028 A 
HETATM   19  C   UNL     1      44.399 -19.720   6.055  1.00  0.00     0.051 C 
HETATM   20  C   UNL     1      44.435 -20.430   3.639  1.00  0.00     0.009 A 
HETATM   21  C   UNL     1      44.160 -20.211   2.287  1.00  0.00     0.002 A 
HETATM   22  C   UNL     1      43.538 -19.030   1.881  1.00  0.00     0.020 A 
BRANCH  17  23
HETATM   23  O   UNL     1      43.203 -17.332   5.142  1.00  0.00    -0.354 OA
HETATM   24  C   UNL     1      41.851 -17.492   5.589  1.00  0.00     0.210 C 
ENDBRANCH  17  23
ENDBRANCH  13  16
ENDBRANCH  10  12
ENDBRANCH   8  10
ENDBRANCH   5   8
BRANCH   1  25
HETATM   25  N   UNL     1      38.007 -13.490  -2.461  1.00  0.00    -0.376 N 
HETATM   26  C   UNL     1      38.043 -14.616  -3.415  1.00  0.00     0.143 C 
HETATM   27  C   UNL     1      36.685 -14.725  -4.144  1.00  0.00     0.145 C 
HETATM   28  N   UNL     1      36.201 -13.444  -4.686  1.00  0.00    -0.349 N 
HETATM   29  C   UNL     1      35.324 -13.484  -5.765  1.00  0.00     0.219 C 
HETATM   30  C   UNL     1      36.300 -12.299  -3.765  1.00  0.00     0.145 C 
HETATM   31  O   UNL     1      35.055 -14.534  -6.349  1.00  0.00    -0.273 OA
HETATM   32  C   UNL     1      37.686 -12.206  -3.109  1.00  0.00     0.143 C 
BRANCH  29  33
HETATM   33  C   UNL     1      34.729 -12.154  -6.209  1.00  0.00     0.098 C 
HETATM   34  C   UNL     1      33.285 -11.980  -5.771  1.00  0.00     0.014 C 
ENDBRANCH  29  33
ENDBRANCH   1  25
TORSDOF 7
ENDMDL
MODEL 8
REMARK VINA RESULT:      -8.1      3.553      4.265
REMARK  7 active torsions:
REMARK  status: ('A' for Active; 'I' for Inactive)
REMARK    1  A    between atoms: C_2  and  C_3 
REMARK       I    between atoms: C_3  and  N_4 
REMARK    2  A    between atoms: N_7  and  C_8 
REMARK    3  A    between atoms: C_12  and  N_13 
REMARK    4  A    between atoms: N_13  and  C_14 
REMARK    5  A    between atoms: C_14  and  N_15 
REMARK       I    between atoms: N_15  and  C_16 
REMARK    6  A    between atoms: C_16  and  C_17 
REMARK    7  A    between atoms: C_18  and  O_19 
ROOT
HETATM    1  C   UNL     1      40.086 -13.800   2.466  1.00  0.00     0.052 A 
HETATM    2  C   UNL     1      41.119 -14.420   1.739  1.00  0.00     0.062 A 
HETATM    3 CL   UNL     1      41.157 -14.481   0.008  1.00  0.00    -0.082 Cl
HETATM    4  C   UNL     1      42.172 -15.080   2.394  1.00  0.00     0.055 A 
HETATM    5  C   UNL     1      42.226 -15.149   3.783  1.00  0.00     0.036 A 
HETATM    6  C   UNL     1      41.141 -14.655   4.508  1.00  0.00     0.032 A 
HETATM    7  C   UNL     1      40.095 -13.987   3.859  1.00  0.00     0.033 A 
ENDROOT
BRANCH   5   8
HETATM    8  N   UNL     1      43.298 -15.693   4.524  1.00  0.00    -0.333 N 
HETATM    9  H   UNL     1      44.229 -15.450   4.179  1.00  0.00     0.168 HD
BRANCH   8  10
HETATM   10  C   UNL     1      43.330 -16.634   5.529  1.00  0.00     0.179 C 
HETATM   11  S   UNL     1      43.090 -16.458   7.174  1.00  0.00    -0.040 SA
BRANCH  10  12
HETATM   12  N   UNL     1      43.567 -17.929   5.105  1.00  0.00    -0.299 N 
HETATM   13  C   UNL     1      44.649 -18.764   5.344  1.00  0.00     0.260 C 
HETATM   14  O   UNL     1      45.663 -18.423   5.943  1.00  0.00    -0.267 OA
HETATM   15  H   UNL     1      42.813 -18.305   4.539  1.00  0.00     0.171 HD
BRANCH  13  16
HETATM   16  C   UNL     1      44.537 -20.113   4.735  1.00  0.00     0.066 A 
HETATM   17  C   UNL     1      44.400 -20.305   3.350  1.00  0.00     0.089 A 
HETATM   18  C   UNL     1      44.442 -21.596   2.801  1.00  0.00    -0.028 A 
HETATM   19  C   UNL     1      44.385 -21.809   1.314  1.00  0.00     0.051 C 
HETATM   20  C   UNL     1      44.580 -22.693   3.663  1.00  0.00     0.009 A 
HETATM   21  C   UNL     1      44.661 -22.508   5.046  1.00  0.00     0.002 A 
HETATM   22  C   UNL     1      44.638 -21.221   5.583  1.00  0.00     0.020 A 
BRANCH  17  23
HETATM   23  O   UNL     1      44.280 -19.244   2.486  1.00  0.00    -0.354 OA
HETATM   24  C   UNL     1      42.907 -19.015   2.144  1.00  0.00     0.210 C 
ENDBRANCH  17  23
ENDBRANCH  13  16
ENDBRANCH  10  12
ENDBRANCH   8  10
ENDBRANCH   5   8
BRANCH   1  25
HETATM   25  N   UNL     1      39.081 -12.968   1.963  1.00  0.00    -0.376 N 
HETATM   26  C   UNL     1      38.646 -11.879   2.859  1.00  0.00     0.143 C 
HETATM   27  C   UNL     1      37.888 -10.806   2.045  1.00  0.00     0.145 C 
HETATM   28  N   UNL     1      36.848 -11.359   1.161  1.00  0.00    -0.349 N 
HETATM   29  C   UNL     1      35.790 -10.531   0.804  1.00  0.00     0.219 C 
HETATM   30  C   UNL     1      37.260 -12.534   0.374  1.00  0.00     0.145 C 
HETATM   31  O   UNL     1      35.635  -9.417   1.306  1.00  0.00    -0.273 OA
HETATM   32  C   UNL     1      37.960 -13.592   1.240  1.00  0.00     0.143 C 
BRANCH  29  33
HETATM   33  C   UNL     1      34.811 -11.082  -0.223  1.00  0.00     0.098 C 
HETATM   34  C   UNL     1      34.884 -10.356  -1.555  1.00  0.00     0.014 C 
ENDBRANCH  29  33
ENDBRANCH   1  25
TORSDOF 7
ENDMDL
MODEL 9
REMARK VINA RESULT:      -8.1      5.326      7.401
REMARK  7 active torsions:
REMARK  status: ('A' for Active; 'I' for Inactive)
REMARK    1  A    between atoms: C_2  and  C_3 
REMARK       I    between atoms: C_3  and  N_4 
REMARK    2  A    between atoms: N_7  and  C_8 
REMARK    3  A    between atoms: C_12  and  N_13 
REMARK    4  A    between atoms: N_13  and  C_14 
REMARK    5  A    between atoms: C_14  and  N_15 
REMARK       I    between atoms: N_15  and  C_16 
REMARK    6  A    between atoms: C_16  and  C_17 
REMARK    7  A    between atoms: C_18  and  O_19 
ROOT
HETATM    1  C   UNL     1      40.769 -12.967   5.790  1.00  0.00     0.052 A 
HETATM    2  C   UNL     1      41.847 -13.831   5.521  1.00  0.00     0.062 A 
HETATM    3 CL   UNL     1      43.385 -13.707   6.310  1.00  0.00    -0.082 Cl
HETATM    4  C   UNL     1      41.746 -14.833   4.541  1.00  0.00     0.055 A 
HETATM    5  C   UNL     1      40.580 -15.000   3.798  1.00  0.00     0.036 A 
HETATM    6  C   UNL     1      39.558 -14.065   3.963  1.00  0.00     0.032 A 
HETATM    7  C   UNL     1      39.650 -13.073   4.947  1.00  0.00     0.033 A 
ENDROOT
BRANCH   5   8
HETATM    8  N   UNL     1      40.353 -16.044   2.875  1.00  0.00    -0.333 N 
HETATM    9  H   UNL     1      39.434 -16.487   2.944  1.00  0.00     0.168 HD
BRANCH   8  10
HETATM   10  C   UNL     1      41.197 -16.696   2.005  1.00  0.00     0.179 C 
HETATM   11  S   UNL     1      41.431 -16.476   0.365  1.00  0.00    -0.040 SA
BRANCH  10  12
HETATM   12  N   UNL     1      41.998 -17.662   2.589  1.00  0.00    -0.299 N 
HETATM   13  C   UNL     1      43.363 -17.660   2.838  1.00  0.00     0.260 C 
HETATM   14  O   UNL     1      44.128 -16.771   2.477  1.00  0.00    -0.267 OA
HETATM   15  H   UNL     1      41.480 -18.485   2.877  1.00  0.00     0.171 HD
BRANCH  13  16
HETATM   16  C   UNL     1      43.872 -18.880   3.512  1.00  0.00     0.066 A 
HETATM   17  C   UNL     1      43.729 -19.092   4.893  1.00  0.00     0.089 A 
HETATM   18  C   UNL     1      44.094 -20.319   5.468  1.00  0.00    -0.028 A 
HETATM   19  C   UNL     1      43.864 -20.591   6.929  1.00  0.00     0.051 C 
HETATM   20  C   UNL     1      44.645 -21.313   4.647  1.00  0.00     0.009 A 
HETATM   21  C   UNL     1      44.839 -21.085   3.283  1.00  0.00     0.002 A 
HETATM   22  C   UNL     1      44.456 -19.870   2.714  1.00  0.00     0.020 A 
BRANCH  17  23
HETATM   23  O   UNL     1      43.177 -18.138   5.713  1.00  0.00    -0.354 OA
HETATM   24  C   UNL     1      44.192 -17.290   6.266  1.00  0.00     0.210 C 
ENDBRANCH  17  23
ENDBRANCH  13  16
ENDBRANCH  10  12
ENDBRANCH   8  10
ENDBRANCH   5   8
BRANCH   1  25
HETATM   25  N   UNL     1      40.664 -12.052   6.841  1.00  0.00    -0.376 N 
HETATM   26  C   UNL     1      39.326 -11.933   7.452  1.00  0.00     0.143 C 
HETATM   27  C   UNL     1      39.443 -11.253   8.835  1.00  0.00     0.145 C 
HETATM   28  N   UNL     1      40.251 -10.022   8.823  1.00  0.00    -0.349 N 
HETATM   29  C   UNL     1      40.008  -9.074   9.810  1.00  0.00     0.219 C 
HETATM   30  C   UNL     1      41.525 -10.119   8.090  1.00  0.00     0.145 C 
HETATM   31  O   UNL     1      39.064  -9.176  10.595  1.00  0.00    -0.273 OA
HETATM   32  C   UNL     1      41.343 -10.752   6.701  1.00  0.00     0.143 C 
BRANCH  29  33
HETATM   33  C   UNL     1      40.954  -7.882   9.859  1.00  0.00     0.098 C 
HETATM   34  C   UNL     1      41.626  -7.718  11.211  1.00  0.00     0.014 C 
ENDBRANCH  29  33
ENDBRANCH   1  25
TORSDOF 7
ENDMDL
MODEL 10
REMARK VINA RESULT:      -8.0      5.836      8.379
REMARK  7 active torsions:
REMARK  status: ('A' for Active; 'I' for Inactive)
REMARK    1  A    between atoms: C_2  and  C_3 
REMARK       I    between atoms: C_3  and  N_4 
REMARK    2  A    between atoms: N_7  and  C_8 
REMARK    3  A    between atoms: C_12  and  N_13 
REMARK    4  A    between atoms: N_13  and  C_14 
REMARK    5  A    between atoms: C_14  and  N_15 
REMARK       I    between atoms: N_15  and  C_16 
REMARK    6  A    between atoms: C_16  and  C_17 
REMARK    7  A    between atoms: C_18  and  O_19 
ROOT
HETATM    1  C   UNL     1      42.791 -12.492   6.558  1.00  0.00     0.052 A 
HETATM    2  C   UNL     1      43.566 -13.617   6.222  1.00  0.00     0.062 A 
HETATM    3 CL   UNL     1      44.768 -14.290   7.274  1.00  0.00    -0.082 Cl
HETATM    4  C   UNL     1      43.438 -14.238   4.969  1.00  0.00     0.055 A 
HETATM    5  C   UNL     1      42.546 -13.758   4.014  1.00  0.00     0.036 A 
HETATM    6  C   UNL     1      41.873 -12.567   4.286  1.00  0.00     0.032 A 
HETATM    7  C   UNL     1      41.989 -11.951   5.538  1.00  0.00     0.033 A 
ENDROOT
BRANCH   5   8
HETATM    8  N   UNL     1      42.274 -14.381   2.777  1.00  0.00    -0.333 N 
HETATM    9  H   UNL     1      42.568 -13.850   1.953  1.00  0.00     0.168 HD
BRANCH   8  10
HETATM   10  C   UNL     1      41.533 -15.496   2.457  1.00  0.00     0.179 C 
HETATM   11  S   UNL     1      39.950 -15.622   1.935  1.00  0.00    -0.040 SA
BRANCH  10  12
HETATM   12  N   UNL     1      42.218 -16.694   2.552  1.00  0.00    -0.299 N 
HETATM   13  C   UNL     1      42.107 -17.716   3.485  1.00  0.00     0.260 C 
HETATM   14  O   UNL     1      41.390 -17.665   4.479  1.00  0.00    -0.267 OA
HETATM   15  H   UNL     1      42.895 -16.825   1.808  1.00  0.00     0.171 HD
BRANCH  13  16
HETATM   16  C   UNL     1      43.002 -18.874   3.246  1.00  0.00     0.066 A 
HETATM   17  C   UNL     1      43.710 -19.505   4.283  1.00  0.00     0.089 A 
HETATM   18  C   UNL     1      44.432 -20.684   4.040  1.00  0.00    -0.028 A 
HETATM   19  C   UNL     1      45.119 -21.418   5.157  1.00  0.00     0.051 C 
HETATM   20  C   UNL     1      44.470 -21.196   2.735  1.00  0.00     0.009 A 
HETATM   21  C   UNL     1      43.813 -20.540   1.691  1.00  0.00     0.002 A 
HETATM   22  C   UNL     1      43.081 -19.379   1.944  1.00  0.00     0.020 A 
BRANCH  17  23
HETATM   23  O   UNL     1      43.672 -19.030   5.571  1.00  0.00    -0.354 OA
HETATM   24  C   UNL     1      44.702 -18.056   5.788  1.00  0.00     0.210 C 
ENDBRANCH  17  23
ENDBRANCH  13  16
ENDBRANCH  10  12
ENDBRANCH   8  10
ENDBRANCH   5   8
BRANCH   1  25
HETATM   25  N   UNL     1      42.684 -11.884   7.813  1.00  0.00    -0.376 N 
HETATM   26  C   UNL     1      41.784 -10.716   7.882  1.00  0.00     0.143 C 
HETATM   27  C   UNL     1      41.420 -10.426   9.355  1.00  0.00     0.145 C 
HETATM   28  N   UNL     1      42.584 -10.388  10.256  1.00  0.00    -0.349 N 
HETATM   29  C   UNL     1      42.477  -9.648  11.428  1.00  0.00     0.219 C 
HETATM   30  C   UNL     1      43.545 -11.490  10.079  1.00  0.00     0.145 C 
HETATM   31  O   UNL     1      41.502  -8.931  11.660  1.00  0.00    -0.273 OA
HETATM   32  C   UNL     1      43.915 -11.701   8.603  1.00  0.00     0.143 C 
BRANCH  29  33
HETATM   33  C   UNL     1      43.640  -9.746  12.405  1.00  0.00     0.098 C 
HETATM   34  C   UNL     1      43.239  -9.415  13.833  1.00  0.00     0.014 C 
ENDBRANCH  29  33
ENDBRANCH   1  25
TORSDOF 7
ENDMDL
