MODEL 1
REMARK VINA RESULT:      -7.9      0.000      0.000
REMARK  3 active torsions:
REMARK  status: ('A' for Active; 'I' for Inactive)
REMARK    1  A    between atoms: N_6  and  C_7 
REMARK    2  A    between atoms: C_7  and  C_8 
REMARK    3  A    between atoms: N_10  and  C_11 
ROOT
HETATM    1  C   UNL     1      44.146 -19.745   4.095  1.00  0.00     0.073 A 
HETATM    2  C   UNL     1      44.373 -21.117   4.372  1.00  0.00     0.062 A 
HETATM    3 CL   UNL     1      44.406 -21.781   5.970  1.00  0.00    -0.082 Cl
HETATM    4  C   UNL     1      44.518 -22.059   3.338  1.00  0.00     0.026 A 
HETATM    5  C   UNL     1      44.411 -21.679   2.006  1.00  0.00     0.003 A 
HETATM    6  C   UNL     1      44.147 -20.353   1.699  1.00  0.00     0.025 A 
HETATM    7  C   UNL     1      44.017 -19.395   2.721  1.00  0.00     0.072 A 
HETATM    8  C   UNL     1      43.739 -18.046   2.306  1.00  0.00     0.102 C 
HETATM    9  N   UNL     1      43.475 -16.977   1.932  1.00  0.00    -0.191 NA
ENDROOT
BRANCH   1  10
HETATM   10  N   UNL     1      44.047 -18.720   5.062  1.00  0.00    -0.378 N 
HETATM   11  C   UNL     1      42.741 -18.644   5.740  1.00  0.00     0.129 C 
HETATM   12  C   UNL     1      42.562 -17.223   6.330  1.00  0.00     0.032 C 
HETATM   13  C   UNL     1      43.735 -16.908   7.276  1.00  0.00     0.009 C 
HETATM   14  C   UNL     1      45.094 -17.122   6.602  1.00  0.00     0.020 C 
HETATM   15  C   UNL     1      45.188 -18.516   5.975  1.00  0.00     0.123 C 
BRANCH  12  16
HETATM   16  C   UNL     1      42.439 -16.197   5.181  1.00  0.00     0.278 C 
BRANCH  16  17
HETATM   17  N   UNL     1      42.368 -14.782   5.606  1.00  0.00     0.092 N 
HETATM   18  C   UNL     1      41.107 -14.129   5.204  1.00  0.00     0.300 C 
HETATM   19  C   UNL     1      40.963 -13.845   3.691  1.00  0.00     0.264 C 
HETATM   20  N   UNL     1      42.177 -13.101   3.159  1.00  0.00    -0.072 N 
HETATM   21  C   UNL     1      42.094 -12.887   1.678  1.00  0.00     0.269 C 
HETATM   22  H   UNL     1      42.188 -12.179   3.613  1.00  0.00     0.279 HD
HETATM   23  C   UNL     1      43.480 -13.788   3.547  1.00  0.00     0.264 C 
HETATM   24  C   UNL     1      43.519 -14.021   5.070  1.00  0.00     0.300 C 
ENDBRANCH  16  17
ENDBRANCH  12  16
ENDBRANCH   1  10
TORSDOF 3
ENDMDL
MODEL 2
REMARK VINA RESULT:      -7.7      1.217      1.328
REMARK  3 active torsions:
REMARK  status: ('A' for Active; 'I' for Inactive)
REMARK    1  A    between atoms: N_6  and  C_7 
REMARK    2  A    between atoms: C_7  and  C_8 
REMARK    3  A    between atoms: N_10  and  C_11 
ROOT
HETATM    1  C   UNL     1      44.164 -19.761   4.611  1.00  0.00     0.073 A 
HETATM    2  C   UNL     1      44.240 -21.044   5.210  1.00  0.00     0.062 A 
HETATM    3 CL   UNL     1      43.950 -21.338   6.890  1.00  0.00    -0.082 Cl
HETATM    4  C   UNL     1      44.492 -22.196   4.444  1.00  0.00     0.026 A 
HETATM    5  C   UNL     1      44.644 -22.118   3.066  1.00  0.00     0.003 A 
HETATM    6  C   UNL     1      44.534 -20.885   2.440  1.00  0.00     0.025 A 
HETATM    7  C   UNL     1      44.299 -19.721   3.194  1.00  0.00     0.072 A 
HETATM    8  C   UNL     1      44.195 -18.488   2.458  1.00  0.00     0.102 C 
HETATM    9  N   UNL     1      44.077 -17.521   1.824  1.00  0.00    -0.191 NA
ENDROOT
BRANCH   1  10
HETATM   10  N   UNL     1      43.975 -18.544   5.303  1.00  0.00    -0.378 N 
HETATM   11  C   UNL     1      42.580 -18.276   5.697  1.00  0.00     0.129 C 
HETATM   12  C   UNL     1      42.407 -16.754   5.929  1.00  0.00     0.032 C 
HETATM   13  C   UNL     1      43.419 -16.277   6.987  1.00  0.00     0.009 C 
HETATM   14  C   UNL     1      44.855 -16.680   6.636  1.00  0.00     0.020 C 
HETATM   15  C   UNL     1      44.953 -18.181   6.347  1.00  0.00     0.123 C 
BRANCH  12  16
HETATM   16  C   UNL     1      42.559 -16.005   4.585  1.00  0.00     0.278 C 
BRANCH  16  17
HETATM   17  N   UNL     1      41.646 -14.856   4.399  1.00  0.00     0.092 N 
HETATM   18  C   UNL     1      40.373 -15.239   3.758  1.00  0.00     0.300 C 
HETATM   19  C   UNL     1      40.472 -15.604   2.259  1.00  0.00     0.264 C 
HETATM   20  N   UNL     1      41.192 -14.515   1.479  1.00  0.00    -0.072 N 
HETATM   21  C   UNL     1      41.370 -14.887   0.038  1.00  0.00     0.269 C 
HETATM   22  H   UNL     1      40.600 -13.676   1.520  1.00  0.00     0.279 HD
HETATM   23  C   UNL     1      42.520 -14.138   2.122  1.00  0.00     0.264 C 
HETATM   24  C   UNL     1      42.306 -13.792   3.608  1.00  0.00     0.300 C 
ENDBRANCH  16  17
ENDBRANCH  12  16
ENDBRANCH   1  10
TORSDOF 3
ENDMDL
MODEL 3
REMARK VINA RESULT:      -7.5      2.445      3.610
REMARK  3 active torsions:
REMARK  status: ('A' for Active; 'I' for Inactive)
REMARK    1  A    between atoms: N_6  and  C_7 
REMARK    2  A    between atoms: C_7  and  C_8 
REMARK    3  A    between atoms: N_10  and  C_11 
ROOT
HETATM    1  C   UNL     1      43.830 -19.092   4.501  1.00  0.00     0.073 A 
HETATM    2  C   UNL     1      44.146 -19.561   3.200  1.00  0.00     0.062 A 
HETATM    3 CL   UNL     1      44.034 -18.585   1.776  1.00  0.00    -0.082 Cl
HETATM    4  C   UNL     1      44.650 -20.857   2.991  1.00  0.00     0.026 A 
HETATM    5  C   UNL     1      44.886 -21.712   4.059  1.00  0.00     0.003 A 
HETATM    6  C   UNL     1      44.629 -21.273   5.348  1.00  0.00     0.025 A 
HETATM    7  C   UNL     1      44.108 -19.986   5.574  1.00  0.00     0.072 A 
HETATM    8  C   UNL     1      43.878 -19.617   6.946  1.00  0.00     0.102 C 
HETATM    9  N   UNL     1      43.744 -19.342   8.068  1.00  0.00    -0.191 NA
ENDROOT
BRANCH   1  10
HETATM   10  N   UNL     1      43.265 -17.833   4.804  1.00  0.00    -0.378 N 
HETATM   11  C   UNL     1      41.811 -17.857   5.042  1.00  0.00     0.129 C 
HETATM   12  C   UNL     1      41.242 -16.434   4.818  1.00  0.00     0.032 C 
HETATM   13  C   UNL     1      41.973 -15.437   5.736  1.00  0.00     0.009 C 
HETATM   14  C   UNL     1      43.495 -15.516   5.580  1.00  0.00     0.020 C 
HETATM   15  C   UNL     1      43.994 -16.955   5.740  1.00  0.00     0.123 C 
BRANCH  12  16
HETATM   16  C   UNL     1      41.363 -16.057   3.323  1.00  0.00     0.278 C 
BRANCH  16  17
HETATM   17  N   UNL     1      40.299 -16.599   2.450  1.00  0.00     0.092 N 
HETATM   18  C   UNL     1      40.835 -17.332   1.287  1.00  0.00     0.300 C 
HETATM   19  C   UNL     1      41.498 -16.455   0.200  1.00  0.00     0.264 C 
HETATM   20  N   UNL     1      40.574 -15.324  -0.223  1.00  0.00    -0.072 N 
HETATM   21  C   UNL     1      41.229 -14.413  -1.218  1.00  0.00     0.269 C 
HETATM   22  H   UNL     1      39.759 -15.755  -0.677  1.00  0.00     0.279 HD
HETATM   23  C   UNL     1      40.042 -14.546   0.973  1.00  0.00     0.264 C 
HETATM   24  C   UNL     1      39.404 -15.513   1.988  1.00  0.00     0.300 C 
ENDBRANCH  16  17
ENDBRANCH  12  16
ENDBRANCH   1  10
TORSDOF 3
ENDMDL
MODEL 4
REMARK VINA RESULT:      -7.5      2.478      3.911
REMARK  3 active torsions:
REMARK  status: ('A' for Active; 'I' for Inactive)
REMARK    1  A    between atoms: N_6  and  C_7 
REMARK    2  A    between atoms: C_7  and  C_8 
REMARK    3  A    between atoms: N_10  and  C_11 
ROOT
HETATM    1  C   UNL     1      43.371 -17.418   4.928  1.00  0.00     0.073 A 
HETATM    2  C   UNL     1      43.315 -18.101   6.170  1.00  0.00     0.062 A 
HETATM    3 CL   UNL     1      42.557 -17.457   7.586  1.00  0.00    -0.082 Cl
HETATM    4  C   UNL     1      43.821 -19.405   6.312  1.00  0.00     0.026 A 
HETATM    5  C   UNL     1      44.365 -20.082   5.229  1.00  0.00     0.003 A 
HETATM    6  C   UNL     1      44.398 -19.462   3.989  1.00  0.00     0.025 A 
HETATM    7  C   UNL     1      43.912 -18.151   3.834  1.00  0.00     0.072 A 
HETATM    8  C   UNL     1      43.984 -17.591   2.510  1.00  0.00     0.102 C 
HETATM    9  N   UNL     1      44.022 -17.191   1.419  1.00  0.00    -0.191 NA
ENDROOT
BRANCH   1  10
HETATM   10  N   UNL     1      42.944 -16.090   4.704  1.00  0.00    -0.378 N 
HETATM   11  C   UNL     1      41.482 -15.911   4.704  1.00  0.00     0.129 C 
HETATM   12  C   UNL     1      41.135 -14.612   3.933  1.00  0.00     0.032 C 
HETATM   13  C   UNL     1      41.874 -13.422   4.572  1.00  0.00     0.009 C 
HETATM   14  C   UNL     1      43.380 -13.675   4.693  1.00  0.00     0.020 C 
HETATM   15  C   UNL     1      43.664 -15.005   5.398  1.00  0.00     0.123 C 
BRANCH  12  16
HETATM   16  C   UNL     1      41.483 -14.789   2.437  1.00  0.00     0.278 C 
BRANCH  16  17
HETATM   17  N   UNL     1      40.668 -15.791   1.716  1.00  0.00     0.092 N 
HETATM   18  C   UNL     1      41.013 -15.881   0.284  1.00  0.00     0.300 C 
HETATM   19  C   UNL     1      40.576 -14.675  -0.578  1.00  0.00     0.264 C 
HETATM   20  N   UNL     1      39.102 -14.363  -0.371  1.00  0.00    -0.072 N 
HETATM   21  C   UNL     1      38.677 -13.147  -1.137  1.00  0.00     0.269 C 
HETATM   22  H   UNL     1      38.572 -15.166  -0.732  1.00  0.00     0.279 HD
HETATM   23  C   UNL     1      38.748 -14.240   1.105  1.00  0.00     0.264 C 
HETATM   24  C   UNL     1      39.226 -15.492   1.866  1.00  0.00     0.300 C 
ENDBRANCH  16  17
ENDBRANCH  12  16
ENDBRANCH   1  10
TORSDOF 3
ENDMDL
MODEL 5
REMARK VINA RESULT:      -6.9      2.689      4.101
REMARK  3 active torsions:
REMARK  status: ('A' for Active; 'I' for Inactive)
REMARK    1  A    between atoms: N_6  and  C_7 
REMARK    2  A    between atoms: C_7  and  C_8 
REMARK    3  A    between atoms: N_10  and  C_11 
ROOT
HETATM    1  C   UNL     1      42.956 -17.199   3.367  1.00  0.00     0.073 A 
HETATM    2  C   UNL     1      43.523 -18.029   4.367  1.00  0.00     0.062 A 
HETATM    3 CL   UNL     1      43.500 -17.649   6.055  1.00  0.00    -0.082 Cl
HETATM    4  C   UNL     1      44.088 -19.277   4.050  1.00  0.00     0.026 A 
HETATM    5  C   UNL     1      44.082 -19.752   2.745  1.00  0.00     0.003 A 
HETATM    6  C   UNL     1      43.499 -18.987   1.748  1.00  0.00     0.025 A 
HETATM    7  C   UNL     1      42.944 -17.728   2.045  1.00  0.00     0.072 A 
HETATM    8  C   UNL     1      42.357 -17.008   0.946  1.00  0.00     0.102 C 
HETATM    9  N   UNL     1      41.858 -16.477   0.041  1.00  0.00    -0.191 NA
ENDROOT
BRANCH   1  10
HETATM   10  N   UNL     1      42.420 -15.909   3.579  1.00  0.00    -0.378 N 
HETATM   11  C   UNL     1      41.088 -15.898   4.208  1.00  0.00     0.129 C 
HETATM   12  C   UNL     1      40.395 -14.548   3.895  1.00  0.00     0.032 C 
HETATM   13  C   UNL     1      41.285 -13.389   4.380  1.00  0.00     0.009 C 
HETATM   14  C   UNL     1      42.711 -13.485   3.828  1.00  0.00     0.020 C 
HETATM   15  C   UNL     1      43.320 -14.863   4.103  1.00  0.00     0.123 C 
BRANCH  12  16
HETATM   16  C   UNL     1      40.087 -14.463   2.382  1.00  0.00     0.278 C 
BRANCH  16  17
HETATM   17  N   UNL     1      39.714 -13.119   1.891  1.00  0.00     0.092 N 
HETATM   18  C   UNL     1      38.267 -12.988   1.632  1.00  0.00     0.300 C 
HETATM   19  C   UNL     1      37.745 -13.756   0.397  1.00  0.00     0.264 C 
HETATM   20  N   UNL     1      38.570 -13.428  -0.837  1.00  0.00    -0.072 N 
HETATM   21  C   UNL     1      38.131 -14.224  -2.029  1.00  0.00     0.269 C 
HETATM   22  H   UNL     1      38.417 -12.433  -1.046  1.00  0.00     0.279 HD
HETATM   23  C   UNL     1      40.063 -13.590  -0.583  1.00  0.00     0.264 C 
HETATM   24  C   UNL     1      40.475 -12.785   0.665  1.00  0.00     0.300 C 
ENDBRANCH  16  17
ENDBRANCH  12  16
ENDBRANCH   1  10
TORSDOF 3
ENDMDL
MODEL 6
REMARK VINA RESULT:      -6.9      2.748      4.817
REMARK  3 active torsions:
REMARK  status: ('A' for Active; 'I' for Inactive)
REMARK    1  A    between atoms: N_6  and  C_7 
REMARK    2  A    between atoms: C_7  and  C_8 
REMARK    3  A    between atoms: N_10  and  C_11 
ROOT
HETATM    1  C   UNL     1      42.355 -17.291   3.368  1.00  0.00     0.073 A 
HETATM    2  C   UNL     1      43.337 -17.973   2.606  1.00  0.00     0.062 A 
HETATM    3 CL   UNL     1      43.755 -17.549   0.981  1.00  0.00    -0.082 Cl
HETATM    4  C   UNL     1      44.101 -19.016   3.159  1.00  0.00     0.026 A 
HETATM    5  C   UNL     1      43.941 -19.391   4.487  1.00  0.00     0.003 A 
HETATM    6  C   UNL     1      43.020 -18.718   5.275  1.00  0.00     0.025 A 
HETATM    7  C   UNL     1      42.235 -17.684   4.732  1.00  0.00     0.072 A 
HETATM    8  C   UNL     1      41.310 -17.041   5.627  1.00  0.00     0.102 C 
HETATM    9  N   UNL     1      40.606 -16.520   6.391  1.00  0.00    -0.191 NA
ENDROOT
BRANCH   1  10
HETATM   10  N   UNL     1      41.501 -16.275   2.884  1.00  0.00    -0.378 N 
HETATM   11  C   UNL     1      42.187 -15.023   2.519  1.00  0.00     0.129 C 
HETATM   12  C   UNL     1      41.161 -13.863   2.539  1.00  0.00     0.032 C 
HETATM   13  C   UNL     1      39.994 -14.193   1.590  1.00  0.00     0.009 C 
HETATM   14  C   UNL     1      39.373 -15.561   1.891  1.00  0.00     0.020 C 
HETATM   15  C   UNL     1      40.442 -16.657   1.930  1.00  0.00     0.123 C 
BRANCH  12  16
HETATM   16  C   UNL     1      40.689 -13.614   3.990  1.00  0.00     0.278 C 
BRANCH  16  17
HETATM   17  N   UNL     1      39.698 -12.528   4.151  1.00  0.00     0.092 N 
HETATM   18  C   UNL     1      40.257 -11.196   3.848  1.00  0.00     0.300 C 
HETATM   19  C   UNL     1      41.260 -10.649   4.890  1.00  0.00     0.264 C 
HETATM   20  N   UNL     1      40.676 -10.709   6.292  1.00  0.00    -0.072 N 
HETATM   21  C   UNL     1      41.662 -10.258   7.327  1.00  0.00     0.269 C 
HETATM   22  H   UNL     1      39.877 -10.063   6.313  1.00  0.00     0.279 HD
HETATM   23  C   UNL     1      40.124 -12.090   6.619  1.00  0.00     0.264 C 
HETATM   24  C   UNL     1      39.138 -12.536   5.522  1.00  0.00     0.300 C 
ENDBRANCH  16  17
ENDBRANCH  12  16
ENDBRANCH   1  10
TORSDOF 3
ENDMDL
MODEL 7
REMARK VINA RESULT:      -6.8      1.908      3.967
REMARK  3 active torsions:
REMARK  status: ('A' for Active; 'I' for Inactive)
REMARK    1  A    between atoms: N_6  and  C_7 
REMARK    2  A    between atoms: C_7  and  C_8 
REMARK    3  A    between atoms: N_10  and  C_11 
ROOT
HETATM    1  C   UNL     1      43.238 -18.541   4.090  1.00  0.00     0.073 A 
HETATM    2  C   UNL     1      44.114 -19.652   3.998  1.00  0.00     0.062 A 
HETATM    3 CL   UNL     1      44.839 -20.182   2.518  1.00  0.00    -0.082 Cl
HETATM    4  C   UNL     1      44.514 -20.367   5.141  1.00  0.00     0.026 A 
HETATM    5  C   UNL     1      44.088 -19.985   6.406  1.00  0.00     0.003 A 
HETATM    6  C   UNL     1      43.265 -18.878   6.539  1.00  0.00     0.025 A 
HETATM    7  C   UNL     1      42.841 -18.162   5.404  1.00  0.00     0.072 A 
HETATM    8  C   UNL     1      41.993 -17.025   5.641  1.00  0.00     0.102 C 
HETATM    9  N   UNL     1      41.343 -16.090   5.877  1.00  0.00    -0.191 NA
ENDROOT
BRANCH   1  10
HETATM   10  N   UNL     1      42.736 -17.800   2.997  1.00  0.00    -0.378 N 
HETATM   11  C   UNL     1      43.705 -16.870   2.392  1.00  0.00     0.129 C 
HETATM   12  C   UNL     1      42.934 -15.771   1.621  1.00  0.00     0.032 C 
HETATM   13  C   UNL     1      42.015 -16.426   0.573  1.00  0.00     0.009 C 
HETATM   14  C   UNL     1      41.103 -17.492   1.190  1.00  0.00     0.020 C 
HETATM   15  C   UNL     1      41.912 -18.510   2.000  1.00  0.00     0.123 C 
BRANCH  12  16
HETATM   16  C   UNL     1      42.152 -14.887   2.621  1.00  0.00     0.278 C 
BRANCH  16  17
HETATM   17  N   UNL     1      42.651 -13.502   2.759  1.00  0.00     0.092 N 
HETATM   18  C   UNL     1      42.503 -12.978   4.131  1.00  0.00     0.300 C 
HETATM   19  C   UNL     1      41.053 -12.666   4.566  1.00  0.00     0.264 C 
HETATM   20  N   UNL     1      40.357 -11.780   3.546  1.00  0.00    -0.072 N 
HETATM   21  C   UNL     1      38.924 -11.531   3.909  1.00  0.00     0.269 C 
HETATM   22  H   UNL     1      40.847 -10.876   3.549  1.00  0.00     0.279 HD
HETATM   23  C   UNL     1      40.482 -12.333   2.132  1.00  0.00     0.264 C 
HETATM   24  C   UNL     1      41.963 -12.605   1.803  1.00  0.00     0.300 C 
ENDBRANCH  16  17
ENDBRANCH  12  16
ENDBRANCH   1  10
TORSDOF 3
ENDMDL
MODEL 8
REMARK VINA RESULT:      -6.8      1.443      2.349
REMARK  3 active torsions:
REMARK  status: ('A' for Active; 'I' for Inactive)
REMARK    1  A    between atoms: N_6  and  C_7 
REMARK    2  A    between atoms: C_7  and  C_8 
REMARK    3  A    between atoms: N_10  and  C_11 
ROOT
HETATM    1  C   UNL     1      44.140 -19.676   3.865  1.00  0.00     0.073 A 
HETATM    2  C   UNL     1      44.135 -19.419   2.470  1.00  0.00     0.062 A 
HETATM    3 CL   UNL     1      44.108 -17.829   1.787  1.00  0.00    -0.082 Cl
HETATM    4  C   UNL     1      44.227 -20.463   1.532  1.00  0.00     0.026 A 
HETATM    5  C   UNL     1      44.358 -21.783   1.944  1.00  0.00     0.003 A 
HETATM    6  C   UNL     1      44.409 -22.068   3.300  1.00  0.00     0.025 A 
HETATM    7  C   UNL     1      44.301 -21.037   4.251  1.00  0.00     0.072 A 
HETATM    8  C   UNL     1      44.370 -21.429   5.634  1.00  0.00     0.102 C 
HETATM    9  N   UNL     1      44.470 -21.780   6.738  1.00  0.00    -0.191 NA
ENDROOT
BRANCH   1  10
HETATM   10  N   UNL     1      43.993 -18.702   4.878  1.00  0.00    -0.378 N 
HETATM   11  C   UNL     1      42.652 -18.650   5.485  1.00  0.00     0.129 C 
HETATM   12  C   UNL     1      42.450 -17.261   6.140  1.00  0.00     0.032 C 
HETATM   13  C   UNL     1      43.570 -17.007   7.165  1.00  0.00     0.009 C 
HETATM   14  C   UNL     1      44.964 -17.198   6.556  1.00  0.00     0.020 C 
HETATM   15  C   UNL     1      45.083 -18.558   5.862  1.00  0.00     0.123 C 
BRANCH  12  16
HETATM   16  C   UNL     1      42.397 -16.174   5.041  1.00  0.00     0.278 C 
BRANCH  16  17
HETATM   17  N   UNL     1      42.436 -14.780   5.534  1.00  0.00     0.092 N 
HETATM   18  C   UNL     1      41.193 -14.039   5.246  1.00  0.00     0.300 C 
HETATM   19  C   UNL     1      40.970 -13.674   3.761  1.00  0.00     0.264 C 
HETATM   20  N   UNL     1      42.190 -12.974   3.184  1.00  0.00    -0.072 N 
HETATM   21  C   UNL     1      42.026 -12.683   1.722  1.00  0.00     0.269 C 
HETATM   22  H   UNL     1      42.283 -12.077   3.677  1.00  0.00     0.279 HD
HETATM   23  C   UNL     1      43.472 -13.750   3.453  1.00  0.00     0.264 C 
HETATM   24  C   UNL     1      43.594 -14.058   4.958  1.00  0.00     0.300 C 
ENDBRANCH  16  17
ENDBRANCH  12  16
ENDBRANCH   1  10
TORSDOF 3
ENDMDL
MODEL 9
REMARK VINA RESULT:      -6.5      2.663      4.224
REMARK  3 active torsions:
REMARK  status: ('A' for Active; 'I' for Inactive)
REMARK    1  A    between atoms: N_6  and  C_7 
REMARK    2  A    between atoms: C_7  and  C_8 
REMARK    3  A    between atoms: N_10  and  C_11 
ROOT
HETATM    1  C   UNL     1      43.326 -17.558   3.882  1.00  0.00     0.073 A 
HETATM    2  C   UNL     1      43.863 -18.158   2.714  1.00  0.00     0.062 A 
HETATM    3 CL   UNL     1      43.970 -17.354   1.185  1.00  0.00    -0.082 Cl
HETATM    4  C   UNL     1      44.420 -19.448   2.744  1.00  0.00     0.026 A 
HETATM    5  C   UNL     1      44.493 -20.167   3.929  1.00  0.00     0.003 A 
HETATM    6  C   UNL     1      44.017 -19.596   5.099  1.00  0.00     0.025 A 
HETATM    7  C   UNL     1      43.440 -18.313   5.084  1.00  0.00     0.072 A 
HETATM    8  C   UNL     1      42.978 -17.800   6.346  1.00  0.00     0.102 C 
HETATM    9  N   UNL     1      42.654 -17.406   7.391  1.00  0.00    -0.191 NA
ENDROOT
BRANCH   1  10
HETATM   10  N   UNL     1      42.694 -16.295   3.938  1.00  0.00    -0.378 N 
HETATM   11  C   UNL     1      41.238 -16.350   4.155  1.00  0.00     0.129 C 
HETATM   12  C   UNL     1      40.605 -15.025   3.663  1.00  0.00     0.032 C 
HETATM   13  C   UNL     1      41.265 -13.839   4.391  1.00  0.00     0.009 C 
HETATM   14  C   UNL     1      42.792 -13.866   4.274  1.00  0.00     0.020 C 
HETATM   15  C   UNL     1      43.357 -15.223   4.706  1.00  0.00     0.123 C 
BRANCH  12  16
HETATM   16  C   UNL     1      40.744 -14.924   2.126  1.00  0.00     0.278 C 
BRANCH  16  17
HETATM   17  N   UNL     1      40.678 -13.552   1.578  1.00  0.00     0.092 N 
HETATM   18  C   UNL     1      39.341 -13.211   1.055  1.00  0.00     0.300 C 
HETATM   19  C   UNL     1      38.943 -13.924  -0.258  1.00  0.00     0.264 C 
HETATM   20  N   UNL     1      40.022 -13.757  -1.316  1.00  0.00    -0.072 N 
HETATM   21  C   UNL     1      39.693 -14.508  -2.571  1.00  0.00     0.269 C 
HETATM   22  H   UNL     1      40.063 -12.756  -1.547  1.00  0.00     0.279 HD
HETATM   23  C   UNL     1      41.399 -14.136  -0.789  1.00  0.00     0.264 C 
HETATM   24  C   UNL     1      41.693 -13.370   0.515  1.00  0.00     0.300 C 
ENDBRANCH  16  17
ENDBRANCH  12  16
ENDBRANCH   1  10
TORSDOF 3
ENDMDL
MODEL 10
REMARK VINA RESULT:      -6.5      3.538      7.044
REMARK  3 active torsions:
REMARK  status: ('A' for Active; 'I' for Inactive)
REMARK    1  A    between atoms: N_6  and  C_7 
REMARK    2  A    between atoms: C_7  and  C_8 
REMARK    3  A    between atoms: N_10  and  C_11 
ROOT
HETATM    1  C   UNL     1      40.187 -13.580   1.798  1.00  0.00     0.073 A 
HETATM    2  C   UNL     1      38.928 -13.025   1.456  1.00  0.00     0.062 A 
HETATM    3 CL   UNL     1      37.609 -13.954   0.829  1.00  0.00    -0.082 Cl
HETATM    4  C   UNL     1      38.641 -11.667   1.677  1.00  0.00     0.026 A 
HETATM    5  C   UNL     1      39.575 -10.827   2.270  1.00  0.00     0.003 A 
HETATM    6  C   UNL     1      40.802 -11.344   2.657  1.00  0.00     0.025 A 
HETATM    7  C   UNL     1      41.111 -12.697   2.427  1.00  0.00     0.072 A 
HETATM    8  C   UNL     1      42.406 -13.144   2.866  1.00  0.00     0.102 C 
HETATM    9  N   UNL     1      43.444 -13.476   3.272  1.00  0.00    -0.191 NA
ENDROOT
BRANCH   1  10
HETATM   10  N   UNL     1      40.587 -14.914   1.561  1.00  0.00    -0.378 N 
HETATM   11  C   UNL     1      39.738 -15.930   2.208  1.00  0.00     0.129 C 
HETATM   12  C   UNL     1      40.544 -17.246   2.344  1.00  0.00     0.032 C 
HETATM   13  C   UNL     1      41.040 -17.691   0.956  1.00  0.00     0.009 C 
HETATM   14  C   UNL     1      41.807 -16.578   0.232  1.00  0.00     0.020 C 
HETATM   15  C   UNL     1      40.992 -15.282   0.190  1.00  0.00     0.123 C 
BRANCH  12  16
HETATM   16  C   UNL     1      41.703 -17.042   3.347  1.00  0.00     0.278 C 
BRANCH  16  17
HETATM   17  N   UNL     1      41.442 -17.536   4.717  1.00  0.00     0.092 N 
HETATM   18  C   UNL     1      40.983 -16.471   5.629  1.00  0.00     0.300 C 
HETATM   19  C   UNL     1      42.061 -15.440   6.037  1.00  0.00     0.264 C 
HETATM   20  N   UNL     1      43.307 -16.135   6.563  1.00  0.00    -0.072 N 
HETATM   21  C   UNL     1      44.394 -15.156   6.889  1.00  0.00     0.269 C 
HETATM   22  H   UNL     1      43.040 -16.613   7.432  1.00  0.00     0.279 HD
HETATM   23  C   UNL     1      43.801 -17.215   5.610  1.00  0.00     0.264 C 
HETATM   24  C   UNL     1      42.652 -18.185   5.273  1.00  0.00     0.300 C 
ENDBRANCH  16  17
ENDBRANCH  12  16
ENDBRANCH   1  10
TORSDOF 3
ENDMDL
