MODEL 1
REMARK VINA RESULT:      -8.9      0.000      0.000
REMARK  6 active torsions:
REMARK  status: ('A' for Active; 'I' for Inactive)
REMARK    1  A    between atoms: O_2  and  C_3 
REMARK    2  A    between atoms: C_6  and  C_7 
REMARK    3  A    between atoms: C_12  and  C_13 
REMARK       I    between atoms: C_13  and  N_14 
REMARK    4  A    between atoms: N_14  and  C_15 
REMARK    5  A    between atoms: C_15  and  C_16 
REMARK    6  A    between atoms: C_24  and  C_25 
ROOT
HETATM    1  C   UNL     1      40.893 -13.461  -1.846  1.00  0.00     0.118 C 
HETATM    2  N   UNL     1      41.666 -14.589  -1.342  1.00  0.00    -0.366 N 
HETATM    3  C   UNL     1      41.610 -14.981  -0.053  1.00  0.00     0.123 A 
HETATM    4  N   UNL     1      40.928 -14.267   0.892  1.00  0.00    -0.240 N 
HETATM    5  N   UNL     1      40.999 -14.796   2.129  1.00  0.00    -0.165 NA
HETATM    6  C   UNL     1      41.729 -15.922   1.952  1.00  0.00     0.148 A 
HETATM    7  C   UNL     1      42.140 -16.061   0.599  1.00  0.00     0.088 A 
HETATM    8  C   UNL     1      40.216 -13.031   0.631  1.00  0.00     0.221 C 
HETATM    9  C   UNL     1      40.625 -12.435  -0.732  1.00  0.00     0.066 C 
HETATM   10  H   UNL     1      42.042 -15.210  -2.058  1.00  0.00     0.161 HD
ENDROOT
BRANCH   6  11
HETATM   11  C   UNL     1      42.018 -16.857   3.048  1.00  0.00     0.272 C 
HETATM   12  N   UNL     1      43.326 -17.275   3.082  1.00  0.00    -0.351 N 
HETATM   13  H   UNL     1      43.935 -16.914   2.353  1.00  0.00     0.163 HD
HETATM   14  O   UNL     1      41.166 -17.204   3.861  1.00  0.00    -0.266 OA
BRANCH  12  15
HETATM   15  C   UNL     1      43.847 -18.143   4.105  1.00  0.00     0.161 C 
BRANCH  15  16
HETATM   16  C   UNL     1      44.090 -19.550   3.612  1.00  0.00    -0.041 A 
HETATM   17  C   UNL     1      44.615 -20.546   4.450  1.00  0.00     0.009 A 
HETATM   18  C   UNL     1      44.786 -21.851   3.985  1.00  0.00     0.001 A 
HETATM   19  C   UNL     1      44.416 -22.183   2.684  1.00  0.00     0.000 A 
HETATM   20  C   UNL     1      43.875 -21.211   1.847  1.00  0.00     0.001 A 
HETATM   21  C   UNL     1      43.709 -19.903   2.308  1.00  0.00     0.009 A 
ENDBRANCH  15  16
ENDBRANCH  12  15
ENDBRANCH   6  11
BRANCH   8  22
HETATM   22  C   UNL     1      38.726 -13.229   0.794  1.00  0.00     0.409 C 
HETATM   23  F   UNL     1      38.272 -14.398   0.306  1.00  0.00    -0.169 F 
HETATM   24  F   UNL     1      38.346 -13.160   2.092  1.00  0.00    -0.169 F 
HETATM   25  F   UNL     1      38.050 -12.239   0.154  1.00  0.00    -0.169 F 
ENDBRANCH   8  22
BRANCH   1  26
HETATM   26  C   UNL     1      39.666 -13.895  -2.626  1.00  0.00    -0.035 A 
HETATM   27  C   UNL     1      39.503 -15.188  -3.143  1.00  0.00     0.012 A 
HETATM   28  C   UNL     1      38.341 -15.552  -3.836  1.00  0.00     0.037 A 
HETATM   29  C   UNL     1      37.327 -14.622  -4.042  1.00  0.00     0.068 A 
HETATM   30  C   UNL     1      37.493 -13.321  -3.571  1.00  0.00     0.037 A 
HETATM   31  C   UNL     1      38.643 -12.962  -2.862  1.00  0.00     0.012 A 
BRANCH  29  32
HETATM   32  O   UNL     1      36.150 -14.855  -4.698  1.00  0.00    -0.356 OA
HETATM   33  C   UNL     1      35.377 -13.708  -5.029  1.00  0.00     0.210 C 
ENDBRANCH  29  32
ENDBRANCH   1  26
TORSDOF 6
ENDMDL
MODEL 2
REMARK VINA RESULT:      -8.7      3.395      9.094
REMARK  6 active torsions:
REMARK  status: ('A' for Active; 'I' for Inactive)
REMARK    1  A    between atoms: O_2  and  C_3 
REMARK    2  A    between atoms: C_6  and  C_7 
REMARK    3  A    between atoms: C_12  and  C_13 
REMARK       I    between atoms: C_13  and  N_14 
REMARK    4  A    between atoms: N_14  and  C_15 
REMARK    5  A    between atoms: C_15  and  C_16 
REMARK    6  A    between atoms: C_24  and  C_25 
ROOT
HETATM    1  C   UNL     1      41.071 -17.017   4.523  1.00  0.00     0.118 C 
HETATM    2  N   UNL     1      40.448 -17.041   3.207  1.00  0.00    -0.366 N 
HETATM    3  C   UNL     1      40.674 -16.084   2.285  1.00  0.00     0.123 A 
HETATM    4  N   UNL     1      41.398 -14.960   2.571  1.00  0.00    -0.240 N 
HETATM    5  N   UNL     1      41.503 -14.103   1.537  1.00  0.00    -0.165 NA
HETATM    6  C   UNL     1      40.847 -14.734   0.535  1.00  0.00     0.148 A 
HETATM    7  C   UNL     1      40.303 -15.971   0.973  1.00  0.00     0.088 A 
HETATM    8  C   UNL     1      41.979 -14.667   3.867  1.00  0.00     0.221 C 
HETATM    9  C   UNL     1      41.379 -15.574   4.961  1.00  0.00     0.066 C 
HETATM   10  H   UNL     1      40.045 -17.939   2.936  1.00  0.00     0.161 HD
ENDROOT
BRANCH   6  11
HETATM   11  C   UNL     1      40.753 -14.175  -0.822  1.00  0.00     0.272 C 
HETATM   12  N   UNL     1      41.968 -14.055  -1.451  1.00  0.00    -0.351 N 
HETATM   13  H   UNL     1      42.784 -14.341  -0.918  1.00  0.00     0.163 HD
HETATM   14  O   UNL     1      39.681 -13.874  -1.338  1.00  0.00    -0.266 OA
BRANCH  12  15
HETATM   15  C   UNL     1      42.109 -13.590  -2.806  1.00  0.00     0.161 C 
BRANCH  15  16
HETATM   16  C   UNL     1      42.444 -12.120  -2.889  1.00  0.00    -0.041 A 
HETATM   17  C   UNL     1      42.205 -11.372  -4.053  1.00  0.00     0.009 A 
HETATM   18  C   UNL     1      42.478 -10.004  -4.090  1.00  0.00     0.001 A 
HETATM   19  C   UNL     1      42.977  -9.360  -2.960  1.00  0.00     0.000 A 
HETATM   20  C   UNL     1      43.201 -10.084  -1.791  1.00  0.00     0.001 A 
HETATM   21  C   UNL     1      42.933 -11.454  -1.755  1.00  0.00     0.009 A 
ENDBRANCH  15  16
ENDBRANCH  12  15
ENDBRANCH   6  11
BRANCH   8  22
HETATM   22  C   UNL     1      43.489 -14.705   3.795  1.00  0.00     0.409 C 
HETATM   23  F   UNL     1      43.972 -15.526   2.844  1.00  0.00    -0.169 F 
HETATM   24  F   UNL     1      44.015 -13.477   3.572  1.00  0.00    -0.169 F 
HETATM   25  F   UNL     1      44.003 -15.122   4.981  1.00  0.00    -0.169 F 
ENDBRANCH   8  22
BRANCH   1  26
HETATM   26  C   UNL     1      42.236 -17.983   4.638  1.00  0.00    -0.035 A 
HETATM   27  C   UNL     1      42.815 -18.344   5.863  1.00  0.00     0.012 A 
HETATM   28  C   UNL     1      43.874 -19.259   5.924  1.00  0.00     0.037 A 
HETATM   29  C   UNL     1      44.387 -19.817   4.757  1.00  0.00     0.068 A 
HETATM   30  C   UNL     1      43.849 -19.437   3.529  1.00  0.00     0.037 A 
HETATM   31  C   UNL     1      42.779 -18.538   3.468  1.00  0.00     0.012 A 
BRANCH  29  32
HETATM   32  O   UNL     1      45.412 -20.720   4.686  1.00  0.00    -0.356 OA
HETATM   33  C   UNL     1      45.088 -22.064   5.018  1.00  0.00     0.210 C 
ENDBRANCH  29  32
ENDBRANCH   1  26
TORSDOF 6
ENDMDL
MODEL 3
REMARK VINA RESULT:      -8.6      5.654      8.677
REMARK  6 active torsions:
REMARK  status: ('A' for Active; 'I' for Inactive)
REMARK    1  A    between atoms: O_2  and  C_3 
REMARK    2  A    between atoms: C_6  and  C_7 
REMARK    3  A    between atoms: C_12  and  C_13 
REMARK       I    between atoms: C_13  and  N_14 
REMARK    4  A    between atoms: N_14  and  C_15 
REMARK    5  A    between atoms: C_15  and  C_16 
REMARK    6  A    between atoms: C_24  and  C_25 
ROOT
HETATM    1  C   UNL     1      43.510 -14.812   2.535  1.00  0.00     0.118 C 
HETATM    2  N   UNL     1      43.618 -14.050   3.772  1.00  0.00    -0.366 N 
HETATM    3  C   UNL     1      42.542 -13.526   4.392  1.00  0.00     0.123 A 
HETATM    4  N   UNL     1      41.295 -13.561   3.831  1.00  0.00    -0.240 N 
HETATM    5  N   UNL     1      40.345 -12.969   4.580  1.00  0.00    -0.165 NA
HETATM    6  C   UNL     1      41.014 -12.575   5.689  1.00  0.00     0.148 A 
HETATM    7  C   UNL     1      42.396 -12.895   5.597  1.00  0.00     0.088 A 
HETATM    8  C   UNL     1      40.995 -14.137   2.535  1.00  0.00     0.221 C 
HETATM    9  C   UNL     1      42.283 -14.366   1.719  1.00  0.00     0.066 C 
HETATM   10  H   UNL     1      44.503 -14.156   4.269  1.00  0.00     0.161 HD
ENDROOT
BRANCH   6  11
HETATM   11  C   UNL     1      40.349 -11.918   6.823  1.00  0.00     0.272 C 
HETATM   12  N   UNL     1      41.222 -11.348   7.716  1.00  0.00    -0.351 N 
HETATM   13  H   UNL     1      42.212 -11.454   7.512  1.00  0.00     0.163 HD
HETATM   14  O   UNL     1      39.128 -11.872   6.934  1.00  0.00    -0.266 OA
BRANCH  12  15
HETATM   15  C   UNL     1      40.792 -10.600   8.868  1.00  0.00     0.161 C 
BRANCH  15  16
HETATM   16  C   UNL     1      41.874 -10.458   9.912  1.00  0.00    -0.041 A 
HETATM   17  C   UNL     1      41.570 -10.249  11.267  1.00  0.00     0.009 A 
HETATM   18  C   UNL     1      42.586 -10.168  12.221  1.00  0.00     0.001 A 
HETATM   19  C   UNL     1      43.917 -10.315  11.838  1.00  0.00     0.000 A 
HETATM   20  C   UNL     1      44.233 -10.543  10.501  1.00  0.00     0.001 A 
HETATM   21  C   UNL     1      43.218 -10.618   9.544  1.00  0.00     0.009 A 
ENDBRANCH  15  16
ENDBRANCH  12  15
ENDBRANCH   6  11
BRANCH   8  22
HETATM   22  C   UNL     1      40.135 -15.372   2.686  1.00  0.00     0.409 C 
HETATM   23  F   UNL     1      40.376 -16.324   1.765  1.00  0.00    -0.169 F 
HETATM   24  F   UNL     1      40.284 -15.945   3.904  1.00  0.00    -0.169 F 
HETATM   25  F   UNL     1      38.822 -15.042   2.586  1.00  0.00    -0.169 F 
ENDBRANCH   8  22
BRANCH   1  26
HETATM   26  C   UNL     1      43.620 -16.309   2.758  1.00  0.00    -0.035 A 
HETATM   27  C   UNL     1      43.421 -16.915   4.007  1.00  0.00     0.012 A 
HETATM   28  C   UNL     1      43.508 -18.305   4.162  1.00  0.00     0.037 A 
HETATM   29  C   UNL     1      43.815 -19.114   3.071  1.00  0.00     0.068 A 
HETATM   30  C   UNL     1      44.056 -18.523   1.833  1.00  0.00     0.037 A 
HETATM   31  C   UNL     1      43.950 -17.138   1.673  1.00  0.00     0.012 A 
BRANCH  29  32
HETATM   32  O   UNL     1      43.925 -20.477   3.094  1.00  0.00    -0.356 OA
HETATM   33  C   UNL     1      43.746 -21.143   1.850  1.00  0.00     0.210 C 
ENDBRANCH  29  32
ENDBRANCH   1  26
TORSDOF 6
ENDMDL
MODEL 4
REMARK VINA RESULT:      -8.4      2.714      3.499
REMARK  6 active torsions:
REMARK  status: ('A' for Active; 'I' for Inactive)
REMARK    1  A    between atoms: O_2  and  C_3 
REMARK    2  A    between atoms: C_6  and  C_7 
REMARK    3  A    between atoms: C_12  and  C_13 
REMARK       I    between atoms: C_13  and  N_14 
REMARK    4  A    between atoms: N_14  and  C_15 
REMARK    5  A    between atoms: C_15  and  C_16 
REMARK    6  A    between atoms: C_24  and  C_25 
ROOT
HETATM    1  C   UNL     1      40.758 -11.907   1.853  1.00  0.00     0.118 C 
HETATM    2  N   UNL     1      41.968 -12.242   2.590  1.00  0.00    -0.366 N 
HETATM    3  C   UNL     1      42.115 -13.414   3.242  1.00  0.00     0.123 A 
HETATM    4  N   UNL     1      41.087 -14.307   3.363  1.00  0.00    -0.240 N 
HETATM    5  N   UNL     1      41.407 -15.412   4.065  1.00  0.00    -0.165 NA
HETATM    6  C   UNL     1      42.713 -15.227   4.369  1.00  0.00     0.148 A 
HETATM    7  C   UNL     1      43.184 -13.978   3.881  1.00  0.00     0.088 A 
HETATM    8  C   UNL     1      39.753 -14.100   2.834  1.00  0.00     0.221 C 
HETATM    9  C   UNL     1      39.533 -12.623   2.450  1.00  0.00     0.066 C 
HETATM   10  H   UNL     1      42.780 -11.663   2.374  1.00  0.00     0.161 HD
ENDROOT
BRANCH   6  11
HETATM   11  C   UNL     1      43.504 -16.229   5.099  1.00  0.00     0.272 C 
HETATM   12  N   UNL     1      43.539 -17.455   4.482  1.00  0.00    -0.351 N 
HETATM   13  H   UNL     1      43.012 -17.543   3.617  1.00  0.00     0.163 HD
HETATM   14  O   UNL     1      44.091 -15.971   6.145  1.00  0.00    -0.266 OA
BRANCH  12  15
HETATM   15  C   UNL     1      44.302 -18.567   4.985  1.00  0.00     0.161 C 
BRANCH  15  16
HETATM   16  C   UNL     1      44.318 -19.743   4.038  1.00  0.00    -0.041 A 
HETATM   17  C   UNL     1      44.809 -20.999   4.429  1.00  0.00     0.009 A 
HETATM   18  C   UNL     1      44.770 -22.085   3.552  1.00  0.00     0.001 A 
HETATM   19  C   UNL     1      44.222 -21.935   2.280  1.00  0.00     0.000 A 
HETATM   20  C   UNL     1      43.712 -20.701   1.885  1.00  0.00     0.001 A 
HETATM   21  C   UNL     1      43.756 -19.613   2.760  1.00  0.00     0.009 A 
ENDBRANCH  15  16
ENDBRANCH  12  15
ENDBRANCH   6  11
BRANCH   8  22
HETATM   22  C   UNL     1      39.467 -15.075   1.714  1.00  0.00     0.409 C 
HETATM   23  F   UNL     1      38.434 -14.719   0.928  1.00  0.00    -0.169 F 
HETATM   24  F   UNL     1      40.542 -15.252   0.910  1.00  0.00    -0.169 F 
HETATM   25  F   UNL     1      39.177 -16.300   2.224  1.00  0.00    -0.169 F 
ENDBRANCH   8  22
BRANCH   1  26
HETATM   26  C   UNL     1      40.923 -12.067   0.353  1.00  0.00    -0.035 A 
HETATM   27  C   UNL     1      39.839 -12.147  -0.534  1.00  0.00     0.012 A 
HETATM   28  C   UNL     1      40.038 -12.268  -1.915  1.00  0.00     0.037 A 
HETATM   29  C   UNL     1      41.327 -12.332  -2.435  1.00  0.00     0.068 A 
HETATM   30  C   UNL     1      42.414 -12.296  -1.563  1.00  0.00     0.037 A 
HETATM   31  C   UNL     1      42.217 -12.154  -0.186  1.00  0.00     0.012 A 
BRANCH  29  32
HETATM   32  O   UNL     1      41.650 -12.448  -3.759  1.00  0.00    -0.356 OA
HETATM   33  C   UNL     1      42.330 -11.341  -4.339  1.00  0.00     0.210 C 
ENDBRANCH  29  32
ENDBRANCH   1  26
TORSDOF 6
ENDMDL
MODEL 5
REMARK VINA RESULT:      -8.4      3.413      9.078
REMARK  6 active torsions:
REMARK  status: ('A' for Active; 'I' for Inactive)
REMARK    1  A    between atoms: O_2  and  C_3 
REMARK    2  A    between atoms: C_6  and  C_7 
REMARK    3  A    between atoms: C_12  and  C_13 
REMARK       I    between atoms: C_13  and  N_14 
REMARK    4  A    between atoms: N_14  and  C_15 
REMARK    5  A    between atoms: C_15  and  C_16 
REMARK    6  A    between atoms: C_24  and  C_25 
ROOT
HETATM    1  C   UNL     1      40.695 -16.983   2.453  1.00  0.00     0.118 C 
HETATM    2  N   UNL     1      40.602 -16.799   1.011  1.00  0.00    -0.366 N 
HETATM    3  C   UNL     1      41.004 -15.666   0.401  1.00  0.00     0.123 A 
HETATM    4  N   UNL     1      41.402 -14.566   1.109  1.00  0.00    -0.240 N 
HETATM    5  N   UNL     1      41.747 -13.518   0.336  1.00  0.00    -0.165 NA
HETATM    6  C   UNL     1      41.599 -13.991  -0.924  1.00  0.00     0.148 A 
HETATM    7  C   UNL     1      41.120 -15.329  -0.919  1.00  0.00     0.088 A 
HETATM    8  C   UNL     1      41.425 -14.486   2.556  1.00  0.00     0.221 C 
HETATM    9  C   UNL     1      40.610 -15.633   3.187  1.00  0.00     0.066 C 
HETATM   10  H   UNL     1      40.460 -17.656   0.475  1.00  0.00     0.161 HD
ENDROOT
BRANCH   6  11
HETATM   11  C   UNL     1      41.922 -13.188  -2.113  1.00  0.00     0.272 C 
HETATM   12  N   UNL     1      41.609 -11.858  -1.976  1.00  0.00    -0.351 N 
HETATM   13  H   UNL     1      41.183 -11.580  -1.097  1.00  0.00     0.163 HD
HETATM   14  O   UNL     1      42.442 -13.672  -3.113  1.00  0.00    -0.266 OA
BRANCH  12  15
HETATM   15  C   UNL     1      41.894 -10.876  -2.990  1.00  0.00     0.161 C 
BRANCH  15  16
HETATM   16  C   UNL     1      42.704  -9.713  -2.468  1.00  0.00    -0.041 A 
HETATM   17  C   UNL     1      42.505  -8.405  -2.938  1.00  0.00     0.009 A 
HETATM   18  C   UNL     1      43.232  -7.338  -2.407  1.00  0.00     0.001 A 
HETATM   19  C   UNL     1      44.153  -7.561  -1.385  1.00  0.00     0.000 A 
HETATM   20  C   UNL     1      44.347  -8.850  -0.895  1.00  0.00     0.001 A 
HETATM   21  C   UNL     1      43.624  -9.919  -1.430  1.00  0.00     0.009 A 
ENDBRANCH  15  16
ENDBRANCH  12  15
ENDBRANCH   6  11
BRANCH   8  22
HETATM   22  C   UNL     1      42.846 -14.390   3.063  1.00  0.00     0.409 C 
HETATM   23  F   UNL     1      43.004 -14.806   4.333  1.00  0.00    -0.169 F 
HETATM   24  F   UNL     1      43.705 -15.104   2.297  1.00  0.00    -0.169 F 
HETATM   25  F   UNL     1      43.277 -13.103   3.007  1.00  0.00    -0.169 F 
ENDBRANCH   8  22
BRANCH   1  26
HETATM   26  C   UNL     1      41.867 -17.858   2.857  1.00  0.00    -0.035 A 
HETATM   27  C   UNL     1      42.262 -18.044   4.190  1.00  0.00     0.012 A 
HETATM   28  C   UNL     1      43.336 -18.881   4.520  1.00  0.00     0.037 A 
HETATM   29  C   UNL     1      44.049 -19.534   3.519  1.00  0.00     0.068 A 
HETATM   30  C   UNL     1      43.694 -19.327   2.187  1.00  0.00     0.037 A 
HETATM   31  C   UNL     1      42.610 -18.507   1.858  1.00  0.00     0.012 A 
BRANCH  29  32
HETATM   32  O   UNL     1      45.109 -20.376   3.712  1.00  0.00    -0.356 OA
HETATM   33  C   UNL     1      45.003 -21.278   4.807  1.00  0.00     0.210 C 
ENDBRANCH  29  32
ENDBRANCH   1  26
TORSDOF 6
ENDMDL
MODEL 6
REMARK VINA RESULT:      -8.4      5.748      9.135
REMARK  6 active torsions:
REMARK  status: ('A' for Active; 'I' for Inactive)
REMARK    1  A    between atoms: O_2  and  C_3 
REMARK    2  A    between atoms: C_6  and  C_7 
REMARK    3  A    between atoms: C_12  and  C_13 
REMARK       I    between atoms: C_13  and  N_14 
REMARK    4  A    between atoms: N_14  and  C_15 
REMARK    5  A    between atoms: C_15  and  C_16 
REMARK    6  A    between atoms: C_24  and  C_25 
ROOT
HETATM    1  C   UNL     1      42.546 -16.518   2.762  1.00  0.00     0.118 C 
HETATM    2  N   UNL     1      43.457 -15.466   3.194  1.00  0.00    -0.366 N 
HETATM    3  C   UNL     1      43.320 -14.836   4.378  1.00  0.00     0.123 A 
HETATM    4  N   UNL     1      42.242 -15.050   5.192  1.00  0.00    -0.240 N 
HETATM    5  N   UNL     1      42.261 -14.319   6.323  1.00  0.00    -0.165 NA
HETATM    6  C   UNL     1      43.427 -13.637   6.241  1.00  0.00     0.148 A 
HETATM    7  C   UNL     1      44.109 -13.926   5.028  1.00  0.00     0.088 A 
HETATM    8  C   UNL     1      41.144 -15.944   4.880  1.00  0.00     0.221 C 
HETATM    9  C   UNL     1      41.152 -16.331   3.387  1.00  0.00     0.066 C 
HETATM   10  H   UNL     1      44.335 -15.415   2.677  1.00  0.00     0.161 HD
ENDROOT
BRANCH   6  11
HETATM   11  C   UNL     1      43.893 -12.736   7.305  1.00  0.00     0.272 C 
HETATM   12  N   UNL     1      45.134 -13.063   7.796  1.00  0.00    -0.351 N 
HETATM   13  H   UNL     1      45.579 -13.883   7.393  1.00  0.00     0.163 HD
HETATM   14  O   UNL     1      43.235 -11.775   7.690  1.00  0.00    -0.266 OA
BRANCH  12  15
HETATM   15  C   UNL     1      45.813 -12.285   8.799  1.00  0.00     0.161 C 
BRANCH  15  16
HETATM   16  C   UNL     1      44.925 -11.935   9.969  1.00  0.00    -0.041 A 
HETATM   17  C   UNL     1      44.432 -12.918  10.842  1.00  0.00     0.009 A 
HETATM   18  C   UNL     1      43.653 -12.566  11.945  1.00  0.00     0.001 A 
HETATM   19  C   UNL     1      43.372 -11.226  12.202  1.00  0.00     0.000 A 
HETATM   20  C   UNL     1      43.870 -10.238  11.357  1.00  0.00     0.001 A 
HETATM   21  C   UNL     1      44.646 -10.589  10.250  1.00  0.00     0.009 A 
ENDBRANCH  15  16
ENDBRANCH  12  15
ENDBRANCH   6  11
BRANCH   8  22
HETATM   22  C   UNL     1      41.135 -17.127   5.822  1.00  0.00     0.409 C 
HETATM   23  F   UNL     1      40.216 -17.040   6.801  1.00  0.00    -0.169 F 
HETATM   24  F   UNL     1      40.916 -18.292   5.167  1.00  0.00    -0.169 F 
HETATM   25  F   UNL     1      42.347 -17.256   6.421  1.00  0.00    -0.169 F 
ENDBRANCH   8  22
BRANCH   1  26
HETATM   26  C   UNL     1      43.138 -17.906   2.922  1.00  0.00    -0.035 A 
HETATM   27  C   UNL     1      43.994 -18.258   3.976  1.00  0.00     0.012 A 
HETATM   28  C   UNL     1      44.497 -19.560   4.099  1.00  0.00     0.037 A 
HETATM   29  C   UNL     1      44.168 -20.531   3.157  1.00  0.00     0.068 A 
HETATM   30  C   UNL     1      43.351 -20.185   2.082  1.00  0.00     0.037 A 
HETATM   31  C   UNL     1      42.832 -18.892   1.970  1.00  0.00     0.012 A 
BRANCH  29  32
HETATM   32  O   UNL     1      44.591 -21.831   3.169  1.00  0.00    -0.356 OA
HETATM   33  C   UNL     1      44.752 -22.427   4.451  1.00  0.00     0.210 C 
ENDBRANCH  29  32
ENDBRANCH   1  26
TORSDOF 6
ENDMDL
MODEL 7
REMARK VINA RESULT:      -8.1      3.192      4.184
REMARK  6 active torsions:
REMARK  status: ('A' for Active; 'I' for Inactive)
REMARK    1  A    between atoms: O_2  and  C_3 
REMARK    2  A    between atoms: C_6  and  C_7 
REMARK    3  A    between atoms: C_12  and  C_13 
REMARK       I    between atoms: C_13  and  N_14 
REMARK    4  A    between atoms: N_14  and  C_15 
REMARK    5  A    between atoms: C_15  and  C_16 
REMARK    6  A    between atoms: C_24  and  C_25 
ROOT
HETATM    1  C   UNL     1      39.312 -13.225   2.073  1.00  0.00     0.118 C 
HETATM    2  N   UNL     1      39.999 -13.397   3.346  1.00  0.00    -0.366 N 
HETATM    3  C   UNL     1      40.703 -14.508   3.641  1.00  0.00     0.123 A 
HETATM    4  N   UNL     1      40.709 -15.600   2.819  1.00  0.00    -0.240 N 
HETATM    5  N   UNL     1      41.448 -16.626   3.283  1.00  0.00    -0.165 NA
HETATM    6  C   UNL     1      41.969 -16.146   4.436  1.00  0.00     0.148 A 
HETATM    7  C   UNL     1      41.510 -14.827   4.698  1.00  0.00     0.088 A 
HETATM    8  C   UNL     1      39.969 -15.695   1.576  1.00  0.00     0.221 C 
HETATM    9  C   UNL     1      38.902 -14.585   1.480  1.00  0.00     0.066 C 
HETATM   10  H   UNL     1      40.130 -12.540   3.885  1.00  0.00     0.161 HD
ENDROOT
BRANCH   6  11
HETATM   11  C   UNL     1      42.898 -16.924   5.268  1.00  0.00     0.272 C 
HETATM   12  N   UNL     1      43.537 -17.928   4.584  1.00  0.00    -0.351 N 
HETATM   13  H   UNL     1      43.293 -18.035   3.603  1.00  0.00     0.163 HD
HETATM   14  O   UNL     1      43.091 -16.671   6.454  1.00  0.00    -0.266 OA
BRANCH  12  15
HETATM   15  C   UNL     1      44.535 -18.776   5.182  1.00  0.00     0.161 C 
BRANCH  15  16
HETATM   16  C   UNL     1      44.609 -20.139   4.538  1.00  0.00    -0.041 A 
HETATM   17  C   UNL     1      44.792 -21.306   5.297  1.00  0.00     0.009 A 
HETATM   18  C   UNL     1      44.809 -22.560   4.684  1.00  0.00     0.001 A 
HETATM   19  C   UNL     1      44.623 -22.667   3.307  1.00  0.00     0.000 A 
HETATM   20  C   UNL     1      44.420 -21.521   2.544  1.00  0.00     0.001 A 
HETATM   21  C   UNL     1      44.409 -20.265   3.155  1.00  0.00     0.009 A 
ENDBRANCH  15  16
ENDBRANCH  12  15
ENDBRANCH   6  11
BRANCH   8  22
HETATM   22  C   UNL     1      40.913 -15.744   0.395  1.00  0.00     0.409 C 
HETATM   23  F   UNL     1      41.307 -16.986   0.061  1.00  0.00    -0.169 F 
HETATM   24  F   UNL     1      40.368 -15.184  -0.711  1.00  0.00    -0.169 F 
HETATM   25  F   UNL     1      42.034 -15.027   0.663  1.00  0.00    -0.169 F 
ENDBRANCH   8  22
BRANCH   1  26
HETATM   26  C   UNL     1      40.063 -12.313   1.121  1.00  0.00    -0.035 A 
HETATM   27  C   UNL     1      41.297 -11.726   1.434  1.00  0.00     0.012 A 
HETATM   28  C   UNL     1      41.968 -10.909   0.515  1.00  0.00     0.037 A 
HETATM   29  C   UNL     1      41.405 -10.648  -0.732  1.00  0.00     0.068 A 
HETATM   30  C   UNL     1      40.159 -11.190  -1.042  1.00  0.00     0.037 A 
HETATM   31  C   UNL     1      39.499 -12.022  -0.132  1.00  0.00     0.012 A 
BRANCH  29  32
HETATM   32  O   UNL     1      41.960  -9.873  -1.712  1.00  0.00    -0.356 OA
HETATM   33  C   UNL     1      43.375  -9.943  -1.842  1.00  0.00     0.210 C 
ENDBRANCH  29  32
ENDBRANCH   1  26
TORSDOF 6
ENDMDL
MODEL 8
REMARK VINA RESULT:      -8.0      1.666      2.478
REMARK  6 active torsions:
REMARK  status: ('A' for Active; 'I' for Inactive)
REMARK    1  A    between atoms: O_2  and  C_3 
REMARK    2  A    between atoms: C_6  and  C_7 
REMARK    3  A    between atoms: C_12  and  C_13 
REMARK       I    between atoms: C_13  and  N_14 
REMARK    4  A    between atoms: N_14  and  C_15 
REMARK    5  A    between atoms: C_15  and  C_16 
REMARK    6  A    between atoms: C_24  and  C_25 
ROOT
HETATM    1  C   UNL     1      40.384 -13.262  -2.070  1.00  0.00     0.118 C 
HETATM    2  N   UNL     1      41.104 -14.475  -1.707  1.00  0.00    -0.366 N 
HETATM    3  C   UNL     1      41.074 -14.985  -0.460  1.00  0.00     0.123 A 
HETATM    4  N   UNL     1      40.474 -14.326   0.578  1.00  0.00    -0.240 N 
HETATM    5  N   UNL     1      40.561 -14.974   1.755  1.00  0.00    -0.165 NA
HETATM    6  C   UNL     1      41.212 -16.118   1.442  1.00  0.00     0.148 A 
HETATM    7  C   UNL     1      41.562 -16.150   0.065  1.00  0.00     0.088 A 
HETATM    8  C   UNL     1      39.831 -13.032   0.464  1.00  0.00     0.221 C 
HETATM    9  C   UNL     1      40.222 -12.332  -0.854  1.00  0.00     0.066 C 
HETATM   10  H   UNL     1      41.414 -15.045  -2.495  1.00  0.00     0.161 HD
ENDROOT
BRANCH   6  11
HETATM   11  C   UNL     1      41.485 -17.169   2.432  1.00  0.00     0.272 C 
HETATM   12  N   UNL     1      41.089 -16.839   3.705  1.00  0.00    -0.351 N 
HETATM   13  H   UNL     1      40.675 -15.919   3.827  1.00  0.00     0.163 HD
HETATM   14  O   UNL     1      41.997 -18.243   2.130  1.00  0.00    -0.266 OA
BRANCH  12  15
HETATM   15  C   UNL     1      41.202 -17.740   4.822  1.00  0.00     0.161 C 
BRANCH  15  16
HETATM   16  C   UNL     1      42.595 -17.781   5.403  1.00  0.00    -0.041 A 
HETATM   17  C   UNL     1      43.111 -16.717   6.159  1.00  0.00     0.009 A 
HETATM   18  C   UNL     1      44.384 -16.797   6.727  1.00  0.00     0.001 A 
HETATM   19  C   UNL     1      45.150 -17.949   6.563  1.00  0.00     0.000 A 
HETATM   20  C   UNL     1      44.644 -19.021   5.833  1.00  0.00     0.001 A 
HETATM   21  C   UNL     1      43.373 -18.940   5.260  1.00  0.00     0.009 A 
ENDBRANCH  15  16
ENDBRANCH  12  15
ENDBRANCH   6  11
BRANCH   8  22
HETATM   22  C   UNL     1      38.338 -13.158   0.674  1.00  0.00     0.409 C 
HETATM   23  F   UNL     1      37.617 -12.198   0.065  1.00  0.00    -0.169 F 
HETATM   24  F   UNL     1      37.866 -14.351   0.241  1.00  0.00    -0.169 F 
HETATM   25  F   UNL     1      38.046 -13.098   1.999  1.00  0.00    -0.169 F 
ENDBRANCH   8  22
BRANCH   1  26
HETATM   26  C   UNL     1      39.103 -13.547  -2.832  1.00  0.00    -0.035 A 
HETATM   27  C   UNL     1      38.183 -12.550  -3.185  1.00  0.00     0.012 A 
HETATM   28  C   UNL     1      37.024 -12.854  -3.911  1.00  0.00     0.037 A 
HETATM   29  C   UNL     1      36.754 -14.169  -4.282  1.00  0.00     0.068 A 
HETATM   30  C   UNL     1      37.639 -15.177  -3.903  1.00  0.00     0.037 A 
HETATM   31  C   UNL     1      38.806 -14.870  -3.195  1.00  0.00     0.012 A 
BRANCH  29  32
HETATM   32  O   UNL     1      35.664 -14.591  -4.991  1.00  0.00    -0.356 OA
HETATM   33  C   UNL     1      34.981 -13.597  -5.744  1.00  0.00     0.210 C 
ENDBRANCH  29  32
ENDBRANCH   1  26
TORSDOF 6
ENDMDL
MODEL 9
REMARK VINA RESULT:      -8.0      3.403      9.139
REMARK  6 active torsions:
REMARK  status: ('A' for Active; 'I' for Inactive)
REMARK    1  A    between atoms: O_2  and  C_3 
REMARK    2  A    between atoms: C_6  and  C_7 
REMARK    3  A    between atoms: C_12  and  C_13 
REMARK       I    between atoms: C_13  and  N_14 
REMARK    4  A    between atoms: N_14  and  C_15 
REMARK    5  A    between atoms: C_15  and  C_16 
REMARK    6  A    between atoms: C_24  and  C_25 
ROOT
HETATM    1  C   UNL     1      40.742 -16.806   2.365  1.00  0.00     0.118 C 
HETATM    2  N   UNL     1      40.746 -16.483   0.944  1.00  0.00    -0.366 N 
HETATM    3  C   UNL     1      41.219 -15.312   0.473  1.00  0.00     0.123 A 
HETATM    4  N   UNL     1      41.603 -14.298   1.307  1.00  0.00    -0.240 N 
HETATM    5  N   UNL     1      42.027 -13.195   0.661  1.00  0.00    -0.165 NA
HETATM    6  C   UNL     1      41.946 -13.540  -0.645  1.00  0.00     0.148 A 
HETATM    7  C   UNL     1      41.429 -14.855  -0.799  1.00  0.00     0.088 A 
HETATM    8  C   UNL     1      41.535 -14.357   2.754  1.00  0.00     0.221 C 
HETATM    9  C   UNL     1      40.649 -15.530   3.220  1.00  0.00     0.066 C 
HETATM   10  H   UNL     1      40.614 -17.279   0.320  1.00  0.00     0.161 HD
ENDROOT
BRANCH   6  11
HETATM   11  C   UNL     1      42.368 -12.640  -1.728  1.00  0.00     0.272 C 
HETATM   12  N   UNL     1      42.129 -11.314  -1.462  1.00  0.00    -0.351 N 
HETATM   13  H   UNL     1      41.683 -11.103  -0.575  1.00  0.00     0.163 HD
HETATM   14  O   UNL     1      42.901 -13.049  -2.755  1.00  0.00    -0.266 OA
BRANCH  12  15
HETATM   15  C   UNL     1      42.516 -10.252  -2.354  1.00  0.00     0.161 C 
BRANCH  15  16
HETATM   16  C   UNL     1      41.736 -10.259  -3.647  1.00  0.00    -0.041 A 
HETATM   17  C   UNL     1      40.332 -10.285  -3.662  1.00  0.00     0.009 A 
HETATM   18  C   UNL     1      39.631 -10.244  -4.869  1.00  0.00     0.001 A 
HETATM   19  C   UNL     1      40.323 -10.156  -6.075  1.00  0.00     0.000 A 
HETATM   20  C   UNL     1      41.715 -10.109  -6.075  1.00  0.00     0.001 A 
HETATM   21  C   UNL     1      42.417 -10.156  -4.869  1.00  0.00     0.009 A 
ENDBRANCH  15  16
ENDBRANCH  12  15
ENDBRANCH   6  11
BRANCH   8  22
HETATM   22  C   UNL     1      42.924 -14.360   3.353  1.00  0.00     0.409 C 
HETATM   23  F   UNL     1      43.819 -15.086   2.658  1.00  0.00    -0.169 F 
HETATM   24  F   UNL     1      43.426 -13.108   3.471  1.00  0.00    -0.169 F 
HETATM   25  F   UNL     1      42.889 -14.869   4.612  1.00  0.00    -0.169 F 
ENDBRANCH   8  22
BRANCH   1  26
HETATM   26  C   UNL     1      41.860 -17.756   2.753  1.00  0.00    -0.035 A 
HETATM   27  C   UNL     1      42.215 -18.019   4.084  1.00  0.00     0.012 A 
HETATM   28  C   UNL     1      43.238 -18.923   4.397  1.00  0.00     0.037 A 
HETATM   29  C   UNL     1      43.940 -19.568   3.382  1.00  0.00     0.068 A 
HETATM   30  C   UNL     1      43.626 -19.285   2.054  1.00  0.00     0.037 A 
HETATM   31  C   UNL     1      42.592 -18.398   1.741  1.00  0.00     0.012 A 
BRANCH  29  32
HETATM   32  O   UNL     1      44.953 -20.469   3.560  1.00  0.00    -0.356 OA
HETATM   33  C   UNL     1      44.946 -21.189   4.787  1.00  0.00     0.210 C 
ENDBRANCH  29  32
ENDBRANCH   1  26
TORSDOF 6
ENDMDL
MODEL 10
REMARK VINA RESULT:      -7.9      2.673      3.036
REMARK  6 active torsions:
REMARK  status: ('A' for Active; 'I' for Inactive)
REMARK    1  A    between atoms: O_2  and  C_3 
REMARK    2  A    between atoms: C_6  and  C_7 
REMARK    3  A    between atoms: C_12  and  C_13 
REMARK       I    between atoms: C_13  and  N_14 
REMARK    4  A    between atoms: N_14  and  C_15 
REMARK    5  A    between atoms: C_15  and  C_16 
REMARK    6  A    between atoms: C_24  and  C_25 
ROOT
HETATM    1  C   UNL     1      40.966 -13.517  -0.116  1.00  0.00     0.118 C 
HETATM    2  N   UNL     1      41.168 -14.904   0.279  1.00  0.00    -0.366 N 
HETATM    3  C   UNL     1      41.704 -15.244   1.469  1.00  0.00     0.123 A 
HETATM    4  N   UNL     1      42.213 -14.308   2.327  1.00  0.00    -0.240 N 
HETATM    5  N   UNL     1      42.727 -14.831   3.457  1.00  0.00    -0.165 NA
HETATM    6  C   UNL     1      42.496 -16.158   3.327  1.00  0.00     0.148 A 
HETATM    7  C   UNL     1      41.870 -16.453   2.086  1.00  0.00     0.088 A 
HETATM    8  C   UNL     1      42.249 -12.884   2.059  1.00  0.00     0.221 C 
HETATM    9  C   UNL     1      41.991 -12.594   0.567  1.00  0.00     0.066 C 
HETATM   10  H   UNL     1      40.655 -15.590  -0.274  1.00  0.00     0.161 HD
ENDROOT
BRANCH   6  11
HETATM   11  C   UNL     1      42.853 -17.128   4.373  1.00  0.00     0.272 C 
HETATM   12  N   UNL     1      44.007 -17.823   4.105  1.00  0.00    -0.351 N 
HETATM   13  H   UNL     1      44.471 -17.610   3.227  1.00  0.00     0.163 HD
HETATM   14  O   UNL     1      42.185 -17.274   5.391  1.00  0.00    -0.266 OA
BRANCH  12  15
HETATM   15  C   UNL     1      44.578 -18.779   5.018  1.00  0.00     0.161 C 
BRANCH  15  16
HETATM   16  C   UNL     1      44.634 -20.175   4.444  1.00  0.00    -0.041 A 
HETATM   17  C   UNL     1      44.752 -21.307   5.265  1.00  0.00     0.009 A 
HETATM   18  C   UNL     1      44.754 -22.590   4.716  1.00  0.00     0.001 A 
HETATM   19  C   UNL     1      44.619 -22.760   3.339  1.00  0.00     0.000 A 
HETATM   20  C   UNL     1      44.481 -21.648   2.513  1.00  0.00     0.001 A 
HETATM   21  C   UNL     1      44.485 -20.363   3.062  1.00  0.00     0.009 A 
ENDBRANCH  15  16
ENDBRANCH  12  15
ENDBRANCH   6  11
BRANCH   8  22
HETATM   22  C   UNL     1      41.325 -12.141   2.999  1.00  0.00     0.409 C 
HETATM   23  F   UNL     1      40.842 -10.991   2.496  1.00  0.00    -0.169 F 
HETATM   24  F   UNL     1      40.264 -12.898   3.366  1.00  0.00    -0.169 F 
HETATM   25  F   UNL     1      41.979 -11.831   4.148  1.00  0.00    -0.169 F 
ENDBRANCH   8  22
BRANCH   1  26
HETATM   26  C   UNL     1      39.520 -13.075   0.017  1.00  0.00    -0.035 A 
HETATM   27  C   UNL     1      38.515 -13.892   0.556  1.00  0.00     0.012 A 
HETATM   28  C   UNL     1      37.197 -13.434   0.682  1.00  0.00     0.037 A 
HETATM   29  C   UNL     1      36.855 -12.154   0.254  1.00  0.00     0.068 A 
HETATM   30  C   UNL     1      37.834 -11.346  -0.321  1.00  0.00     0.037 A 
HETATM   31  C   UNL     1      39.154 -11.795  -0.430  1.00  0.00     0.012 A 
BRANCH  29  32
HETATM   32  O   UNL     1      35.609 -11.594   0.327  1.00  0.00    -0.356 OA
HETATM   33  C   UNL     1      35.401 -10.423  -0.453  1.00  0.00     0.210 C 
ENDBRANCH  29  32
ENDBRANCH   1  26
TORSDOF 6
ENDMDL
