MODEL 1
REMARK VINA RESULT:      -9.2      0.000      0.000
REMARK  1 active torsions:
REMARK  status: ('A' for Active; 'I' for Inactive)
REMARK    1  A    between atoms: C_8  and  C_9 
ROOT
HETATM    1  C   UNL     1      42.982 -17.333   0.661  1.00  0.00     0.073 C 
HETATM    2  C   UNL     1      41.850 -16.877   1.509  1.00  0.00     0.062 C 
HETATM    3  N   UNL     1      40.596 -17.114   1.111  1.00  0.00    -0.178 NA
HETATM    4  N   UNL     1      39.847 -16.647   2.114  1.00  0.00    -0.262 N 
HETATM    5  H   UNL     1      38.840 -16.739   2.039  1.00  0.00     0.191 HD
HETATM    6  C   UNL     1      40.565 -15.993   3.076  1.00  0.00     0.134 C 
HETATM    7  C   UNL     1      41.899 -16.208   2.778  1.00  0.00     0.032 C 
HETATM    8  C   UNL     1      43.139 -15.935   3.574  1.00  0.00     0.119 C 
HETATM    9  S   UNL     1      43.220 -14.476   4.653  1.00  0.00    -0.141 SA
HETATM   10  C   UNL     1      41.705 -13.577   4.220  1.00  0.00     0.136 C 
HETATM   11  C   UNL     1      41.830 -12.170   4.811  1.00  0.00     0.031 C 
HETATM   12  C   UNL     1      40.463 -14.272   4.786  1.00  0.00     0.236 C 
HETATM   13  O   UNL     1      39.848 -13.856   5.770  1.00  0.00    -0.272 OA
HETATM   14  N   UNL     1      39.939 -15.339   4.104  1.00  0.00    -0.311 N 
HETATM   15  H   UNL     1      38.987 -15.572   4.367  1.00  0.00     0.170 HD
ENDROOT
BRANCH   8  16
HETATM   16  C   UNL     1      43.398 -17.206   4.379  1.00  0.00    -0.039 A 
HETATM   17  C   UNL     1      43.971 -18.354   3.795  1.00  0.00     0.021 A 
HETATM   18  C   UNL     1      44.167 -19.538   4.525  1.00  0.00    -0.025 A 
HETATM   19  C   UNL     1      43.786 -19.583   5.882  1.00  0.00    -0.026 A 
HETATM   20  C   UNL     1      44.722 -20.680   3.926  1.00  0.00     0.012 A 
HETATM   21  C   UNL     1      43.223 -18.442   6.472  1.00  0.00     0.013 A 
HETATM   22  C   UNL     1      43.971 -20.773   6.606  1.00  0.00     0.012 A 
HETATM   23  C   UNL     1      43.027 -17.272   5.731  1.00  0.00     0.009 A 
HETATM   24  C   UNL     1      44.523 -21.901   5.996  1.00  0.00     0.001 A 
HETATM   25  C   UNL     1      44.898 -21.855   4.657  1.00  0.00     0.001 A 
ENDBRANCH   8  16
TORSDOF 1
ENDMDL
MODEL 2
REMARK VINA RESULT:      -9.0      1.306      2.319
REMARK  1 active torsions:
REMARK  status: ('A' for Active; 'I' for Inactive)
REMARK    1  A    between atoms: C_8  and  C_9 
ROOT
HETATM    1  C   UNL     1      41.548 -14.831  -0.408  1.00  0.00     0.073 C 
HETATM    2  C   UNL     1      40.756 -14.924   0.847  1.00  0.00     0.062 C 
HETATM    3  N   UNL     1      39.437 -15.125   0.776  1.00  0.00    -0.178 NA
HETATM    4  N   UNL     1      39.058 -15.225   2.054  1.00  0.00    -0.262 N 
HETATM    5  H   UNL     1      38.079 -15.402   2.248  1.00  0.00     0.191 HD
HETATM    6  C   UNL     1      40.059 -14.956   2.945  1.00  0.00     0.134 C 
HETATM    7  C   UNL     1      41.223 -14.856   2.202  1.00  0.00     0.032 C 
HETATM    8  C   UNL     1      42.658 -14.792   2.630  1.00  0.00     0.119 C 
HETATM    9  S   UNL     1      43.109 -13.931   4.165  1.00  0.00    -0.141 SA
HETATM   10  C   UNL     1      41.553 -13.131   4.644  1.00  0.00     0.136 C 
HETATM   11  C   UNL     1      41.889 -12.103   5.728  1.00  0.00     0.031 C 
HETATM   12  C   UNL     1      40.546 -14.150   5.183  1.00  0.00     0.236 C 
HETATM   13  O   UNL     1      40.287 -14.271   6.383  1.00  0.00    -0.272 OA
HETATM   14  N   UNL     1      39.810 -14.884   4.291  1.00  0.00    -0.311 N 
HETATM   15  H   UNL     1      38.988 -15.323   4.692  1.00  0.00     0.170 HD
ENDROOT
BRANCH   8  16
HETATM   16  C   UNL     1      43.138 -16.241   2.674  1.00  0.00    -0.039 A 
HETATM   17  C   UNL     1      43.314 -16.931   3.891  1.00  0.00     0.021 A 
HETATM   18  C   UNL     1      43.800 -18.248   3.933  1.00  0.00    -0.025 A 
HETATM   19  C   UNL     1      44.117 -18.905   2.726  1.00  0.00    -0.026 A 
HETATM   20  C   UNL     1      43.988 -18.917   5.153  1.00  0.00     0.012 A 
HETATM   21  C   UNL     1      43.936 -18.228   1.511  1.00  0.00     0.013 A 
HETATM   22  C   UNL     1      44.615 -20.218   2.772  1.00  0.00     0.012 A 
HETATM   23  C   UNL     1      43.459 -16.914   1.485  1.00  0.00     0.009 A 
HETATM   24  C   UNL     1      44.798 -20.870   3.993  1.00  0.00     0.001 A 
HETATM   25  C   UNL     1      44.484 -20.220   5.183  1.00  0.00     0.001 A 
ENDBRANCH   8  16
TORSDOF 1
ENDMDL
MODEL 3
REMARK VINA RESULT:      -9.0      2.526      4.010
REMARK  1 active torsions:
REMARK  status: ('A' for Active; 'I' for Inactive)
REMARK    1  A    between atoms: C_8  and  C_9 
ROOT
HETATM    1  C   UNL     1      43.387 -16.898   8.165  1.00  0.00     0.073 C 
HETATM    2  C   UNL     1      43.613 -15.757   7.239  1.00  0.00     0.062 C 
HETATM    3  N   UNL     1      44.722 -15.020   7.366  1.00  0.00    -0.178 NA
HETATM    4  N   UNL     1      44.643 -14.147   6.358  1.00  0.00    -0.262 N 
HETATM    5  H   UNL     1      45.403 -13.485   6.241  1.00  0.00     0.191 HD
HETATM    6  C   UNL     1      43.460 -14.202   5.676  1.00  0.00     0.134 C 
HETATM    7  C   UNL     1      42.790 -15.316   6.150  1.00  0.00     0.032 C 
HETATM    8  C   UNL     1      41.564 -16.013   5.644  1.00  0.00     0.119 C 
HETATM    9  S   UNL     1      40.219 -15.051   4.893  1.00  0.00    -0.141 SA
HETATM   10  C   UNL     1      40.721 -13.340   5.226  1.00  0.00     0.136 C 
HETATM   11  C   UNL     1      39.507 -12.450   4.946  1.00  0.00     0.031 C 
HETATM   12  C   UNL     1      41.893 -12.920   4.335  1.00  0.00     0.236 C 
HETATM   13  O   UNL     1      41.765 -12.178   3.358  1.00  0.00    -0.272 OA
HETATM   14  N   UNL     1      43.162 -13.287   4.700  1.00  0.00    -0.311 N 
HETATM   15  H   UNL     1      43.896 -12.760   4.239  1.00  0.00     0.170 HD
ENDROOT
BRANCH   8  16
HETATM   16  C   UNL     1      42.067 -17.073   4.666  1.00  0.00    -0.039 A 
HETATM   17  C   UNL     1      42.951 -18.096   5.067  1.00  0.00     0.021 A 
HETATM   18  C   UNL     1      43.450 -19.042   4.157  1.00  0.00    -0.025 A 
HETATM   19  C   UNL     1      43.055 -18.975   2.805  1.00  0.00    -0.026 A 
HETATM   20  C   UNL     1      44.344 -20.046   4.565  1.00  0.00     0.012 A 
HETATM   21  C   UNL     1      42.170 -17.965   2.401  1.00  0.00     0.013 A 
HETATM   22  C   UNL     1      43.566 -19.915   1.894  1.00  0.00     0.012 A 
HETATM   23  C   UNL     1      41.686 -17.024   3.316  1.00  0.00     0.009 A 
HETATM   24  C   UNL     1      44.455 -20.906   2.315  1.00  0.00     0.001 A 
HETATM   25  C   UNL     1      44.844 -20.971   3.650  1.00  0.00     0.001 A 
ENDBRANCH   8  16
TORSDOF 1
ENDMDL
MODEL 4
REMARK VINA RESULT:      -8.7      2.685      3.932
REMARK  1 active torsions:
REMARK  status: ('A' for Active; 'I' for Inactive)
REMARK    1  A    between atoms: C_8  and  C_9 
ROOT
HETATM    1  C   UNL     1      42.304 -14.731   5.956  1.00  0.00     0.073 C 
HETATM    2  C   UNL     1      42.412 -14.263   4.549  1.00  0.00     0.062 C 
HETATM    3  N   UNL     1      43.267 -13.280   4.249  1.00  0.00    -0.178 NA
HETATM    4  N   UNL     1      43.164 -13.158   2.922  1.00  0.00    -0.262 N 
HETATM    5  H   UNL     1      43.748 -12.470   2.461  1.00  0.00     0.191 HD
HETATM    6  C   UNL     1      42.175 -13.927   2.377  1.00  0.00     0.134 C 
HETATM    7  C   UNL     1      41.720 -14.752   3.391  1.00  0.00     0.032 C 
HETATM    8  C   UNL     1      40.812 -15.944   3.354  1.00  0.00     0.119 C 
HETATM    9  S   UNL     1      39.434 -15.998   2.172  1.00  0.00    -0.141 SA
HETATM   10  C   UNL     1      39.438 -14.321   1.481  1.00  0.00     0.136 C 
HETATM   11  C   UNL     1      38.117 -14.139   0.729  1.00  0.00     0.031 C 
HETATM   12  C   UNL     1      40.615 -14.115   0.525  1.00  0.00     0.236 C 
HETATM   13  O   UNL     1      40.491 -14.095  -0.702  1.00  0.00    -0.272 OA
HETATM   14  N   UNL     1      41.847 -13.823   1.050  1.00  0.00    -0.311 N 
HETATM   15  H   UNL     1      42.502 -13.433   0.381  1.00  0.00     0.170 HD
ENDROOT
BRANCH   8  16
HETATM   16  C   UNL     1      41.727 -17.151   3.158  1.00  0.00    -0.039 A 
HETATM   17  C   UNL     1      42.372 -17.781   4.242  1.00  0.00     0.021 A 
HETATM   18  C   UNL     1      43.250 -18.861   4.055  1.00  0.00    -0.025 A 
HETATM   19  C   UNL     1      43.493 -19.337   2.750  1.00  0.00    -0.026 A 
HETATM   20  C   UNL     1      43.900 -19.468   5.142  1.00  0.00     0.012 A 
HETATM   21  C   UNL     1      42.848 -18.720   1.668  1.00  0.00     0.013 A 
HETATM   22  C   UNL     1      44.381 -20.409   2.565  1.00  0.00     0.012 A 
HETATM   23  C   UNL     1      41.982 -17.640   1.867  1.00  0.00     0.009 A 
HETATM   24  C   UNL     1      45.021 -21.002   3.655  1.00  0.00     0.001 A 
HETATM   25  C   UNL     1      44.781 -20.531   4.943  1.00  0.00     0.001 A 
ENDBRANCH   8  16
TORSDOF 1
ENDMDL
MODEL 5
REMARK VINA RESULT:      -8.3      2.770      4.079
REMARK  1 active torsions:
REMARK  status: ('A' for Active; 'I' for Inactive)
REMARK    1  A    between atoms: C_8  and  C_9 
ROOT
HETATM    1  C   UNL     1      40.251 -13.622   6.116  1.00  0.00     0.073 C 
HETATM    2  C   UNL     1      40.998 -13.278   4.878  1.00  0.00     0.062 C 
HETATM    3  N   UNL     1      41.838 -12.239   4.887  1.00  0.00    -0.178 NA
HETATM    4  N   UNL     1      42.381 -12.254   3.666  1.00  0.00    -0.262 N 
HETATM    5  H   UNL     1      43.078 -11.551   3.446  1.00  0.00     0.191 HD
HETATM    6  C   UNL     1      41.818 -13.175   2.828  1.00  0.00     0.134 C 
HETATM    7  C   UNL     1      40.976 -13.947   3.608  1.00  0.00     0.032 C 
HETATM    8  C   UNL     1      40.262 -15.230   3.309  1.00  0.00     0.119 C 
HETATM    9  S   UNL     1      39.628 -15.547   1.637  1.00  0.00    -0.141 SA
HETATM   10  C   UNL     1      39.876 -13.952   0.810  1.00  0.00     0.136 C 
HETATM   11  C   UNL     1      39.072 -13.989  -0.493  1.00  0.00     0.031 C 
HETATM   12  C   UNL     1      41.356 -13.707   0.504  1.00  0.00     0.236 C 
HETATM   13  O   UNL     1      41.837 -13.816  -0.627  1.00  0.00    -0.272 OA
HETATM   14  N   UNL     1      42.164 -13.232   1.503  1.00  0.00    -0.311 N 
HETATM   15  H   UNL     1      43.039 -12.836   1.176  1.00  0.00     0.170 HD
ENDROOT
BRANCH   8  16
HETATM   16  C   UNL     1      41.221 -16.341   3.733  1.00  0.00    -0.039 A 
HETATM   17  C   UNL     1      42.055 -16.998   2.805  1.00  0.00     0.021 A 
HETATM   18  C   UNL     1      42.902 -18.051   3.188  1.00  0.00    -0.025 A 
HETATM   19  C   UNL     1      42.927 -18.464   4.536  1.00  0.00    -0.026 A 
HETATM   20  C   UNL     1      43.715 -18.710   2.250  1.00  0.00     0.012 A 
HETATM   21  C   UNL     1      42.105 -17.809   5.465  1.00  0.00     0.013 A 
HETATM   22  C   UNL     1      43.766 -19.526   4.913  1.00  0.00     0.012 A 
HETATM   23  C   UNL     1      41.261 -16.767   5.069  1.00  0.00     0.009 A 
HETATM   24  C   UNL     1      44.567 -20.172   3.969  1.00  0.00     0.001 A 
HETATM   25  C   UNL     1      44.542 -19.764   2.639  1.00  0.00     0.001 A 
ENDBRANCH   8  16
TORSDOF 1
ENDMDL
MODEL 6
REMARK VINA RESULT:      -7.7      2.073      2.578
REMARK  1 active torsions:
REMARK  status: ('A' for Active; 'I' for Inactive)
REMARK    1  A    between atoms: C_8  and  C_9 
ROOT
HETATM    1  C   UNL     1      43.324 -17.787   1.143  1.00  0.00     0.073 C 
HETATM    2  C   UNL     1      42.007 -17.142   1.386  1.00  0.00     0.062 C 
HETATM    3  N   UNL     1      40.890 -17.763   0.994  1.00  0.00    -0.178 NA
HETATM    4  N   UNL     1      39.910 -16.960   1.419  1.00  0.00    -0.262 N 
HETATM    5  H   UNL     1      38.953 -17.245   1.247  1.00  0.00     0.191 HD
HETATM    6  C   UNL     1      40.358 -15.779   1.943  1.00  0.00     0.134 C 
HETATM    7  C   UNL     1      41.733 -15.894   2.041  1.00  0.00     0.032 C 
HETATM    8  C   UNL     1      42.744 -15.029   2.731  1.00  0.00     0.119 C 
HETATM    9  S   UNL     1      42.507 -13.229   2.791  1.00  0.00    -0.141 SA
HETATM   10  C   UNL     1      41.090 -12.978   1.686  1.00  0.00     0.136 C 
HETATM   11  C   UNL     1      41.010 -11.479   1.387  1.00  0.00     0.031 C 
HETATM   12  C   UNL     1      39.787 -13.452   2.335  1.00  0.00     0.236 C 
HETATM   13  O   UNL     1      38.944 -12.678   2.795  1.00  0.00    -0.272 OA
HETATM   14  N   UNL     1      39.483 -14.787   2.303  1.00  0.00    -0.311 N 
HETATM   15  H   UNL     1      38.508 -14.996   2.492  1.00  0.00     0.170 HD
ENDROOT
BRANCH   8  16
HETATM   16  C   UNL     1      42.873 -15.595   4.144  1.00  0.00    -0.039 A 
HETATM   17  C   UNL     1      43.799 -16.610   4.458  1.00  0.00     0.021 A 
HETATM   18  C   UNL     1      43.885 -17.162   5.747  1.00  0.00    -0.025 A 
HETATM   19  C   UNL     1      43.025 -16.688   6.759  1.00  0.00    -0.026 A 
HETATM   20  C   UNL     1      44.800 -18.185   6.042  1.00  0.00     0.012 A 
HETATM   21  C   UNL     1      42.107 -15.672   6.455  1.00  0.00     0.013 A 
HETATM   22  C   UNL     1      43.104 -17.251   8.044  1.00  0.00     0.012 A 
HETATM   23  C   UNL     1      42.027 -15.137   5.166  1.00  0.00     0.009 A 
HETATM   24  C   UNL     1      44.019 -18.269   8.322  1.00  0.00     0.001 A 
HETATM   25  C   UNL     1      44.866 -18.736   7.322  1.00  0.00     0.001 A 
ENDBRANCH   8  16
TORSDOF 1
ENDMDL
MODEL 7
REMARK VINA RESULT:      -7.6      2.883      4.555
REMARK  1 active torsions:
REMARK  status: ('A' for Active; 'I' for Inactive)
REMARK    1  A    between atoms: C_8  and  C_9 
ROOT
HETATM    1  C   UNL     1      39.780 -13.178   6.198  1.00  0.00     0.073 C 
HETATM    2  C   UNL     1      40.563 -12.773   5.001  1.00  0.00     0.062 C 
HETATM    3  N   UNL     1      41.221 -11.610   5.011  1.00  0.00    -0.178 NA
HETATM    4  N   UNL     1      41.859 -11.592   3.837  1.00  0.00    -0.262 N 
HETATM    5  H   UNL     1      42.451 -10.795   3.629  1.00  0.00     0.191 HD
HETATM    6  C   UNL     1      41.524 -12.632   3.015  1.00  0.00     0.134 C 
HETATM    7  C   UNL     1      40.755 -13.495   3.775  1.00  0.00     0.032 C 
HETATM    8  C   UNL     1      40.284 -14.891   3.501  1.00  0.00     0.119 C 
HETATM    9  S   UNL     1      39.851 -15.385   1.807  1.00  0.00    -0.141 SA
HETATM   10  C   UNL     1      39.907 -13.811   0.907  1.00  0.00     0.136 C 
HETATM   11  C   UNL     1      39.232 -14.041  -0.447  1.00  0.00     0.031 C 
HETATM   12  C   UNL     1      41.349 -13.339   0.699  1.00  0.00     0.236 C 
HETATM   13  O   UNL     1      41.934 -13.420  -0.383  1.00  0.00    -0.272 OA
HETATM   14  N   UNL     1      41.985 -12.692   1.726  1.00  0.00    -0.311 N 
HETATM   15  H   UNL     1      42.809 -12.173   1.443  1.00  0.00     0.170 HD
ENDROOT
BRANCH   8  16
HETATM   16  C   UNL     1      41.370 -15.807   4.060  1.00  0.00    -0.039 A 
HETATM   17  C   UNL     1      41.429 -16.144   5.428  1.00  0.00     0.021 A 
HETATM   18  C   UNL     1      42.455 -16.949   5.949  1.00  0.00    -0.025 A 
HETATM   19  C   UNL     1      43.453 -17.442   5.084  1.00  0.00    -0.026 A 
HETATM   20  C   UNL     1      42.512 -17.262   7.317  1.00  0.00     0.012 A 
HETATM   21  C   UNL     1      43.396 -17.118   3.720  1.00  0.00     0.013 A 
HETATM   22  C   UNL     1      44.485 -18.237   5.611  1.00  0.00     0.012 A 
HETATM   23  C   UNL     1      42.373 -16.309   3.216  1.00  0.00     0.009 A 
HETATM   24  C   UNL     1      44.530 -18.538   6.973  1.00  0.00     0.001 A 
HETATM   25  C   UNL     1      43.544 -18.051   7.826  1.00  0.00     0.001 A 
ENDBRANCH   8  16
TORSDOF 1
ENDMDL
MODEL 8
REMARK VINA RESULT:      -7.6      4.010      5.597
REMARK  1 active torsions:
REMARK  status: ('A' for Active; 'I' for Inactive)
REMARK    1  A    between atoms: C_8  and  C_9 
ROOT
HETATM    1  C   UNL     1      39.294 -12.927   3.039  1.00  0.00     0.073 C 
HETATM    2  C   UNL     1      40.378 -12.520   2.107  1.00  0.00     0.062 C 
HETATM    3  N   UNL     1      41.104 -11.431   2.381  1.00  0.00    -0.178 NA
HETATM    4  N   UNL     1      42.012 -11.395   1.401  1.00  0.00    -0.262 N 
HETATM    5  H   UNL     1      42.697 -10.649   1.415  1.00  0.00     0.191 HD
HETATM    6  C   UNL     1      41.809 -12.337   0.432  1.00  0.00     0.134 C 
HETATM    7  C   UNL     1      40.809 -13.170   0.903  1.00  0.00     0.032 C 
HETATM    8  C   UNL     1      40.312 -14.490   0.396  1.00  0.00     0.119 C 
HETATM    9  S   UNL     1      40.273 -14.820  -1.389  1.00  0.00    -0.141 SA
HETATM   10  C   UNL     1      40.675 -13.201  -2.102  1.00  0.00     0.136 C 
HETATM   11  C   UNL     1      40.340 -13.268  -3.594  1.00  0.00     0.031 C 
HETATM   12  C   UNL     1      42.156 -12.862  -1.914  1.00  0.00     0.236 C 
HETATM   13  O   UNL     1      42.982 -12.925  -2.827  1.00  0.00    -0.272 OA
HETATM   14  N   UNL     1      42.567 -12.353  -0.710  1.00  0.00    -0.311 N 
HETATM   15  H   UNL     1      43.474 -11.900  -0.738  1.00  0.00     0.170 HD
ENDROOT
BRANCH   8  16
HETATM   16  C   UNL     1      41.149 -15.547   1.113  1.00  0.00    -0.039 A 
HETATM   17  C   UNL     1      40.838 -15.985   2.417  1.00  0.00     0.021 A 
HETATM   18  C   UNL     1      41.636 -16.923   3.093  1.00  0.00    -0.025 A 
HETATM   19  C   UNL     1      42.779 -17.447   2.454  1.00  0.00    -0.026 A 
HETATM   20  C   UNL     1      41.325 -17.338   4.398  1.00  0.00     0.012 A 
HETATM   21  C   UNL     1      43.089 -17.021   1.154  1.00  0.00     0.013 A 
HETATM   22  C   UNL     1      43.582 -18.375   3.137  1.00  0.00     0.012 A 
HETATM   23  C   UNL     1      42.290 -16.081   0.495  1.00  0.00     0.009 A 
HETATM   24  C   UNL     1      43.261 -18.777   4.435  1.00  0.00     0.001 A 
HETATM   25  C   UNL     1      42.133 -18.259   5.066  1.00  0.00     0.001 A 
ENDBRANCH   8  16
TORSDOF 1
ENDMDL
MODEL 9
REMARK VINA RESULT:      -7.3      2.705      3.749
REMARK  1 active torsions:
REMARK  status: ('A' for Active; 'I' for Inactive)
REMARK    1  A    between atoms: C_8  and  C_9 
ROOT
HETATM    1  C   UNL     1      42.030 -12.176   1.079  1.00  0.00     0.073 C 
HETATM    2  C   UNL     1      40.911 -12.272   2.053  1.00  0.00     0.062 C 
HETATM    3  N   UNL     1      39.654 -12.120   1.625  1.00  0.00    -0.178 NA
HETATM    4  N   UNL     1      38.915 -12.332   2.717  1.00  0.00    -0.262 N 
HETATM    5  H   UNL     1      37.906 -12.286   2.625  1.00  0.00     0.191 HD
HETATM    6  C   UNL     1      39.652 -12.474   3.859  1.00  0.00     0.134 C 
HETATM    7  C   UNL     1      40.975 -12.548   3.460  1.00  0.00     0.032 C 
HETATM    8  C   UNL     1      42.211 -12.918   4.223  1.00  0.00     0.119 C 
HETATM    9  S   UNL     1      42.366 -12.464   5.974  1.00  0.00    -0.141 SA
HETATM   10  C   UNL     1      40.929 -11.389   6.235  1.00  0.00     0.136 C 
HETATM   11  C   UNL     1      41.136 -10.672   7.571  1.00  0.00     0.031 C 
HETATM   12  C   UNL     1      39.628 -12.196   6.271  1.00  0.00     0.236 C 
HETATM   13  O   UNL     1      39.019 -12.444   7.315  1.00  0.00    -0.272 OA
HETATM   14  N   UNL     1      39.048 -12.564   5.086  1.00  0.00    -0.311 N 
HETATM   15  H   UNL     1      38.076 -12.843   5.168  1.00  0.00     0.170 HD
ENDROOT
BRANCH   8  16
HETATM   16  C   UNL     1      42.362 -14.429   4.051  1.00  0.00    -0.039 A 
HETATM   17  C   UNL     1      43.153 -14.986   3.026  1.00  0.00     0.021 A 
HETATM   18  C   UNL     1      43.254 -16.375   2.840  1.00  0.00    -0.025 A 
HETATM   19  C   UNL     1      42.550 -17.240   3.703  1.00  0.00    -0.026 A 
HETATM   20  C   UNL     1      44.031 -16.917   1.804  1.00  0.00     0.012 A 
HETATM   21  C   UNL     1      41.768 -16.692   4.731  1.00  0.00     0.013 A 
HETATM   22  C   UNL     1      42.643 -18.628   3.507  1.00  0.00     0.012 A 
HETATM   23  C   UNL     1      41.670 -15.307   4.899  1.00  0.00     0.009 A 
HETATM   24  C   UNL     1      43.418 -19.152   2.471  1.00  0.00     0.001 A 
HETATM   25  C   UNL     1      44.112 -18.298   1.620  1.00  0.00     0.001 A 
ENDBRANCH   8  16
TORSDOF 1
ENDMDL
MODEL 10
REMARK VINA RESULT:      -6.8      3.487      6.273
REMARK  1 active torsions:
REMARK  status: ('A' for Active; 'I' for Inactive)
REMARK    1  A    between atoms: C_8  and  C_9 
ROOT
HETATM    1  C   UNL     1      40.855 -11.024   3.890  1.00  0.00     0.073 C 
HETATM    2  C   UNL     1      40.372 -12.267   4.546  1.00  0.00     0.062 C 
HETATM    3  N   UNL     1      39.156 -12.285   5.101  1.00  0.00    -0.178 NA
HETATM    4  N   UNL     1      39.016 -13.544   5.527  1.00  0.00    -0.262 N 
HETATM    5  H   UNL     1      38.143 -13.802   5.973  1.00  0.00     0.191 HD
HETATM    6  C   UNL     1      40.150 -14.297   5.393  1.00  0.00     0.134 C 
HETATM    7  C   UNL     1      41.038 -13.533   4.656  1.00  0.00     0.032 C 
HETATM    8  C   UNL     1      42.342 -13.894   4.011  1.00  0.00     0.119 C 
HETATM    9  S   UNL     1      43.443 -15.101   4.805  1.00  0.00    -0.141 SA
HETATM   10  C   UNL     1      42.654 -15.357   6.418  1.00  0.00     0.136 C 
HETATM   11  C   UNL     1      43.666 -16.087   7.305  1.00  0.00     0.031 C 
HETATM   12  C   UNL     1      41.377 -16.192   6.287  1.00  0.00     0.236 C 
HETATM   13  O   UNL     1      41.313 -17.379   6.612  1.00  0.00    -0.272 OA
HETATM   14  N   UNL     1      40.220 -15.568   5.902  1.00  0.00    -0.311 N 
HETATM   15  H   UNL     1      39.377 -16.097   6.099  1.00  0.00     0.170 HD
ENDROOT
BRANCH   8  16
HETATM   16  C   UNL     1      41.988 -14.349   2.597  1.00  0.00    -0.039 A 
HETATM   17  C   UNL     1      42.139 -13.500   1.481  1.00  0.00     0.021 A 
HETATM   18  C   UNL     1      41.769 -13.904   0.188  1.00  0.00    -0.025 A 
HETATM   19  C   UNL     1      41.236 -15.195  -0.007  1.00  0.00    -0.026 A 
HETATM   20  C   UNL     1      41.908 -13.042  -0.912  1.00  0.00     0.012 A 
HETATM   21  C   UNL     1      41.091 -16.047   1.097  1.00  0.00     0.013 A 
HETATM   22  C   UNL     1      40.855 -15.591  -1.301  1.00  0.00     0.012 A 
HETATM   23  C   UNL     1      41.456 -15.630   2.381  1.00  0.00     0.009 A 
HETATM   24  C   UNL     1      40.998 -14.722  -2.384  1.00  0.00     0.001 A 
HETATM   25  C   UNL     1      41.524 -13.448  -2.190  1.00  0.00     0.001 A 
ENDBRANCH   8  16
TORSDOF 1
ENDMDL
