MODEL 1
REMARK VINA RESULT:      -8.5      0.000      0.000
REMARK  6 active torsions:
REMARK  status: ('A' for Active; 'I' for Inactive)
REMARK    1  A    between atoms: N_7  and  C_8 
REMARK    2  A    between atoms: C_8  and  C_9 
REMARK    3  A    between atoms: C_9  and  N_10 
REMARK    4  A    between atoms: C_17  and  C_18 
REMARK    5  A    between atoms: C_18  and  N_19 
REMARK       I    between atoms: N_19  and  C_20 
REMARK    6  A    between atoms: C_20  and  C_21 
ROOT
HETATM    1  C   UNL     1      43.913 -21.449   1.990  1.00  0.00     0.001 A 
HETATM    2  C   UNL     1      43.246 -20.243   1.760  1.00  0.00     0.014 A 
HETATM    3  C   UNL     1      43.334 -19.208   2.697  1.00  0.00     0.008 A 
HETATM    4  C   UNL     1      44.096 -19.385   3.852  1.00  0.00     0.046 A 
HETATM    5  C   UNL     1      44.210 -18.286   4.828  1.00  0.00     0.274 A 
HETATM    6  O   UNL     1      44.932 -18.398   5.814  1.00  0.00    -0.266 OA
HETATM    7  N   UNL     1      43.471 -17.137   4.558  1.00  0.00    -0.232 N 
HETATM    8  N   UNL     1      42.734 -16.954   3.426  1.00  0.00    -0.172 NA
HETATM    9  C   UNL     1      42.656 -17.901   2.539  1.00  0.00     0.084 A 
HETATM   10  C   UNL     1      44.765 -20.595   4.080  1.00  0.00     0.018 A 
HETATM   11  C   UNL     1      44.669 -21.627   3.148  1.00  0.00     0.001 A 
ENDROOT
BRANCH   9  12
HETATM   12  C   UNL     1      41.841 -17.603   1.282  1.00  0.00     0.185 C 
BRANCH  12  13
HETATM   13  N   UNL     1      41.362 -16.235   1.319  1.00  0.00    -0.351 N 
HETATM   14  C   UNL     1      41.136 -15.510   0.170  1.00  0.00     0.253 C 
HETATM   15  O   UNL     1      41.205 -16.008  -0.951  1.00  0.00    -0.268 OA
HETATM   16  H   UNL     1      41.336 -15.759   2.213  1.00  0.00     0.163 HD
BRANCH  14  17
HETATM   17  C   UNL     1      40.739 -14.077   0.319  1.00  0.00     0.055 A 
HETATM   18  C   UNL     1      39.502 -13.618   0.803  1.00  0.00     0.049 A 
HETATM   19 CL   UNL     1      38.233 -14.659   1.346  1.00  0.00    -0.083 Cl
HETATM   20  C   UNL     1      39.251 -12.240   0.896  1.00  0.00     0.026 A 
HETATM   21  C   UNL     1      40.225 -11.314   0.517  1.00  0.00     0.021 A 
HETATM   22  C   UNL     1      41.453 -11.765   0.050  1.00  0.00     0.012 A 
HETATM   23 BR   UNL     1      42.781 -10.519  -0.457  1.00  0.00    -0.051 Br
HETATM   24  C   UNL     1      41.715 -13.131  -0.048  1.00  0.00     0.038 A 
ENDBRANCH  14  17
ENDBRANCH  12  13
ENDBRANCH   9  12
BRANCH   7  25
HETATM   25  C   UNL     1      43.665 -15.962   5.398  1.00  0.00     0.182 C 
BRANCH  25  26
HETATM   26  C   UNL     1      42.575 -15.788   6.461  1.00  0.00     0.256 C 
BRANCH  26  27
HETATM   27  N   UNL     1      41.692 -14.584   6.174  1.00  0.00    -0.070 N 
HETATM   28  H   UNL     1      41.608 -14.040   7.043  1.00  0.00     0.279 HD
HETATM   29  C   UNL     1      40.286 -14.980   5.752  1.00  0.00     0.235 C 
HETATM   30  C   UNL     1      40.188 -14.553   4.302  1.00  0.00     0.029 C 
HETATM   31  C   UNL     1      41.033 -13.296   4.259  1.00  0.00     0.029 C 
HETATM   32  C   UNL     1      42.245 -13.675   5.087  1.00  0.00     0.235 C 
ENDBRANCH  26  27
ENDBRANCH  25  26
ENDBRANCH   7  25
TORSDOF 6
ENDMDL
MODEL 2
REMARK VINA RESULT:      -8.4      3.085      6.575
REMARK  6 active torsions:
REMARK  status: ('A' for Active; 'I' for Inactive)
REMARK    1  A    between atoms: N_7  and  C_8 
REMARK    2  A    between atoms: C_8  and  C_9 
REMARK    3  A    between atoms: C_9  and  N_10 
REMARK    4  A    between atoms: C_17  and  C_18 
REMARK    5  A    between atoms: C_18  and  N_19 
REMARK       I    between atoms: N_19  and  C_20 
REMARK    6  A    between atoms: C_20  and  C_21 
ROOT
HETATM    1  C   UNL     1      41.063 -15.320  -2.815  1.00  0.00     0.001 A 
HETATM    2  C   UNL     1      40.983 -15.879  -1.537  1.00  0.00     0.014 A 
HETATM    3  C   UNL     1      41.359 -15.124  -0.420  1.00  0.00     0.008 A 
HETATM    4  C   UNL     1      41.802 -13.813  -0.592  1.00  0.00     0.046 A 
HETATM    5  C   UNL     1      42.174 -13.007   0.586  1.00  0.00     0.274 A 
HETATM    6  O   UNL     1      42.499 -11.830   0.460  1.00  0.00    -0.266 OA
HETATM    7  N   UNL     1      42.124 -13.651   1.819  1.00  0.00    -0.232 N 
HETATM    8  N   UNL     1      41.680 -14.928   1.994  1.00  0.00    -0.172 NA
HETATM    9  C   UNL     1      41.313 -15.637   0.968  1.00  0.00     0.084 A 
HETATM   10  C   UNL     1      41.880 -13.254  -1.875  1.00  0.00     0.018 A 
HETATM   11  C   UNL     1      41.512 -14.011  -2.985  1.00  0.00     0.001 A 
ENDROOT
BRANCH   9  12
HETATM   12  C   UNL     1      40.794 -17.045   1.252  1.00  0.00     0.185 C 
BRANCH  12  13
HETATM   13  N   UNL     1      41.650 -17.699   2.222  1.00  0.00    -0.351 N 
HETATM   14  C   UNL     1      42.873 -18.230   1.876  1.00  0.00     0.253 C 
HETATM   15  O   UNL     1      43.369 -18.079   0.763  1.00  0.00    -0.268 OA
HETATM   16  H   UNL     1      41.271 -17.896   3.141  1.00  0.00     0.163 HD
BRANCH  14  17
HETATM   17  C   UNL     1      43.632 -18.971   2.929  1.00  0.00     0.055 A 
HETATM   18  C   UNL     1      44.037 -20.314   2.852  1.00  0.00     0.049 A 
HETATM   19 CL   UNL     1      43.744 -21.332   1.485  1.00  0.00    -0.083 Cl
HETATM   20  C   UNL     1      44.748 -20.896   3.913  1.00  0.00     0.026 A 
HETATM   21  C   UNL     1      45.067 -20.149   5.048  1.00  0.00     0.021 A 
HETATM   22  C   UNL     1      44.679 -18.817   5.122  1.00  0.00     0.012 A 
HETATM   23 BR   UNL     1      45.114 -17.795   6.651  1.00  0.00    -0.051 Br
HETATM   24  C   UNL     1      43.971 -18.227   4.076  1.00  0.00     0.038 A 
ENDBRANCH  14  17
ENDBRANCH  12  13
ENDBRANCH   9  12
BRANCH   7  25
HETATM   25  C   UNL     1      42.325 -12.867   3.031  1.00  0.00     0.182 C 
BRANCH  25  26
HETATM   26  C   UNL     1      43.151 -13.596   4.096  1.00  0.00     0.256 C 
BRANCH  26  27
HETATM   27  N   UNL     1      42.332 -13.895   5.341  1.00  0.00    -0.070 N 
HETATM   28  H   UNL     1      42.715 -13.334   6.113  1.00  0.00     0.279 HD
HETATM   29  C   UNL     1      42.417 -15.355   5.759  1.00  0.00     0.235 C 
HETATM   30  C   UNL     1      41.023 -15.900   5.526  1.00  0.00     0.029 C 
HETATM   31  C   UNL     1      40.136 -14.717   5.852  1.00  0.00     0.029 C 
HETATM   32  C   UNL     1      40.856 -13.561   5.187  1.00  0.00     0.235 C 
ENDBRANCH  26  27
ENDBRANCH  25  26
ENDBRANCH   7  25
TORSDOF 6
ENDMDL
MODEL 3
REMARK VINA RESULT:      -8.3      1.721      1.866
REMARK  6 active torsions:
REMARK  status: ('A' for Active; 'I' for Inactive)
REMARK    1  A    between atoms: N_7  and  C_8 
REMARK    2  A    between atoms: C_8  and  C_9 
REMARK    3  A    between atoms: C_9  and  N_10 
REMARK    4  A    between atoms: C_17  and  C_18 
REMARK    5  A    between atoms: C_18  and  N_19 
REMARK       I    between atoms: N_19  and  C_20 
REMARK    6  A    between atoms: C_20  and  C_21 
ROOT
HETATM    1  C   UNL     1      43.992 -21.512   1.873  1.00  0.00     0.001 A 
HETATM    2  C   UNL     1      43.345 -20.277   1.781  1.00  0.00     0.014 A 
HETATM    3  C   UNL     1      43.414 -19.372   2.847  1.00  0.00     0.008 A 
HETATM    4  C   UNL     1      44.138 -19.707   3.990  1.00  0.00     0.046 A 
HETATM    5  C   UNL     1      44.233 -18.744   5.103  1.00  0.00     0.274 A 
HETATM    6  O   UNL     1      44.923 -18.993   6.088  1.00  0.00    -0.266 OA
HETATM    7  N   UNL     1      43.514 -17.560   4.962  1.00  0.00    -0.232 N 
HETATM    8  N   UNL     1      42.815 -17.223   3.842  1.00  0.00    -0.172 NA
HETATM    9  C   UNL     1      42.754 -18.046   2.839  1.00  0.00     0.084 A 
HETATM   10  C   UNL     1      44.787 -20.946   4.080  1.00  0.00     0.018 A 
HETATM   11  C   UNL     1      44.710 -21.848   3.020  1.00  0.00     0.001 A 
ENDROOT
BRANCH   9  12
HETATM   12  C   UNL     1      41.982 -17.577   1.608  1.00  0.00     0.185 C 
BRANCH  12  13
HETATM   13  N   UNL     1      41.368 -16.291   1.871  1.00  0.00    -0.351 N 
HETATM   14  C   UNL     1      41.057 -15.409   0.860  1.00  0.00     0.253 C 
HETATM   15  O   UNL     1      41.163 -15.701  -0.328  1.00  0.00    -0.268 OA
HETATM   16  H   UNL     1      41.304 -15.978   2.833  1.00  0.00     0.163 HD
BRANCH  14  17
HETATM   17  C   UNL     1      40.519 -14.070   1.247  1.00  0.00     0.055 A 
HETATM   18  C   UNL     1      41.214 -13.090   1.977  1.00  0.00     0.049 A 
HETATM   19 CL   UNL     1      42.844 -13.271   2.524  1.00  0.00    -0.083 Cl
HETATM   20  C   UNL     1      40.596 -11.867   2.277  1.00  0.00     0.026 A 
HETATM   21  C   UNL     1      39.292 -11.606   1.850  1.00  0.00     0.021 A 
HETATM   22  C   UNL     1      38.607 -12.567   1.117  1.00  0.00     0.012 A 
HETATM   23 BR   UNL     1      36.846 -12.220   0.526  1.00  0.00    -0.051 Br
HETATM   24  C   UNL     1      39.210 -13.787   0.813  1.00  0.00     0.038 A 
ENDBRANCH  14  17
ENDBRANCH  12  13
ENDBRANCH   9  12
BRANCH   7  25
HETATM   25  C   UNL     1      43.694 -16.506   5.952  1.00  0.00     0.182 C 
BRANCH  25  26
HETATM   26  C   UNL     1      43.276 -15.120   5.448  1.00  0.00     0.256 C 
BRANCH  26  27
HETATM   27  N   UNL     1      42.065 -14.588   6.196  1.00  0.00    -0.070 N 
HETATM   28  H   UNL     1      42.269 -14.639   7.203  1.00  0.00     0.279 HD
HETATM   29  C   UNL     1      40.815 -15.417   5.948  1.00  0.00     0.235 C 
HETATM   30  C   UNL     1      39.897 -14.500   5.167  1.00  0.00     0.029 C 
HETATM   31  C   UNL     1      40.210 -13.134   5.743  1.00  0.00     0.029 C 
HETATM   32  C   UNL     1      41.722 -13.148   5.844  1.00  0.00     0.235 C 
ENDBRANCH  26  27
ENDBRANCH  25  26
ENDBRANCH   7  25
TORSDOF 6
ENDMDL
MODEL 4
REMARK VINA RESULT:      -8.3      1.827      2.355
REMARK  6 active torsions:
REMARK  status: ('A' for Active; 'I' for Inactive)
REMARK    1  A    between atoms: N_7  and  C_8 
REMARK    2  A    between atoms: C_8  and  C_9 
REMARK    3  A    between atoms: C_9  and  N_10 
REMARK    4  A    between atoms: C_17  and  C_18 
REMARK    5  A    between atoms: C_18  and  N_19 
REMARK       I    between atoms: N_19  and  C_20 
REMARK    6  A    between atoms: C_20  and  C_21 
ROOT
HETATM    1  C   UNL     1      44.009 -20.527   2.205  1.00  0.00     0.001 A 
HETATM    2  C   UNL     1      43.059 -19.557   1.871  1.00  0.00     0.014 A 
HETATM    3  C   UNL     1      42.821 -18.486   2.739  1.00  0.00     0.008 A 
HETATM    4  C   UNL     1      43.541 -18.389   3.929  1.00  0.00     0.046 A 
HETATM    5  C   UNL     1      43.310 -17.246   4.832  1.00  0.00     0.274 A 
HETATM    6  O   UNL     1      43.983 -17.106   5.848  1.00  0.00    -0.266 OA
HETATM    7  N   UNL     1      42.308 -16.354   4.459  1.00  0.00    -0.232 N 
HETATM    8  N   UNL     1      41.609 -16.438   3.292  1.00  0.00    -0.172 NA
HETATM    9  C   UNL     1      41.830 -17.419   2.469  1.00  0.00     0.084 A 
HETATM   10  C   UNL     1      44.494 -19.361   4.261  1.00  0.00     0.018 A 
HETATM   11  C   UNL     1      44.724 -20.431   3.399  1.00  0.00     0.001 A 
ENDROOT
BRANCH   9  12
HETATM   12  C   UNL     1      41.032 -17.420   1.167  1.00  0.00     0.185 C 
BRANCH  12  13
HETATM   13  N   UNL     1      41.502 -16.359   0.300  1.00  0.00    -0.351 N 
HETATM   14  C   UNL     1      40.813 -15.176   0.153  1.00  0.00     0.253 C 
HETATM   15  O   UNL     1      39.830 -14.894   0.834  1.00  0.00    -0.268 OA
HETATM   16  H   UNL     1      42.278 -16.555  -0.323  1.00  0.00     0.163 HD
BRANCH  14  17
HETATM   17  C   UNL     1      41.331 -14.188  -0.841  1.00  0.00     0.055 A 
HETATM   18  C   UNL     1      41.408 -14.389  -2.229  1.00  0.00     0.049 A 
HETATM   19 CL   UNL     1      40.873 -15.828  -3.026  1.00  0.00    -0.083 Cl
HETATM   20  C   UNL     1      41.915 -13.378  -3.060  1.00  0.00     0.026 A 
HETATM   21  C   UNL     1      42.341 -12.163  -2.520  1.00  0.00     0.021 A 
HETATM   22  C   UNL     1      42.254 -11.955  -1.149  1.00  0.00     0.012 A 
HETATM   23 BR   UNL     1      42.819 -10.311  -0.410  1.00  0.00    -0.051 Br
HETATM   24  C   UNL     1      41.753 -12.952  -0.313  1.00  0.00     0.038 A 
ENDBRANCH  14  17
ENDBRANCH  12  13
ENDBRANCH   9  12
BRANCH   7  25
HETATM   25  C   UNL     1      42.140 -15.125   5.224  1.00  0.00     0.182 C 
BRANCH  25  26
HETATM   26  C   UNL     1      40.775 -14.460   5.015  1.00  0.00     0.256 C 
BRANCH  26  27
HETATM   27  N   UNL     1      40.711 -13.703   3.698  1.00  0.00    -0.070 N 
HETATM   28  H   UNL     1      40.739 -14.393   2.936  1.00  0.00     0.279 HD
HETATM   29  C   UNL     1      41.895 -12.769   3.504  1.00  0.00     0.235 C 
HETATM   30  C   UNL     1      41.297 -11.378   3.560  1.00  0.00     0.029 C 
HETATM   31  C   UNL     1      39.934 -11.567   2.926  1.00  0.00     0.029 C 
HETATM   32  C   UNL     1      39.451 -12.864   3.544  1.00  0.00     0.235 C 
ENDBRANCH  26  27
ENDBRANCH  25  26
ENDBRANCH   7  25
TORSDOF 6
ENDMDL
MODEL 5
REMARK VINA RESULT:      -7.8      4.914      8.271
REMARK  6 active torsions:
REMARK  status: ('A' for Active; 'I' for Inactive)
REMARK    1  A    between atoms: N_7  and  C_8 
REMARK    2  A    between atoms: C_8  and  C_9 
REMARK    3  A    between atoms: C_9  and  N_10 
REMARK    4  A    between atoms: C_17  and  C_18 
REMARK    5  A    between atoms: C_18  and  N_19 
REMARK       I    between atoms: N_19  and  C_20 
REMARK    6  A    between atoms: C_20  and  C_21 
ROOT
HETATM    1  C   UNL     1      41.873 -12.894   4.238  1.00  0.00     0.001 A 
HETATM    2  C   UNL     1      42.748 -13.101   5.308  1.00  0.00     0.014 A 
HETATM    3  C   UNL     1      42.893 -14.382   5.852  1.00  0.00     0.008 A 
HETATM    4  C   UNL     1      42.168 -15.446   5.315  1.00  0.00     0.046 A 
HETATM    5  C   UNL     1      42.340 -16.801   5.871  1.00  0.00     0.274 A 
HETATM    6  O   UNL     1      41.764 -17.761   5.366  1.00  0.00    -0.266 OA
HETATM    7  N   UNL     1      43.183 -16.918   6.972  1.00  0.00    -0.232 N 
HETATM    8  N   UNL     1      43.902 -15.884   7.494  1.00  0.00    -0.172 NA
HETATM    9  C   UNL     1      43.790 -14.692   6.989  1.00  0.00     0.084 A 
HETATM   10  C   UNL     1      41.293 -15.236   4.241  1.00  0.00     0.018 A 
HETATM   11  C   UNL     1      41.145 -13.957   3.706  1.00  0.00     0.001 A 
ENDROOT
BRANCH   9  12
HETATM   12  C   UNL     1      44.657 -13.597   7.607  1.00  0.00     0.185 C 
BRANCH  12  13
HETATM   13  N   UNL     1      43.819 -12.626   8.282  1.00  0.00    -0.351 N 
HETATM   14  C   UNL     1      44.348 -11.548   8.956  1.00  0.00     0.253 C 
HETATM   15  O   UNL     1      45.544 -11.271   8.926  1.00  0.00    -0.268 OA
HETATM   16  H   UNL     1      42.832 -12.832   8.382  1.00  0.00     0.163 HD
BRANCH  14  17
HETATM   17  C   UNL     1      43.403 -10.663   9.702  1.00  0.00     0.055 A 
HETATM   18  C   UNL     1      42.267 -10.038   9.160  1.00  0.00     0.049 A 
HETATM   19 CL   UNL     1      41.754 -10.227   7.519  1.00  0.00    -0.083 Cl
HETATM   20  C   UNL     1      41.456  -9.228   9.969  1.00  0.00     0.026 A 
HETATM   21  C   UNL     1      41.763  -9.039  11.318  1.00  0.00     0.021 A 
HETATM   22  C   UNL     1      42.878  -9.665  11.861  1.00  0.00     0.012 A 
HETATM   23 BR   UNL     1      43.296  -9.423  13.688  1.00  0.00    -0.051 Br
HETATM   24  C   UNL     1      43.693 -10.472  11.067  1.00  0.00     0.038 A 
ENDBRANCH  14  17
ENDBRANCH  12  13
ENDBRANCH   9  12
BRANCH   7  25
HETATM   25  C   UNL     1      43.516 -18.248   7.465  1.00  0.00     0.182 C 
BRANCH  25  26
HETATM   26  C   UNL     1      44.596 -18.952   6.636  1.00  0.00     0.256 C 
BRANCH  26  27
HETATM   27  N   UNL     1      43.998 -19.951   5.659  1.00  0.00    -0.070 N 
HETATM   28  H   UNL     1      43.018 -19.684   5.496  1.00  0.00     0.279 HD
HETATM   29  C   UNL     1      43.993 -21.370   6.207  1.00  0.00     0.235 C 
HETATM   30  C   UNL     1      44.975 -22.120   5.331  1.00  0.00     0.029 C 
HETATM   31  C   UNL     1      44.793 -21.467   3.977  1.00  0.00     0.029 C 
HETATM   32  C   UNL     1      44.717 -19.992   4.320  1.00  0.00     0.235 C 
ENDBRANCH  26  27
ENDBRANCH  25  26
ENDBRANCH   7  25
TORSDOF 6
ENDMDL
MODEL 6
REMARK VINA RESULT:      -7.8      3.330      7.017
REMARK  6 active torsions:
REMARK  status: ('A' for Active; 'I' for Inactive)
REMARK    1  A    between atoms: N_7  and  C_8 
REMARK    2  A    between atoms: C_8  and  C_9 
REMARK    3  A    between atoms: C_9  and  N_10 
REMARK    4  A    between atoms: C_17  and  C_18 
REMARK    5  A    between atoms: C_18  and  N_19 
REMARK       I    between atoms: N_19  and  C_20 
REMARK    6  A    between atoms: C_20  and  C_21 
ROOT
HETATM    1  C   UNL     1      40.390 -14.458  -1.686  1.00  0.00     0.001 A 
HETATM    2  C   UNL     1      40.954 -15.422  -0.846  1.00  0.00     0.014 A 
HETATM    3  C   UNL     1      40.810 -15.309   0.541  1.00  0.00     0.008 A 
HETATM    4  C   UNL     1      40.096 -14.237   1.076  1.00  0.00     0.046 A 
HETATM    5  C   UNL     1      39.922 -14.131   2.536  1.00  0.00     0.274 A 
HETATM    6  O   UNL     1      39.238 -13.234   3.020  1.00  0.00    -0.266 OA
HETATM    7  N   UNL     1      40.562 -15.096   3.309  1.00  0.00    -0.232 N 
HETATM    8  N   UNL     1      41.251 -16.152   2.792  1.00  0.00    -0.172 NA
HETATM    9  C   UNL     1      41.380 -16.279   1.504  1.00  0.00     0.084 A 
HETATM   10  C   UNL     1      39.530 -13.272   0.232  1.00  0.00     0.018 A 
HETATM   11  C   UNL     1      39.682 -13.383  -1.149  1.00  0.00     0.001 A 
ENDROOT
BRANCH   9  12
HETATM   12  C   UNL     1      42.134 -17.509   1.005  1.00  0.00     0.185 C 
BRANCH  12  13
HETATM   13  N   UNL     1      42.492 -18.356   2.125  1.00  0.00    -0.351 N 
HETATM   14  C   UNL     1      43.797 -18.708   2.387  1.00  0.00     0.253 C 
HETATM   15  O   UNL     1      44.747 -18.233   1.770  1.00  0.00    -0.268 OA
HETATM   16  H   UNL     1      41.747 -18.817   2.636  1.00  0.00     0.163 HD
BRANCH  14  17
HETATM   17  C   UNL     1      44.048 -19.666   3.506  1.00  0.00     0.055 A 
HETATM   18  C   UNL     1      44.418 -21.014   3.360  1.00  0.00     0.049 A 
HETATM   19 CL   UNL     1      44.679 -21.782   1.833  1.00  0.00    -0.083 Cl
HETATM   20  C   UNL     1      44.626 -21.813   4.494  1.00  0.00     0.026 A 
HETATM   21  C   UNL     1      44.476 -21.280   5.776  1.00  0.00     0.021 A 
HETATM   22  C   UNL     1      44.123 -19.944   5.924  1.00  0.00     0.012 A 
HETATM   23 BR   UNL     1      43.926 -19.210   7.654  1.00  0.00    -0.051 Br
HETATM   24  C   UNL     1      43.912 -19.139   4.805  1.00  0.00     0.038 A 
ENDBRANCH  14  17
ENDBRANCH  12  13
ENDBRANCH   9  12
BRANCH   7  25
HETATM   25  C   UNL     1      40.298 -15.138   4.742  1.00  0.00     0.182 C 
BRANCH  25  26
HETATM   26  C   UNL     1      41.256 -14.267   5.562  1.00  0.00     0.256 C 
BRANCH  26  27
HETATM   27  N   UNL     1      42.703 -14.700   5.389  1.00  0.00    -0.070 N 
HETATM   28  H   UNL     1      42.844 -14.941   4.399  1.00  0.00     0.279 HD
HETATM   29  C   UNL     1      43.044 -15.936   6.206  1.00  0.00     0.235 C 
HETATM   30  C   UNL     1      44.019 -15.443   7.255  1.00  0.00     0.029 C 
HETATM   31  C   UNL     1      44.792 -14.366   6.522  1.00  0.00     0.029 C 
HETATM   32  C   UNL     1      43.706 -13.622   5.771  1.00  0.00     0.235 C 
ENDBRANCH  26  27
ENDBRANCH  25  26
ENDBRANCH   7  25
TORSDOF 6
ENDMDL
MODEL 7
REMARK VINA RESULT:      -7.7      3.516      7.588
REMARK  6 active torsions:
REMARK  status: ('A' for Active; 'I' for Inactive)
REMARK    1  A    between atoms: N_7  and  C_8 
REMARK    2  A    between atoms: C_8  and  C_9 
REMARK    3  A    between atoms: C_9  and  N_10 
REMARK    4  A    between atoms: C_17  and  C_18 
REMARK    5  A    between atoms: C_18  and  N_19 
REMARK       I    between atoms: N_19  and  C_20 
REMARK    6  A    between atoms: C_20  and  C_21 
ROOT
HETATM    1  C   UNL     1      40.943 -15.336   4.802  1.00  0.00     0.001 A 
HETATM    2  C   UNL     1      40.920 -16.073   3.615  1.00  0.00     0.014 A 
HETATM    3  C   UNL     1      41.071 -15.422   2.386  1.00  0.00     0.008 A 
HETATM    4  C   UNL     1      41.251 -14.039   2.356  1.00  0.00     0.046 A 
HETATM    5  C   UNL     1      41.436 -13.355   1.063  1.00  0.00     0.274 A 
HETATM    6  O   UNL     1      41.667 -12.150   1.022  1.00  0.00    -0.266 OA
HETATM    7  N   UNL     1      41.343 -14.148  -0.077  1.00  0.00    -0.232 N 
HETATM    8  N   UNL     1      41.178 -15.500  -0.053  1.00  0.00    -0.172 NA
HETATM    9  C   UNL     1      41.052 -16.121   1.081  1.00  0.00     0.084 A 
HETATM   10  C   UNL     1      41.275 -13.302   3.548  1.00  0.00     0.018 A 
HETATM   11  C   UNL     1      41.117 -13.954   4.770  1.00  0.00     0.001 A 
ENDROOT
BRANCH   9  12
HETATM   12  C   UNL     1      40.908 -17.641   1.023  1.00  0.00     0.185 C 
BRANCH  12  13
HETATM   13  N   UNL     1      41.725 -18.253   2.052  1.00  0.00    -0.351 N 
HETATM   14  C   UNL     1      43.048 -18.572   1.841  1.00  0.00     0.253 C 
HETATM   15  O   UNL     1      43.651 -18.251   0.820  1.00  0.00    -0.268 OA
HETATM   16  H   UNL     1      41.268 -18.585   2.894  1.00  0.00     0.163 HD
BRANCH  14  17
HETATM   17  C   UNL     1      43.773 -19.291   2.932  1.00  0.00     0.055 A 
HETATM   18  C   UNL     1      44.194 -20.631   2.889  1.00  0.00     0.049 A 
HETATM   19 CL   UNL     1      43.966 -21.670   1.526  1.00  0.00    -0.083 Cl
HETATM   20  C   UNL     1      44.869 -21.191   3.984  1.00  0.00     0.026 A 
HETATM   21  C   UNL     1      45.136 -20.427   5.121  1.00  0.00     0.021 A 
HETATM   22  C   UNL     1      44.732 -19.098   5.162  1.00  0.00     0.012 A 
HETATM   23 BR   UNL     1      45.096 -18.052   6.693  1.00  0.00    -0.051 Br
HETATM   24  C   UNL     1      44.060 -18.529   4.081  1.00  0.00     0.038 A 
ENDBRANCH  14  17
ENDBRANCH  12  13
ENDBRANCH   9  12
BRANCH   7  25
HETATM   25  C   UNL     1      41.673 -13.561  -1.370  1.00  0.00     0.182 C 
BRANCH  25  26
HETATM   26  C   UNL     1      40.452 -13.355  -2.273  1.00  0.00     0.256 C 
BRANCH  26  27
HETATM   27  N   UNL     1      39.528 -14.562  -2.260  1.00  0.00    -0.070 N 
HETATM   28  H   UNL     1      39.568 -14.979  -1.321  1.00  0.00     0.279 HD
HETATM   29  C   UNL     1      39.956 -15.635  -3.248  1.00  0.00     0.235 C 
HETATM   30  C   UNL     1      38.860 -15.651  -4.293  1.00  0.00     0.029 C 
HETATM   31  C   UNL     1      37.617 -15.335  -3.488  1.00  0.00     0.029 C 
HETATM   32  C   UNL     1      38.080 -14.218  -2.574  1.00  0.00     0.235 C 
ENDBRANCH  26  27
ENDBRANCH  25  26
ENDBRANCH   7  25
TORSDOF 6
ENDMDL
MODEL 8
REMARK VINA RESULT:      -7.7      4.614      7.072
REMARK  6 active torsions:
REMARK  status: ('A' for Active; 'I' for Inactive)
REMARK    1  A    between atoms: N_7  and  C_8 
REMARK    2  A    between atoms: C_8  and  C_9 
REMARK    3  A    between atoms: C_9  and  N_10 
REMARK    4  A    between atoms: C_17  and  C_18 
REMARK    5  A    between atoms: C_18  and  N_19 
REMARK       I    between atoms: N_19  and  C_20 
REMARK    6  A    between atoms: C_20  and  C_21 
ROOT
HETATM    1  C   UNL     1      44.077 -18.348   6.951  1.00  0.00     0.001 A 
HETATM    2  C   UNL     1      44.377 -16.985   7.037  1.00  0.00     0.014 A 
HETATM    3  C   UNL     1      43.972 -16.116   6.018  1.00  0.00     0.008 A 
HETATM    4  C   UNL     1      43.264 -16.616   4.926  1.00  0.00     0.046 A 
HETATM    5  C   UNL     1      42.815 -15.697   3.864  1.00  0.00     0.274 A 
HETATM    6  O   UNL     1      42.130 -16.107   2.931  1.00  0.00    -0.266 OA
HETATM    7  N   UNL     1      43.202 -14.366   3.991  1.00  0.00    -0.232 N 
HETATM    8  N   UNL     1      43.884 -13.870   5.061  1.00  0.00    -0.172 NA
HETATM    9  C   UNL     1      44.253 -14.662   6.023  1.00  0.00     0.084 A 
HETATM   10  C   UNL     1      42.963 -17.982   4.843  1.00  0.00     0.018 A 
HETATM   11  C   UNL     1      43.374 -18.847   5.856  1.00  0.00     0.001 A 
ENDROOT
BRANCH   9  12
HETATM   12  C   UNL     1      44.980 -14.022   7.203  1.00  0.00     0.185 C 
BRANCH  12  13
HETATM   13  N   UNL     1      44.074 -13.154   7.928  1.00  0.00    -0.351 N 
HETATM   14  C   UNL     1      44.527 -12.210   8.823  1.00  0.00     0.253 C 
HETATM   15  O   UNL     1      45.720 -11.959   8.974  1.00  0.00    -0.268 OA
HETATM   16  H   UNL     1      43.081 -13.350   7.882  1.00  0.00     0.163 HD
BRANCH  14  17
HETATM   17  C   UNL     1      43.506 -11.435   9.593  1.00  0.00     0.055 A 
HETATM   18  C   UNL     1      43.244 -11.569  10.967  1.00  0.00     0.049 A 
HETATM   19 CL   UNL     1      44.102 -12.647  12.012  1.00  0.00    -0.083 Cl
HETATM   20  C   UNL     1      42.256 -10.779  11.574  1.00  0.00     0.026 A 
HETATM   21  C   UNL     1      41.530  -9.850  10.825  1.00  0.00     0.021 A 
HETATM   22  C   UNL     1      41.795  -9.707   9.469  1.00  0.00     0.012 A 
HETATM   23 BR   UNL     1      40.824  -8.447   8.449  1.00  0.00    -0.051 Br
HETATM   24  C   UNL     1      42.774 -10.487   8.853  1.00  0.00     0.038 A 
ENDBRANCH  14  17
ENDBRANCH  12  13
ENDBRANCH   9  12
BRANCH   7  25
HETATM   25  C   UNL     1      42.658 -13.384   3.062  1.00  0.00     0.182 C 
BRANCH  25  26
HETATM   26  C   UNL     1      41.340 -12.761   3.537  1.00  0.00     0.256 C 
BRANCH  26  27
HETATM   27  N   UNL     1      41.147 -12.922   5.036  1.00  0.00    -0.070 N 
HETATM   28  H   UNL     1      41.950 -13.450   5.402  1.00  0.00     0.279 HD
HETATM   29  C   UNL     1      39.893 -13.712   5.381  1.00  0.00     0.235 C 
HETATM   30  C   UNL     1      38.980 -12.705   6.049  1.00  0.00     0.029 C 
HETATM   31  C   UNL     1      39.948 -11.806   6.790  1.00  0.00     0.029 C 
HETATM   32  C   UNL     1      41.058 -11.598   5.779  1.00  0.00     0.235 C 
ENDBRANCH  26  27
ENDBRANCH  25  26
ENDBRANCH   7  25
TORSDOF 6
ENDMDL
MODEL 9
REMARK VINA RESULT:      -7.6      1.938      2.215
REMARK  6 active torsions:
REMARK  status: ('A' for Active; 'I' for Inactive)
REMARK    1  A    between atoms: N_7  and  C_8 
REMARK    2  A    between atoms: C_8  and  C_9 
REMARK    3  A    between atoms: C_9  and  N_10 
REMARK    4  A    between atoms: C_17  and  C_18 
REMARK    5  A    between atoms: C_18  and  N_19 
REMARK       I    between atoms: N_19  and  C_20 
REMARK    6  A    between atoms: C_20  and  C_21 
ROOT
HETATM    1  C   UNL     1      44.191 -20.430   2.453  1.00  0.00     0.001 A 
HETATM    2  C   UNL     1      43.475 -19.365   1.901  1.00  0.00     0.014 A 
HETATM    3  C   UNL     1      43.192 -18.236   2.678  1.00  0.00     0.008 A 
HETATM    4  C   UNL     1      43.636 -18.180   3.999  1.00  0.00     0.046 A 
HETATM    5  C   UNL     1      43.361 -16.980   4.811  1.00  0.00     0.274 A 
HETATM    6  O   UNL     1      43.805 -16.882   5.952  1.00  0.00    -0.266 OA
HETATM    7  N   UNL     1      42.593 -15.986   4.210  1.00  0.00    -0.232 N 
HETATM    8  N   UNL     1      42.166 -16.032   2.917  1.00  0.00    -0.172 NA
HETATM    9  C   UNL     1      42.434 -17.067   2.178  1.00  0.00     0.084 A 
HETATM   10  C   UNL     1      44.356 -19.248   4.550  1.00  0.00     0.018 A 
HETATM   11  C   UNL     1      44.629 -20.374   3.776  1.00  0.00     0.001 A 
ENDROOT
BRANCH   9  12
HETATM   12  C   UNL     1      41.952 -17.023   0.729  1.00  0.00     0.185 C 
BRANCH  12  13
HETATM   13  N   UNL     1      40.797 -16.155   0.621  1.00  0.00    -0.351 N 
HETATM   14  C   UNL     1      40.845 -14.956  -0.055  1.00  0.00     0.253 C 
HETATM   15  O   UNL     1      41.823 -14.604  -0.709  1.00  0.00    -0.268 OA
HETATM   16  H   UNL     1      39.980 -16.371   1.181  1.00  0.00     0.163 HD
BRANCH  14  17
HETATM   17  C   UNL     1      39.627 -14.090  -0.023  1.00  0.00     0.055 A 
HETATM   18  C   UNL     1      39.033 -13.560   1.134  1.00  0.00     0.049 A 
HETATM   19 CL   UNL     1      39.648 -13.801   2.732  1.00  0.00    -0.083 Cl
HETATM   20  C   UNL     1      37.887 -12.756   1.031  1.00  0.00     0.026 A 
HETATM   21  C   UNL     1      37.330 -12.470  -0.218  1.00  0.00     0.021 A 
HETATM   22  C   UNL     1      37.923 -12.983  -1.365  1.00  0.00     0.012 A 
HETATM   23 BR   UNL     1      37.183 -12.594  -3.059  1.00  0.00    -0.051 Br
HETATM   24  C   UNL     1      39.062 -13.783  -1.276  1.00  0.00     0.038 A 
ENDBRANCH  14  17
ENDBRANCH  12  13
ENDBRANCH   9  12
BRANCH   7  25
HETATM   25  C   UNL     1      42.422 -14.715   4.902  1.00  0.00     0.182 C 
BRANCH  25  26
HETATM   26  C   UNL     1      41.098 -14.612   5.667  1.00  0.00     0.256 C 
BRANCH  26  27
HETATM   27  N   UNL     1      40.952 -13.272   6.368  1.00  0.00    -0.070 N 
HETATM   28  H   UNL     1      41.292 -13.381   7.332  1.00  0.00     0.279 HD
HETATM   29  C   UNL     1      39.505 -12.810   6.450  1.00  0.00     0.235 C 
HETATM   30  C   UNL     1      39.442 -11.591   5.554  1.00  0.00     0.029 C 
HETATM   31  C   UNL     1      40.806 -10.960   5.740  1.00  0.00     0.029 C 
HETATM   32  C   UNL     1      41.739 -12.153   5.702  1.00  0.00     0.235 C 
ENDBRANCH  26  27
ENDBRANCH  25  26
ENDBRANCH   7  25
TORSDOF 6
ENDMDL
MODEL 10
REMARK VINA RESULT:      -7.5      1.990      2.634
REMARK  6 active torsions:
REMARK  status: ('A' for Active; 'I' for Inactive)
REMARK    1  A    between atoms: N_7  and  C_8 
REMARK    2  A    between atoms: C_8  and  C_9 
REMARK    3  A    between atoms: C_9  and  N_10 
REMARK    4  A    between atoms: C_17  and  C_18 
REMARK    5  A    between atoms: C_18  and  N_19 
REMARK       I    between atoms: N_19  and  C_20 
REMARK    6  A    between atoms: C_20  and  C_21 
ROOT
HETATM    1  C   UNL     1      44.301 -19.693   2.456  1.00  0.00     0.001 A 
HETATM    2  C   UNL     1      43.563 -18.759   1.724  1.00  0.00     0.014 A 
HETATM    3  C   UNL     1      42.689 -17.888   2.384  1.00  0.00     0.008 A 
HETATM    4  C   UNL     1      42.568 -17.954   3.771  1.00  0.00     0.046 A 
HETATM    5  C   UNL     1      41.666 -17.020   4.471  1.00  0.00     0.274 A 
HETATM    6  O   UNL     1      41.599 -17.015   5.696  1.00  0.00    -0.266 OA
HETATM    7  N   UNL     1      40.922 -16.159   3.669  1.00  0.00    -0.232 N 
HETATM    8  N   UNL     1      41.045 -16.082   2.314  1.00  0.00    -0.172 NA
HETATM    9  C   UNL     1      41.864 -16.874   1.688  1.00  0.00     0.084 A 
HETATM   10  C   UNL     1      43.310 -18.890   4.504  1.00  0.00     0.018 A 
HETATM   11  C   UNL     1      44.174 -19.761   3.842  1.00  0.00     0.001 A 
ENDROOT
BRANCH   9  12
HETATM   12  C   UNL     1      41.971 -16.700   0.175  1.00  0.00     0.185 C 
BRANCH  12  13
HETATM   13  N   UNL     1      41.565 -15.359  -0.197  1.00  0.00    -0.351 N 
HETATM   14  C   UNL     1      41.052 -15.070  -1.441  1.00  0.00     0.253 C 
HETATM   15  O   UNL     1      40.791 -15.940  -2.268  1.00  0.00    -0.268 OA
HETATM   16  H   UNL     1      41.804 -14.595   0.425  1.00  0.00     0.163 HD
BRANCH  14  17
HETATM   17  C   UNL     1      40.758 -13.639  -1.757  1.00  0.00     0.055 A 
HETATM   18  C   UNL     1      39.812 -12.835  -1.100  1.00  0.00     0.049 A 
HETATM   19 CL   UNL     1      38.844 -13.375   0.228  1.00  0.00    -0.083 Cl
HETATM   20  C   UNL     1      39.629 -11.500  -1.492  1.00  0.00     0.026 A 
HETATM   21  C   UNL     1      40.387 -10.955  -2.531  1.00  0.00     0.021 A 
HETATM   22  C   UNL     1      41.332 -11.744  -3.175  1.00  0.00     0.012 A 
HETATM   23 BR   UNL     1      42.369 -11.014  -4.576  1.00  0.00    -0.051 Br
HETATM   24  C   UNL     1      41.523 -13.073  -2.795  1.00  0.00     0.038 A 
ENDBRANCH  14  17
ENDBRANCH  12  13
ENDBRANCH   9  12
BRANCH   7  25
HETATM   25  C   UNL     1      40.135 -15.109   4.305  1.00  0.00     0.182 C 
BRANCH  25  26
HETATM   26  C   UNL     1      40.283 -13.743   3.626  1.00  0.00     0.256 C 
BRANCH  26  27
HETATM   27  N   UNL     1      41.573 -13.048   4.029  1.00  0.00    -0.070 N 
HETATM   28  H   UNL     1      41.371 -12.045   4.138  1.00  0.00     0.279 HD
HETATM   29  C   UNL     1      42.660 -13.176   2.972  1.00  0.00     0.235 C 
HETATM   30  C   UNL     1      43.717 -14.049   3.615  1.00  0.00     0.029 C 
HETATM   31  C   UNL     1      43.649 -13.648   5.074  1.00  0.00     0.029 C 
HETATM   32  C   UNL     1      42.157 -13.567   5.334  1.00  0.00     0.235 C 
ENDBRANCH  26  27
ENDBRANCH  25  26
ENDBRANCH   7  25
TORSDOF 6
ENDMDL
