MODEL 1
REMARK VINA RESULT:      -8.0      0.000      0.000
REMARK  5 active torsions:
REMARK  status: ('A' for Active; 'I' for Inactive)
REMARK    1  A    between atoms: C_2  and  C_3 
REMARK       I    between atoms: C_3  and  N_4 
REMARK    2  A    between atoms: N_4  and  C_5 
REMARK    3  A    between atoms: C_5  and  C_6 
REMARK    4  A    between atoms: C_5  and  C_17 
REMARK    5  A    between atoms: C_7  and  O_8 
ROOT
HETATM    1  C   UNL     1      43.187 -15.894   3.247  1.00  0.00     0.154 C 
ENDROOT
BRANCH   1   2
HETATM    2  N   UNL     1      43.222 -15.544   4.657  1.00  0.00    -0.348 N 
HETATM    3  C   UNL     1      43.829 -14.417   5.136  1.00  0.00     0.218 C 
HETATM    4  O   UNL     1      44.336 -13.565   4.409  1.00  0.00    -0.274 OA
HETATM    5  H   UNL     1      42.895 -16.270   5.281  1.00  0.00     0.163 HD
BRANCH   3   6
HETATM    6  C   UNL     1      43.734 -14.208   6.636  1.00  0.00     0.098 C 
HETATM    7  C   UNL     1      45.000 -13.697   7.300  1.00  0.00     0.014 C 
ENDBRANCH   3   6
ENDBRANCH   1   2
BRANCH   1   8
HETATM    8  C   UNL     1      41.848 -15.456   2.663  1.00  0.00     0.005 A 
HETATM    9  C   UNL     1      41.645 -14.180   2.115  1.00  0.00     0.103 A 
HETATM   10  C   UNL     1      40.420 -13.760   1.599  1.00  0.00     0.100 A 
HETATM   11  C   UNL     1      39.347 -14.670   1.613  1.00  0.00    -0.004 A 
HETATM   12  N   UNL     1      40.312 -12.508   1.102  1.00  0.00    -0.257 NA
HETATM   13  C   UNL     1      39.527 -15.960   2.141  1.00  0.00     0.014 A 
HETATM   14  C   UNL     1      38.122 -14.244   1.084  1.00  0.00     0.015 A 
HETATM   15  C   UNL     1      40.764 -16.345   2.662  1.00  0.00     0.013 A 
HETATM   16  C   UNL     1      38.000 -12.956   0.574  1.00  0.00     0.020 A 
HETATM   17  C   UNL     1      39.111 -12.134   0.607  1.00  0.00     0.117 A 
BRANCH   9  18
HETATM   18  O   UNL     1      42.702 -13.294   2.045  1.00  0.00    -0.358 OA
HETATM   19  H   UNL     1      43.486 -13.878   1.936  1.00  0.00     0.218 HD
ENDBRANCH   9  18
ENDBRANCH   1   8
BRANCH   1  20
HETATM   20  C   UNL     1      43.502 -17.363   2.961  1.00  0.00    -0.031 A 
HETATM   21  C   UNL     1      43.757 -18.233   4.038  1.00  0.00     0.010 A 
HETATM   22  C   UNL     1      44.058 -19.581   3.824  1.00  0.00     0.007 A 
HETATM   23  C   UNL     1      44.116 -20.097   2.527  1.00  0.00    -0.062 A 
HETATM   24  C   UNL     1      44.412 -21.546   2.285  1.00  0.00     0.048 C 
HETATM   25  C   UNL     1      43.853 -19.245   1.451  1.00  0.00     0.007 A 
HETATM   26  C   UNL     1      43.556 -17.894   1.664  1.00  0.00     0.010 A 
ENDBRANCH   1  20
TORSDOF 5
ENDMDL
MODEL 2
REMARK VINA RESULT:      -7.8      2.265      3.047
REMARK  5 active torsions:
REMARK  status: ('A' for Active; 'I' for Inactive)
REMARK    1  A    between atoms: C_2  and  C_3 
REMARK       I    between atoms: C_3  and  N_4 
REMARK    2  A    between atoms: N_4  and  C_5 
REMARK    3  A    between atoms: C_5  and  C_6 
REMARK    4  A    between atoms: C_5  and  C_17 
REMARK    5  A    between atoms: C_7  and  O_8 
ROOT
HETATM    1  C   UNL     1      43.997 -15.419   5.932  1.00  0.00     0.154 C 
ENDROOT
BRANCH   1   2
HETATM    2  N   UNL     1      44.018 -14.596   7.129  1.00  0.00    -0.348 N 
HETATM    3  C   UNL     1      44.970 -13.645   7.370  1.00  0.00     0.218 C 
HETATM    4  O   UNL     1      45.851 -13.355   6.563  1.00  0.00    -0.274 OA
HETATM    5  H   UNL     1      43.364 -14.877   7.847  1.00  0.00     0.163 HD
BRANCH   3   6
HETATM    6  C   UNL     1      44.807 -12.866   8.663  1.00  0.00     0.098 C 
HETATM    7  C   UNL     1      45.840 -11.779   8.898  1.00  0.00     0.014 C 
ENDBRANCH   3   6
ENDBRANCH   1   2
BRANCH   1   8
HETATM    8  C   UNL     1      42.885 -14.926   5.014  1.00  0.00     0.005 A 
HETATM    9  C   UNL     1      43.126 -14.064   3.933  1.00  0.00     0.103 A 
HETATM   10  C   UNL     1      42.114 -13.588   3.100  1.00  0.00     0.100 A 
HETATM   11  C   UNL     1      40.795 -14.012   3.348  1.00  0.00    -0.004 A 
HETATM   12  N   UNL     1      42.436 -12.750   2.089  1.00  0.00    -0.257 NA
HETATM   13  C   UNL     1      40.528 -14.889   4.413  1.00  0.00     0.014 A 
HETATM   14  C   UNL     1      39.786 -13.538   2.501  1.00  0.00     0.015 A 
HETATM   15  C   UNL     1      41.563 -15.337   5.237  1.00  0.00     0.013 A 
HETATM   16  C   UNL     1      40.107 -12.672   1.461  1.00  0.00     0.020 A 
HETATM   17  C   UNL     1      41.431 -12.310   1.299  1.00  0.00     0.117 A 
BRANCH   9  18
HETATM   18  O   UNL     1      44.420 -13.680   3.643  1.00  0.00    -0.358 OA
HETATM   19  H   UNL     1      44.961 -14.191   4.287  1.00  0.00     0.218 HD
ENDBRANCH   9  18
ENDBRANCH   1   8
BRANCH   1  20
HETATM   20  C   UNL     1      43.910 -16.921   6.210  1.00  0.00    -0.031 A 
HETATM   21  C   UNL     1      43.735 -17.366   7.533  1.00  0.00     0.010 A 
HETATM   22  C   UNL     1      43.659 -18.728   7.835  1.00  0.00     0.007 A 
HETATM   23  C   UNL     1      43.760 -19.685   6.822  1.00  0.00    -0.062 A 
HETATM   24  C   UNL     1      43.654 -21.148   7.129  1.00  0.00     0.048 C 
HETATM   25  C   UNL     1      43.922 -19.254   5.502  1.00  0.00     0.007 A 
HETATM   26  C   UNL     1      44.003 -17.891   5.200  1.00  0.00     0.010 A 
ENDBRANCH   1  20
TORSDOF 5
ENDMDL
MODEL 3
REMARK VINA RESULT:      -7.5      2.077      6.504
REMARK  5 active torsions:
REMARK  status: ('A' for Active; 'I' for Inactive)
REMARK    1  A    between atoms: C_2  and  C_3 
REMARK       I    between atoms: C_3  and  N_4 
REMARK    2  A    between atoms: N_4  and  C_5 
REMARK    3  A    between atoms: C_5  and  C_6 
REMARK    4  A    between atoms: C_5  and  C_17 
REMARK    5  A    between atoms: C_7  and  O_8 
ROOT
HETATM    1  C   UNL     1      42.523 -16.495   4.265  1.00  0.00     0.154 C 
ENDROOT
BRANCH   1   2
HETATM    2  N   UNL     1      43.597 -15.680   4.806  1.00  0.00    -0.348 N 
HETATM    3  C   UNL     1      43.677 -15.319   6.122  1.00  0.00     0.218 C 
HETATM    4  O   UNL     1      42.885 -15.711   6.976  1.00  0.00    -0.274 OA
HETATM    5  H   UNL     1      44.207 -15.269   4.111  1.00  0.00     0.163 HD
BRANCH   3   6
HETATM    6  C   UNL     1      44.890 -14.489   6.502  1.00  0.00     0.098 C 
HETATM    7  C   UNL     1      44.720 -13.625   7.739  1.00  0.00     0.014 C 
ENDBRANCH   3   6
ENDBRANCH   1   2
BRANCH   1   8
HETATM    8  C   UNL     1      43.086 -17.859   3.879  1.00  0.00     0.005 A 
HETATM    9  C   UNL     1      43.462 -18.817   4.833  1.00  0.00     0.103 A 
HETATM   10  C   UNL     1      43.999 -20.058   4.493  1.00  0.00     0.100 A 
HETATM   11  C   UNL     1      44.148 -20.366   3.127  1.00  0.00    -0.004 A 
HETATM   12  N   UNL     1      44.346 -20.916   5.478  1.00  0.00    -0.257 NA
HETATM   13  C   UNL     1      43.763 -19.431   2.151  1.00  0.00     0.014 A 
HETATM   14  C   UNL     1      44.678 -21.618   2.794  1.00  0.00     0.015 A 
HETATM   15  C   UNL     1      43.240 -18.192   2.526  1.00  0.00     0.013 A 
HETATM   16  C   UNL     1      45.042 -22.505   3.801  1.00  0.00     0.020 A 
HETATM   17  C   UNL     1      44.861 -22.111   5.114  1.00  0.00     0.117 A 
BRANCH   9  18
HETATM   18  O   UNL     1      43.274 -18.552   6.175  1.00  0.00    -0.358 OA
HETATM   19  H   UNL     1      44.116 -18.848   6.588  1.00  0.00     0.218 HD
ENDBRANCH   9  18
ENDBRANCH   1   8
BRANCH   1  20
HETATM   20  C   UNL     1      41.750 -15.832   3.124  1.00  0.00    -0.031 A 
HETATM   21  C   UNL     1      42.376 -14.824   2.366  1.00  0.00     0.010 A 
HETATM   22  C   UNL     1      41.705 -14.184   1.320  1.00  0.00     0.007 A 
HETATM   23  C   UNL     1      40.389 -14.532   1.004  1.00  0.00    -0.062 A 
HETATM   24  C   UNL     1      39.668 -13.871  -0.132  1.00  0.00     0.048 C 
HETATM   25  C   UNL     1      39.763 -15.540   1.742  1.00  0.00     0.007 A 
HETATM   26  C   UNL     1      40.432 -16.178   2.792  1.00  0.00     0.010 A 
ENDBRANCH   1  20
TORSDOF 5
ENDMDL
MODEL 4
REMARK VINA RESULT:      -7.4      1.321      1.719
REMARK  5 active torsions:
REMARK  status: ('A' for Active; 'I' for Inactive)
REMARK    1  A    between atoms: C_2  and  C_3 
REMARK       I    between atoms: C_3  and  N_4 
REMARK    2  A    between atoms: N_4  and  C_5 
REMARK    3  A    between atoms: C_5  and  C_6 
REMARK    4  A    between atoms: C_5  and  C_17 
REMARK    5  A    between atoms: C_7  and  O_8 
ROOT
HETATM    1  C   UNL     1      43.260 -15.689   2.778  1.00  0.00     0.154 C 
ENDROOT
BRANCH   1   2
HETATM    2  N   UNL     1      43.029 -15.303   4.159  1.00  0.00    -0.348 N 
HETATM    3  C   UNL     1      43.654 -14.245   4.758  1.00  0.00     0.218 C 
HETATM    4  O   UNL     1      44.411 -13.484   4.159  1.00  0.00    -0.274 OA
HETATM    5  H   UNL     1      42.485 -15.964   4.698  1.00  0.00     0.163 HD
BRANCH   3   6
HETATM    6  C   UNL     1      43.260 -13.981   6.200  1.00  0.00     0.098 C 
HETATM    7  C   UNL     1      44.394 -14.065   7.206  1.00  0.00     0.014 C 
ENDBRANCH   3   6
ENDBRANCH   1   2
BRANCH   1   8
HETATM    8  C   UNL     1      42.153 -15.099   1.910  1.00  0.00     0.005 A 
HETATM    9  C   UNL     1      40.792 -15.263   2.209  1.00  0.00     0.103 A 
HETATM   10  C   UNL     1      39.771 -14.748   1.411  1.00  0.00     0.100 A 
HETATM   11  C   UNL     1      40.130 -14.013   0.265  1.00  0.00    -0.004 A 
HETATM   12  N   UNL     1      38.486 -14.964   1.768  1.00  0.00    -0.257 NA
HETATM   13  C   UNL     1      41.486 -13.820  -0.049  1.00  0.00     0.014 A 
HETATM   14  C   UNL     1      39.099 -13.491  -0.526  1.00  0.00     0.015 A 
HETATM   15  C   UNL     1      42.484 -14.360   0.765  1.00  0.00     0.013 A 
HETATM   16  C   UNL     1      37.774 -13.712  -0.168  1.00  0.00     0.020 A 
HETATM   17  C   UNL     1      37.521 -14.449   0.974  1.00  0.00     0.117 A 
BRANCH   9  18
HETATM   18  O   UNL     1      40.423 -15.935   3.357  1.00  0.00    -0.358 OA
HETATM   19  H   UNL     1      40.440 -15.235   4.048  1.00  0.00     0.218 HD
ENDBRANCH   9  18
ENDBRANCH   1   8
BRANCH   1  20
HETATM   20  C   UNL     1      43.432 -17.195   2.571  1.00  0.00    -0.031 A 
HETATM   21  C   UNL     1      43.639 -18.022   3.690  1.00  0.00     0.010 A 
HETATM   22  C   UNL     1      43.810 -19.402   3.548  1.00  0.00     0.007 A 
HETATM   23  C   UNL     1      43.782 -19.993   2.282  1.00  0.00    -0.062 A 
HETATM   24  C   UNL     1      43.938 -21.475   2.119  1.00  0.00     0.048 C 
HETATM   25  C   UNL     1      43.564 -19.182   1.165  1.00  0.00     0.007 A 
HETATM   26  C   UNL     1      43.398 -17.800   1.306  1.00  0.00     0.010 A 
ENDBRANCH   1  20
TORSDOF 5
ENDMDL
MODEL 5
REMARK VINA RESULT:      -7.2      2.113      4.676
REMARK  5 active torsions:
REMARK  status: ('A' for Active; 'I' for Inactive)
REMARK    1  A    between atoms: C_2  and  C_3 
REMARK       I    between atoms: C_3  and  N_4 
REMARK    2  A    between atoms: N_4  and  C_5 
REMARK    3  A    between atoms: C_5  and  C_6 
REMARK    4  A    between atoms: C_5  and  C_17 
REMARK    5  A    between atoms: C_7  and  O_8 
ROOT
HETATM    1  C   UNL     1      42.574 -17.160   3.686  1.00  0.00     0.154 C 
ENDROOT
BRANCH   1   2
HETATM    2  N   UNL     1      43.511 -18.098   3.092  1.00  0.00    -0.348 N 
HETATM    3  C   UNL     1      43.860 -19.283   3.677  1.00  0.00     0.218 C 
HETATM    4  O   UNL     1      43.358 -19.691   4.722  1.00  0.00    -0.274 OA
HETATM    5  H   UNL     1      44.006 -17.746   2.283  1.00  0.00     0.163 HD
BRANCH   3   6
HETATM    6  C   UNL     1      44.831 -20.143   2.888  1.00  0.00     0.098 C 
HETATM    7  C   UNL     1      44.207 -21.315   2.152  1.00  0.00     0.014 C 
ENDBRANCH   3   6
ENDBRANCH   1   2
BRANCH   1   8
HETATM    8  C   UNL     1      41.859 -16.404   2.571  1.00  0.00     0.005 A 
HETATM    9  C   UNL     1      40.619 -15.775   2.761  1.00  0.00     0.103 A 
HETATM   10  C   UNL     1      39.945 -15.101   1.744  1.00  0.00     0.100 A 
HETATM   11  C   UNL     1      40.552 -15.034   0.476  1.00  0.00    -0.004 A 
HETATM   12  N   UNL     1      38.748 -14.534   2.014  1.00  0.00    -0.257 NA
HETATM   13  C   UNL     1      41.801 -15.641   0.263  1.00  0.00     0.014 A 
HETATM   14  C   UNL     1      39.873 -14.346  -0.538  1.00  0.00     0.015 A 
HETATM   15  C   UNL     1      42.444 -16.320   1.300  1.00  0.00     0.013 A 
HETATM   16  C   UNL     1      38.639 -13.764  -0.271  1.00  0.00     0.020 A 
HETATM   17  C   UNL     1      38.123 -13.886   1.006  1.00  0.00     0.117 A 
BRANCH   9  18
HETATM   18  O   UNL     1      40.035 -15.785   4.013  1.00  0.00    -0.358 OA
HETATM   19  H   UNL     1      39.369 -16.505   3.949  1.00  0.00     0.218 HD
ENDBRANCH   9  18
ENDBRANCH   1   8
BRANCH   1  20
HETATM   20  C   UNL     1      43.200 -16.226   4.724  1.00  0.00    -0.031 A 
HETATM   21  C   UNL     1      43.490 -14.897   4.365  1.00  0.00     0.010 A 
HETATM   22  C   UNL     1      44.071 -14.012   5.278  1.00  0.00     0.007 A 
HETATM   23  C   UNL     1      44.379 -14.432   6.574  1.00  0.00    -0.062 A 
HETATM   24  C   UNL     1      44.977 -13.484   7.570  1.00  0.00     0.048 C 
HETATM   25  C   UNL     1      44.083 -15.746   6.945  1.00  0.00     0.007 A 
HETATM   26  C   UNL     1      43.507 -16.635   6.031  1.00  0.00     0.010 A 
ENDBRANCH   1  20
TORSDOF 5
ENDMDL
MODEL 6
REMARK VINA RESULT:      -7.1      2.227      2.528
REMARK  5 active torsions:
REMARK  status: ('A' for Active; 'I' for Inactive)
REMARK    1  A    between atoms: C_2  and  C_3 
REMARK       I    between atoms: C_3  and  N_4 
REMARK    2  A    between atoms: N_4  and  C_5 
REMARK    3  A    between atoms: C_5  and  C_6 
REMARK    4  A    between atoms: C_5  and  C_17 
REMARK    5  A    between atoms: C_7  and  O_8 
ROOT
HETATM    1  C   UNL     1      42.675 -15.069   2.320  1.00  0.00     0.154 C 
ENDROOT
BRANCH   1   2
HETATM    2  N   UNL     1      41.820 -14.657   3.420  1.00  0.00    -0.348 N 
HETATM    3  C   UNL     1      42.188 -13.721   4.346  1.00  0.00     0.218 C 
HETATM    4  O   UNL     1      43.244 -13.095   4.288  1.00  0.00    -0.274 OA
HETATM    5  H   UNL     1      40.990 -15.220   3.544  1.00  0.00     0.163 HD
BRANCH   3   6
HETATM    6  C   UNL     1      41.147 -13.402   5.404  1.00  0.00     0.098 C 
HETATM    7  C   UNL     1      40.229 -14.553   5.777  1.00  0.00     0.014 C 
ENDBRANCH   3   6
ENDBRANCH   1   2
BRANCH   1   8
HETATM    8  C   UNL     1      42.021 -14.655   1.006  1.00  0.00     0.005 A 
HETATM    9  C   UNL     1      41.955 -13.318   0.584  1.00  0.00     0.103 A 
HETATM   10  C   UNL     1      41.340 -12.925  -0.603  1.00  0.00     0.100 A 
HETATM   11  C   UNL     1      40.779 -13.922  -1.423  1.00  0.00    -0.004 A 
HETATM   12  N   UNL     1      41.313 -11.612  -0.925  1.00  0.00    -0.257 NA
HETATM   13  C   UNL     1      40.846 -15.270  -1.033  1.00  0.00     0.014 A 
HETATM   14  C   UNL     1      40.172 -13.520  -2.619  1.00  0.00     0.015 A 
HETATM   15  C   UNL     1      41.458 -15.630   0.170  1.00  0.00     0.013 A 
HETATM   16  C   UNL     1      40.135 -12.171  -2.956  1.00  0.00     0.020 A 
HETATM   17  C   UNL     1      40.711 -11.265  -2.085  1.00  0.00     0.117 A 
BRANCH   9  18
HETATM   18  O   UNL     1      42.547 -12.333   1.350  1.00  0.00    -0.358 OA
HETATM   19  H   UNL     1      41.871 -11.619   1.368  1.00  0.00     0.218 HD
ENDBRANCH   9  18
ENDBRANCH   1   8
BRANCH   1  20
HETATM   20  C   UNL     1      43.056 -16.550   2.347  1.00  0.00    -0.031 A 
HETATM   21  C   UNL     1      42.565 -17.366   3.382  1.00  0.00     0.010 A 
HETATM   22  C   UNL     1      42.895 -18.723   3.453  1.00  0.00     0.007 A 
HETATM   23  C   UNL     1      43.728 -19.301   2.491  1.00  0.00    -0.062 A 
HETATM   24  C   UNL     1      44.068 -20.760   2.541  1.00  0.00     0.048 C 
HETATM   25  C   UNL     1      44.212 -18.501   1.451  1.00  0.00     0.007 A 
HETATM   26  C   UNL     1      43.886 -17.143   1.383  1.00  0.00     0.010 A 
ENDBRANCH   1  20
TORSDOF 5
ENDMDL
MODEL 7
REMARK VINA RESULT:      -7.1      2.767      3.835
REMARK  5 active torsions:
REMARK  status: ('A' for Active; 'I' for Inactive)
REMARK    1  A    between atoms: C_2  and  C_3 
REMARK       I    between atoms: C_3  and  N_4 
REMARK    2  A    between atoms: N_4  and  C_5 
REMARK    3  A    between atoms: C_5  and  C_6 
REMARK    4  A    between atoms: C_5  and  C_17 
REMARK    5  A    between atoms: C_7  and  O_8 
ROOT
HETATM    1  C   UNL     1      44.280 -15.053   6.360  1.00  0.00     0.154 C 
ENDROOT
BRANCH   1   2
HETATM    2  N   UNL     1      44.046 -14.230   7.534  1.00  0.00    -0.348 N 
HETATM    3  C   UNL     1      44.936 -13.298   7.988  1.00  0.00     0.218 C 
HETATM    4  O   UNL     1      45.982 -13.025   7.402  1.00  0.00    -0.274 OA
HETATM    5  H   UNL     1      43.240 -14.498   8.084  1.00  0.00     0.163 HD
BRANCH   3   6
HETATM    6  C   UNL     1      44.499 -12.515   9.213  1.00  0.00     0.098 C 
HETATM    7  C   UNL     1      45.532 -11.550   9.767  1.00  0.00     0.014 C 
ENDBRANCH   3   6
ENDBRANCH   1   2
BRANCH   1   8
HETATM    8  C   UNL     1      43.414 -14.538   5.215  1.00  0.00     0.005 A 
HETATM    9  C   UNL     1      42.017 -14.454   5.305  1.00  0.00     0.103 A 
HETATM   10  C   UNL     1      41.213 -14.007   4.258  1.00  0.00     0.100 A 
HETATM   11  C   UNL     1      41.840 -13.603   3.065  1.00  0.00    -0.004 A 
HETATM   12  N   UNL     1      39.872 -13.971   4.428  1.00  0.00    -0.257 NA
HETATM   13  C   UNL     1      43.240 -13.661   2.953  1.00  0.00     0.014 A 
HETATM   14  C   UNL     1      41.027 -13.145   2.021  1.00  0.00     0.015 A 
HETATM   15  C   UNL     1      44.016 -14.126   4.017  1.00  0.00     0.013 A 
HETATM   16  C   UNL     1      39.646 -13.109   2.185  1.00  0.00     0.020 A 
HETATM   17  C   UNL     1      39.122 -13.530   3.394  1.00  0.00     0.117 A 
BRANCH   9  18
HETATM   18  O   UNL     1      41.389 -14.797   6.487  1.00  0.00    -0.358 OA
HETATM   19  H   UNL     1      40.713 -15.454   6.206  1.00  0.00     0.218 HD
ENDBRANCH   9  18
ENDBRANCH   1   8
BRANCH   1  20
HETATM   20  C   UNL     1      44.104 -16.553   6.604  1.00  0.00    -0.031 A 
HETATM   21  C   UNL     1      44.262 -17.447   5.529  1.00  0.00     0.010 A 
HETATM   22  C   UNL     1      44.101 -18.824   5.704  1.00  0.00     0.007 A 
HETATM   23  C   UNL     1      43.775 -19.346   6.959  1.00  0.00    -0.062 A 
HETATM   24  C   UNL     1      43.626 -20.823   7.164  1.00  0.00     0.048 C 
HETATM   25  C   UNL     1      43.629 -18.468   8.036  1.00  0.00     0.007 A 
HETATM   26  C   UNL     1      43.784 -17.089   7.861  1.00  0.00     0.010 A 
ENDBRANCH   1  20
TORSDOF 5
ENDMDL
MODEL 8
REMARK VINA RESULT:      -6.9      2.431      6.203
REMARK  5 active torsions:
REMARK  status: ('A' for Active; 'I' for Inactive)
REMARK    1  A    between atoms: C_2  and  C_3 
REMARK       I    between atoms: C_3  and  N_4 
REMARK    2  A    between atoms: N_4  and  C_5 
REMARK    3  A    between atoms: C_5  and  C_6 
REMARK    4  A    between atoms: C_5  and  C_17 
REMARK    5  A    between atoms: C_7  and  O_8 
ROOT
HETATM    1  C   UNL     1      41.567 -15.823   2.751  1.00  0.00     0.154 C 
ENDROOT
BRANCH   1   2
HETATM    2  N   UNL     1      41.978 -14.804   3.702  1.00  0.00    -0.348 N 
HETATM    3  C   UNL     1      41.152 -14.304   4.670  1.00  0.00     0.218 C 
HETATM    4  O   UNL     1      40.013 -14.723   4.865  1.00  0.00    -0.274 OA
HETATM    5  H   UNL     1      42.874 -14.378   3.505  1.00  0.00     0.163 HD
BRANCH   3   6
HETATM    6  C   UNL     1      41.771 -13.266   5.588  1.00  0.00     0.098 C 
HETATM    7  C   UNL     1      43.169 -13.593   6.084  1.00  0.00     0.014 C 
ENDBRANCH   3   6
ENDBRANCH   1   2
BRANCH   1   8
HETATM    8  C   UNL     1      42.459 -17.047   2.924  1.00  0.00     0.005 A 
HETATM    9  C   UNL     1      42.584 -17.722   4.148  1.00  0.00     0.103 A 
HETATM   10  C   UNL     1      43.414 -18.829   4.325  1.00  0.00     0.100 A 
HETATM   11  C   UNL     1      44.140 -19.298   3.215  1.00  0.00    -0.004 A 
HETATM   12  N   UNL     1      43.482 -19.409   5.544  1.00  0.00    -0.257 NA
HETATM   13  C   UNL     1      44.020 -18.652   1.973  1.00  0.00     0.014 A 
HETATM   14  C   UNL     1      44.963 -20.416   3.398  1.00  0.00     0.015 A 
HETATM   15  C   UNL     1      43.190 -17.537   1.833  1.00  0.00     0.013 A 
HETATM   16  C   UNL     1      45.044 -21.018   4.650  1.00  0.00     0.020 A 
HETATM   17  C   UNL     1      44.294 -20.482   5.680  1.00  0.00     0.117 A 
BRANCH   9  18
HETATM   18  O   UNL     1      41.838 -17.307   5.234  1.00  0.00    -0.358 OA
HETATM   19  H   UNL     1      42.193 -16.410   5.427  1.00  0.00     0.218 HD
ENDBRANCH   9  18
ENDBRANCH   1   8
BRANCH   1  20
HETATM   20  C   UNL     1      41.510 -15.336   1.302  1.00  0.00    -0.031 A 
HETATM   21  C   UNL     1      41.122 -16.235   0.291  1.00  0.00     0.010 A 
HETATM   22  C   UNL     1      41.063 -15.837  -1.048  1.00  0.00     0.007 A 
HETATM   23  C   UNL     1      41.394 -14.529  -1.414  1.00  0.00    -0.062 A 
HETATM   24  C   UNL     1      41.311 -14.083  -2.842  1.00  0.00     0.048 C 
HETATM   25  C   UNL     1      41.769 -13.625  -0.416  1.00  0.00     0.007 A 
HETATM   26  C   UNL     1      41.833 -14.024   0.924  1.00  0.00     0.010 A 
ENDBRANCH   1  20
TORSDOF 5
ENDMDL
MODEL 9
REMARK VINA RESULT:      -6.8      2.506      6.905
REMARK  5 active torsions:
REMARK  status: ('A' for Active; 'I' for Inactive)
REMARK    1  A    between atoms: C_2  and  C_3 
REMARK       I    between atoms: C_3  and  N_4 
REMARK    2  A    between atoms: N_4  and  C_5 
REMARK    3  A    between atoms: C_5  and  C_6 
REMARK    4  A    between atoms: C_5  and  C_17 
REMARK    5  A    between atoms: C_7  and  O_8 
ROOT
HETATM    1  C   UNL     1      42.765 -14.782   3.284  1.00  0.00     0.154 C 
ENDROOT
BRANCH   1   2
HETATM    2  N   UNL     1      42.179 -14.905   1.960  1.00  0.00    -0.348 N 
HETATM    3  C   UNL     1      42.047 -13.854   1.096  1.00  0.00     0.218 C 
HETATM    4  O   UNL     1      42.477 -12.728   1.336  1.00  0.00    -0.274 OA
HETATM    5  H   UNL     1      41.735 -15.795   1.776  1.00  0.00     0.163 HD
BRANCH   3   6
HETATM    6  C   UNL     1      41.437 -14.187  -0.253  1.00  0.00     0.098 C 
HETATM    7  C   UNL     1      41.187 -15.664  -0.503  1.00  0.00     0.014 C 
ENDBRANCH   3   6
ENDBRANCH   1   2
BRANCH   1   8
HETATM    8  C   UNL     1      43.202 -16.163   3.760  1.00  0.00     0.005 A 
HETATM    9  C   UNL     1      43.638 -17.162   2.877  1.00  0.00     0.103 A 
HETATM   10  C   UNL     1      44.019 -18.436   3.298  1.00  0.00     0.100 A 
HETATM   11  C   UNL     1      43.982 -18.718   4.677  1.00  0.00    -0.004 A 
HETATM   12  N   UNL     1      44.413 -19.342   2.376  1.00  0.00    -0.257 NA
HETATM   13  C   UNL     1      43.566 -17.730   5.585  1.00  0.00     0.014 A 
HETATM   14  C   UNL     1      44.375 -19.996   5.093  1.00  0.00     0.015 A 
HETATM   15  C   UNL     1      43.179 -16.468   5.129  1.00  0.00     0.013 A 
HETATM   16  C   UNL     1      44.778 -20.936   4.150  1.00  0.00     0.020 A 
HETATM   17  C   UNL     1      44.778 -20.565   2.818  1.00  0.00     0.117 A 
BRANCH   9  18
HETATM   18  O   UNL     1      43.731 -16.885   1.527  1.00  0.00    -0.358 OA
HETATM   19  H   UNL     1      43.554 -15.919   1.479  1.00  0.00     0.218 HD
ENDBRANCH   9  18
ENDBRANCH   1   8
BRANCH   1  20
HETATM   20  C   UNL     1      41.871 -14.064   4.297  1.00  0.00    -0.031 A 
HETATM   21  C   UNL     1      42.404 -13.002   5.051  1.00  0.00     0.010 A 
HETATM   22  C   UNL     1      41.628 -12.324   5.995  1.00  0.00     0.007 A 
HETATM   23  C   UNL     1      40.297 -12.690   6.213  1.00  0.00    -0.062 A 
HETATM   24  C   UNL     1      39.446 -11.954   7.203  1.00  0.00     0.048 C 
HETATM   25  C   UNL     1      39.754 -13.736   5.461  1.00  0.00     0.007 A 
HETATM   26  C   UNL     1      40.532 -14.419   4.520  1.00  0.00     0.010 A 
ENDBRANCH   1  20
TORSDOF 5
ENDMDL
MODEL 10
REMARK VINA RESULT:      -6.8      1.844      2.191
REMARK  5 active torsions:
REMARK  status: ('A' for Active; 'I' for Inactive)
REMARK    1  A    between atoms: C_2  and  C_3 
REMARK       I    between atoms: C_3  and  N_4 
REMARK    2  A    between atoms: N_4  and  C_5 
REMARK    3  A    between atoms: C_5  and  C_6 
REMARK    4  A    between atoms: C_5  and  C_17 
REMARK    5  A    between atoms: C_7  and  O_8 
ROOT
HETATM    1  C   UNL     1      43.446 -16.826   3.772  1.00  0.00     0.154 C 
ENDROOT
BRANCH   1   2
HETATM    2  N   UNL     1      43.381 -16.667   5.214  1.00  0.00    -0.348 N 
HETATM    3  C   UNL     1      42.389 -17.206   5.986  1.00  0.00     0.218 C 
HETATM    4  O   UNL     1      41.505 -17.931   5.535  1.00  0.00    -0.274 OA
HETATM    5  H   UNL     1      44.040 -16.001   5.596  1.00  0.00     0.163 HD
BRANCH   3   6
HETATM    6  C   UNL     1      42.510 -16.955   7.478  1.00  0.00     0.098 C 
HETATM    7  C   UNL     1      43.641 -17.696   8.169  1.00  0.00     0.014 C 
ENDBRANCH   3   6
ENDBRANCH   1   2
BRANCH   1   8
HETATM    8  C   UNL     1      42.172 -16.258   3.155  1.00  0.00     0.005 A 
HETATM    9  C   UNL     1      41.870 -14.888   3.174  1.00  0.00     0.103 A 
HETATM   10  C   UNL     1      40.698 -14.360   2.634  1.00  0.00     0.100 A 
HETATM   11  C   UNL     1      39.790 -15.245   2.025  1.00  0.00    -0.004 A 
HETATM   12  N   UNL     1      40.484 -13.027   2.708  1.00  0.00    -0.257 NA
HETATM   13  C   UNL     1      40.075 -16.620   1.977  1.00  0.00     0.014 A 
HETATM   14  C   UNL     1      38.620 -14.706   1.476  1.00  0.00     0.015 A 
HETATM   15  C   UNL     1      41.252 -17.119   2.539  1.00  0.00     0.013 A 
HETATM   16  C   UNL     1      38.388 -13.337   1.551  1.00  0.00     0.020 A 
HETATM   17  C   UNL     1      39.339 -12.548   2.173  1.00  0.00     0.117 A 
BRANCH   9  18
HETATM   18  O   UNL     1      42.775 -13.999   3.720  1.00  0.00    -0.358 OA
HETATM   19  H   UNL     1      43.251 -13.644   2.936  1.00  0.00     0.218 HD
ENDBRANCH   9  18
ENDBRANCH   1   8
BRANCH   1  20
HETATM   20  C   UNL     1      43.735 -18.257   3.314  1.00  0.00    -0.031 A 
HETATM   21  C   UNL     1      43.386 -18.643   2.007  1.00  0.00     0.010 A 
HETATM   22  C   UNL     1      43.624 -19.942   1.549  1.00  0.00     0.007 A 
HETATM   23  C   UNL     1      44.214 -20.892   2.387  1.00  0.00    -0.062 A 
HETATM   24  C   UNL     1      44.498 -22.281   1.899  1.00  0.00     0.048 C 
HETATM   25  C   UNL     1      44.576 -20.515   3.683  1.00  0.00     0.007 A 
HETATM   26  C   UNL     1      44.334 -19.217   4.144  1.00  0.00     0.010 A 
ENDBRANCH   1  20
TORSDOF 5
ENDMDL
