MODEL 1
REMARK VINA RESULT:      -7.8      0.000      0.000
REMARK  8 active torsions:
REMARK  status: ('A' for Active; 'I' for Inactive)
REMARK    1  A    between atoms: C_2  and  N_3 
REMARK    2  A    between atoms: N_3  and  C_5 
REMARK    3  A    between atoms: N_3  and  C_29 
REMARK    4  A    between atoms: C_5  and  C_6 
REMARK    5  A    between atoms: C_6  and  N_7 
REMARK       I    between atoms: N_7  and  C_8 
REMARK    6  A    between atoms: C_8  and  C_9 
REMARK    7  A    between atoms: C_9  and  O_10 
REMARK    8  A    between atoms: N_11  and  C_12 
ROOT
HETATM    1  C   UNL     1      40.605 -15.891   2.198  1.00  0.00     0.256 C 
HETATM    2  N   UNL     1      40.459 -15.021   1.011  1.00  0.00    -0.254 N 
HETATM    3  C   UNL     1      41.197 -15.279  -0.140  1.00  0.00     0.330 C 
HETATM    4  O   UNL     1      41.019 -14.754  -1.238  1.00  0.00    -0.246 OA
HETATM    5  N   UNL     1      42.223 -16.167  -0.059  1.00  0.00    -0.308 N 
HETATM    6  C   UNL     1      42.574 -16.916   1.047  1.00  0.00     0.048 A 
HETATM    7  C   UNL     1      41.799 -16.823   2.189  1.00  0.00     0.034 A 
HETATM    8  C   UNL     1      43.674 -17.773   0.984  1.00  0.00     0.030 A 
HETATM    9  C   UNL     1      44.003 -18.559   2.086  1.00  0.00     0.002 A 
HETATM   10  C   UNL     1      43.218 -18.504   3.235  1.00  0.00     0.001 A 
HETATM   11  C   UNL     1      42.114 -17.650   3.283  1.00  0.00     0.015 A 
HETATM   12  H   UNL     1      42.722 -16.295  -0.932  1.00  0.00     0.170 HD
ENDROOT
BRANCH   1  13
HETATM   13  C   UNL     1      40.783 -14.943   3.484  1.00  0.00     0.279 C 
HETATM   14  N   UNL     1      42.009 -14.287   3.598  1.00  0.00    -0.355 N 
HETATM   15  H   UNL     1      42.530 -14.239   2.724  1.00  0.00     0.162 HD
HETATM   16  O   UNL     1      39.949 -14.859   4.388  1.00  0.00    -0.268 OA
BRANCH  14  17
HETATM   17  C   UNL     1      42.143 -13.142   4.489  1.00  0.00     0.150 C 
BRANCH  17  18
HETATM   18  C   UNL     1      42.726 -13.388   5.900  1.00  0.00     0.254 C 
BRANCH  18  19
HETATM   19  N   UNL     1      43.757 -14.515   5.997  1.00  0.00    -0.070 N 
HETATM   20  H   UNL     1      44.010 -14.700   5.018  1.00  0.00     0.279 HD
BRANCH  19  21
HETATM   21  C   UNL     1      43.239 -15.821   6.559  1.00  0.00     0.230 C 
HETATM   22  C   UNL     1      44.337 -16.867   6.610  1.00  0.00     0.034 C 
ENDBRANCH  19  21
BRANCH  19  23
HETATM   23  C   UNL     1      45.048 -14.059   6.653  1.00  0.00     0.230 C 
HETATM   24  C   UNL     1      44.759 -13.305   7.941  1.00  0.00     0.034 C 
ENDBRANCH  19  23
ENDBRANCH  18  19
ENDBRANCH  17  18
ENDBRANCH  14  17
ENDBRANCH   1  13
BRANCH   1  25
HETATM   25  O   UNL     1      39.482 -16.751   2.239  1.00  0.00    -0.359 OA
HETATM   26  H   UNL     1      39.008 -16.600   1.404  1.00  0.00     0.213 HD
ENDBRANCH   1  25
BRANCH   2  27
HETATM   27  C   UNL     1      39.480 -13.938   1.035  1.00  0.00     0.043 A 
HETATM   28  C   UNL     1      39.852 -12.595   1.238  1.00  0.00     0.031 A 
HETATM   29  C   UNL     1      38.912 -11.555   1.200  1.00  0.00     0.026 A 
HETATM   30  C   UNL     1      37.574 -11.835   0.954  1.00  0.00     0.034 A 
HETATM   31 CL   UNL     1      36.426 -10.559   0.885  1.00  0.00    -0.084 Cl
HETATM   32  C   UNL     1      37.173 -13.147   0.749  1.00  0.00     0.026 A 
HETATM   33  C   UNL     1      38.117 -14.182   0.786  1.00  0.00     0.031 A 
ENDBRANCH   2  27
TORSDOF 8
ENDMDL
MODEL 2
REMARK VINA RESULT:      -7.7      3.012      4.491
REMARK  8 active torsions:
REMARK  status: ('A' for Active; 'I' for Inactive)
REMARK    1  A    between atoms: C_2  and  N_3 
REMARK    2  A    between atoms: N_3  and  C_5 
REMARK    3  A    between atoms: N_3  and  C_29 
REMARK    4  A    between atoms: C_5  and  C_6 
REMARK    5  A    between atoms: C_6  and  N_7 
REMARK       I    between atoms: N_7  and  C_8 
REMARK    6  A    between atoms: C_8  and  C_9 
REMARK    7  A    between atoms: C_9  and  O_10 
REMARK    8  A    between atoms: N_11  and  C_12 
ROOT
HETATM    1  C   UNL     1      42.680 -15.499   5.869  1.00  0.00     0.256 C 
HETATM    2  N   UNL     1      41.723 -14.959   4.879  1.00  0.00    -0.254 N 
HETATM    3  C   UNL     1      41.315 -15.741   3.803  1.00  0.00     0.330 C 
HETATM    4  O   UNL     1      40.389 -15.478   3.038  1.00  0.00    -0.246 OA
HETATM    5  N   UNL     1      42.002 -16.884   3.543  1.00  0.00    -0.308 N 
HETATM    6  C   UNL     1      43.038 -17.408   4.293  1.00  0.00     0.048 A 
HETATM    7  C   UNL     1      43.406 -16.764   5.461  1.00  0.00     0.034 A 
HETATM    8  C   UNL     1      43.664 -18.585   3.883  1.00  0.00     0.030 A 
HETATM    9  C   UNL     1      44.679 -19.136   4.662  1.00  0.00     0.002 A 
HETATM   10  C   UNL     1      45.046 -18.521   5.857  1.00  0.00     0.001 A 
HETATM   11  C   UNL     1      44.406 -17.348   6.262  1.00  0.00     0.015 A 
HETATM   12  H   UNL     1      41.657 -17.395   2.738  1.00  0.00     0.170 HD
ENDROOT
BRANCH   1  13
HETATM   13  C   UNL     1      43.816 -14.387   6.112  1.00  0.00     0.279 C 
HETATM   14  N   UNL     1      43.977 -13.952   7.429  1.00  0.00    -0.355 N 
HETATM   15  H   UNL     1      43.584 -14.588   8.121  1.00  0.00     0.162 HD
HETATM   16  O   UNL     1      44.450 -13.851   5.202  1.00  0.00    -0.268 OA
BRANCH  14  17
HETATM   17  C   UNL     1      45.193 -13.251   7.820  1.00  0.00     0.150 C 
BRANCH  17  18
HETATM   18  C   UNL     1      45.057 -12.062   8.800  1.00  0.00     0.254 C 
BRANCH  18  19
HETATM   19  N   UNL     1      43.824 -12.095   9.707  1.00  0.00    -0.070 N 
HETATM   20  H   UNL     1      43.297 -12.911   9.372  1.00  0.00     0.279 HD
BRANCH  19  21
HETATM   21  C   UNL     1      42.897 -10.905   9.584  1.00  0.00     0.230 C 
HETATM   22  C   UNL     1      42.318 -10.808   8.184  1.00  0.00     0.034 C 
ENDBRANCH  19  21
BRANCH  19  23
HETATM   23  C   UNL     1      44.179 -12.423  11.146  1.00  0.00     0.230 C 
HETATM   24  C   UNL     1      43.316 -11.623  12.108  1.00  0.00     0.034 C 
ENDBRANCH  19  23
ENDBRANCH  18  19
ENDBRANCH  17  18
ENDBRANCH  14  17
ENDBRANCH   1  13
BRANCH   1  25
HETATM   25  O   UNL     1      41.945 -15.866   7.021  1.00  0.00    -0.359 OA
HETATM   26  H   UNL     1      42.336 -15.359   7.752  1.00  0.00     0.213 HD
ENDBRANCH   1  25
BRANCH   2  27
HETATM   27  C   UNL     1      41.154 -13.630   5.087  1.00  0.00     0.043 A 
HETATM   28  C   UNL     1      41.584 -12.508   4.353  1.00  0.00     0.031 A 
HETATM   29  C   UNL     1      40.991 -11.247   4.516  1.00  0.00     0.026 A 
HETATM   30  C   UNL     1      39.949 -11.081   5.419  1.00  0.00     0.034 A 
HETATM   31 CL   UNL     1      39.208  -9.543   5.603  1.00  0.00    -0.084 Cl
HETATM   32  C   UNL     1      39.500 -12.165   6.159  1.00  0.00     0.026 A 
HETATM   33  C   UNL     1      40.095 -13.423   5.989  1.00  0.00     0.031 A 
ENDBRANCH   2  27
TORSDOF 8
ENDMDL
MODEL 3
REMARK VINA RESULT:      -7.5      1.960      2.747
REMARK  8 active torsions:
REMARK  status: ('A' for Active; 'I' for Inactive)
REMARK    1  A    between atoms: C_2  and  N_3 
REMARK    2  A    between atoms: N_3  and  C_5 
REMARK    3  A    between atoms: N_3  and  C_29 
REMARK    4  A    between atoms: C_5  and  C_6 
REMARK    5  A    between atoms: C_6  and  N_7 
REMARK       I    between atoms: N_7  and  C_8 
REMARK    6  A    between atoms: C_8  and  C_9 
REMARK    7  A    between atoms: C_9  and  O_10 
REMARK    8  A    between atoms: N_11  and  C_12 
ROOT
HETATM    1  C   UNL     1      40.651 -15.953   2.120  1.00  0.00     0.256 C 
HETATM    2  N   UNL     1      40.531 -15.112   0.909  1.00  0.00    -0.254 N 
HETATM    3  C   UNL     1      41.275 -15.413  -0.228  1.00  0.00     0.330 C 
HETATM    4  O   UNL     1      41.116 -14.914  -1.340  1.00  0.00    -0.246 OA
HETATM    5  N   UNL     1      42.285 -16.315  -0.113  1.00  0.00    -0.308 N 
HETATM    6  C   UNL     1      42.613 -17.041   1.016  1.00  0.00     0.048 A 
HETATM    7  C   UNL     1      41.829 -16.905   2.147  1.00  0.00     0.034 A 
HETATM    8  C   UNL     1      43.699 -17.918   0.985  1.00  0.00     0.030 A 
HETATM    9  C   UNL     1      44.003 -18.680   2.111  1.00  0.00     0.002 A 
HETATM   10  C   UNL     1      43.209 -18.581   3.250  1.00  0.00     0.001 A 
HETATM   11  C   UNL     1      42.120 -17.708   3.265  1.00  0.00     0.015 A 
HETATM   12  H   UNL     1      42.790 -16.475  -0.978  1.00  0.00     0.170 HD
ENDROOT
BRANCH   1  13
HETATM   13  C   UNL     1      40.833 -14.974   3.382  1.00  0.00     0.279 C 
HETATM   14  N   UNL     1      39.828 -15.026   4.350  1.00  0.00    -0.355 N 
HETATM   15  H   UNL     1      39.262 -15.872   4.306  1.00  0.00     0.162 HD
HETATM   16  O   UNL     1      41.736 -14.141   3.472  1.00  0.00    -0.268 OA
BRANCH  14  17
HETATM   17  C   UNL     1      40.069 -14.483   5.680  1.00  0.00     0.150 C 
BRANCH  17  18
HETATM   18  C   UNL     1      39.637 -13.023   5.953  1.00  0.00     0.254 C 
BRANCH  18  19
HETATM   19  N   UNL     1      40.645 -11.950   5.535  1.00  0.00    -0.070 N 
HETATM   20  H   UNL     1      41.415 -12.488   5.118  1.00  0.00     0.279 HD
BRANCH  19  21
HETATM   21  C   UNL     1      41.246 -11.149   6.668  1.00  0.00     0.230 C 
HETATM   22  C   UNL     1      40.211 -10.859   7.740  1.00  0.00     0.034 C 
ENDBRANCH  19  21
BRANCH  19  23
HETATM   23  C   UNL     1      40.123 -11.080   4.405  1.00  0.00     0.230 C 
HETATM   24  C   UNL     1      38.609 -11.174   4.310  1.00  0.00     0.034 C 
ENDBRANCH  19  23
ENDBRANCH  18  19
ENDBRANCH  17  18
ENDBRANCH  14  17
ENDBRANCH   1  13
BRANCH   1  25
HETATM   25  O   UNL     1      39.513 -16.792   2.172  1.00  0.00    -0.359 OA
HETATM   26  H   UNL     1      39.108 -16.628   3.041  1.00  0.00     0.213 HD
ENDBRANCH   1  25
BRANCH   2  27
HETATM   27  C   UNL     1      39.571 -14.012   0.895  1.00  0.00     0.043 A 
HETATM   28  C   UNL     1      39.975 -12.664   0.855  1.00  0.00     0.031 A 
HETATM   29  C   UNL     1      39.045 -11.616   0.781  1.00  0.00     0.026 A 
HETATM   30  C   UNL     1      37.685 -11.894   0.743  1.00  0.00     0.034 A 
HETATM   31 CL   UNL     1      36.548 -10.613   0.631  1.00  0.00    -0.084 Cl
HETATM   32  C   UNL     1      37.252 -13.211   0.782  1.00  0.00     0.026 A 
HETATM   33  C   UNL     1      38.186 -14.255   0.853  1.00  0.00     0.031 A 
ENDBRANCH   2  27
TORSDOF 8
ENDMDL
MODEL 4
REMARK VINA RESULT:      -7.3      3.132      7.427
REMARK  8 active torsions:
REMARK  status: ('A' for Active; 'I' for Inactive)
REMARK    1  A    between atoms: C_2  and  N_3 
REMARK    2  A    between atoms: N_3  and  C_5 
REMARK    3  A    between atoms: N_3  and  C_29 
REMARK    4  A    between atoms: C_5  and  C_6 
REMARK    5  A    between atoms: C_6  and  N_7 
REMARK       I    between atoms: N_7  and  C_8 
REMARK    6  A    between atoms: C_8  and  C_9 
REMARK    7  A    between atoms: C_9  and  O_10 
REMARK    8  A    between atoms: N_11  and  C_12 
ROOT
HETATM    1  C   UNL     1      40.749 -14.495   3.363  1.00  0.00     0.256 C 
HETATM    2  N   UNL     1      42.200 -14.708   3.549  1.00  0.00    -0.254 N 
HETATM    3  C   UNL     1      43.010 -13.666   3.991  1.00  0.00     0.330 C 
HETATM    4  O   UNL     1      44.176 -13.775   4.366  1.00  0.00    -0.246 OA
HETATM    5  N   UNL     1      42.494 -12.409   3.993  1.00  0.00    -0.308 N 
HETATM    6  C   UNL     1      41.198 -12.053   3.668  1.00  0.00     0.048 A 
HETATM    7  C   UNL     1      40.291 -13.051   3.357  1.00  0.00     0.034 A 
HETATM    8  C   UNL     1      40.821 -10.710   3.694  1.00  0.00     0.030 A 
HETATM    9  C   UNL     1      39.505 -10.356   3.408  1.00  0.00     0.002 A 
HETATM   10  C   UNL     1      38.568 -11.345   3.122  1.00  0.00     0.001 A 
HETATM   11  C   UNL     1      38.954 -12.687   3.109  1.00  0.00     0.015 A 
HETATM   12  H   UNL     1      43.143 -11.701   4.315  1.00  0.00     0.170 HD
ENDROOT
BRANCH   1  13
HETATM   13  C   UNL     1      40.342 -15.101   1.930  1.00  0.00     0.279 C 
HETATM   14  N   UNL     1      40.887 -14.461   0.816  1.00  0.00    -0.355 N 
HETATM   15  H   UNL     1      41.701 -13.889   1.030  1.00  0.00     0.162 HD
HETATM   16  O   UNL     1      39.520 -16.007   1.784  1.00  0.00    -0.268 OA
BRANCH  14  17
HETATM   17  C   UNL     1      40.897 -15.133  -0.477  1.00  0.00     0.150 C 
BRANCH  17  18
HETATM   18  C   UNL     1      40.253 -14.399  -1.677  1.00  0.00     0.254 C 
BRANCH  18  19
HETATM   19  N   UNL     1      38.731 -14.519  -1.780  1.00  0.00    -0.070 N 
HETATM   20  H   UNL     1      38.511 -15.342  -1.205  1.00  0.00     0.279 HD
BRANCH  19  21
HETATM   21  C   UNL     1      38.196 -14.808  -3.165  1.00  0.00     0.230 C 
HETATM   22  C   UNL     1      39.141 -15.711  -3.938  1.00  0.00     0.034 C 
ENDBRANCH  19  21
BRANCH  19  23
HETATM   23  C   UNL     1      38.016 -13.365  -1.098  1.00  0.00     0.230 C 
HETATM   24  C   UNL     1      37.333 -13.835   0.176  1.00  0.00     0.034 C 
ENDBRANCH  19  23
ENDBRANCH  18  19
ENDBRANCH  17  18
ENDBRANCH  14  17
ENDBRANCH   1  13
BRANCH   1  25
HETATM   25  O   UNL     1      40.085 -15.075   4.469  1.00  0.00    -0.359 OA
HETATM   26  H   UNL     1      39.513 -14.374   4.826  1.00  0.00     0.213 HD
ENDBRANCH   1  25
BRANCH   2  27
HETATM   27  C   UNL     1      42.759 -16.041   3.338  1.00  0.00     0.043 A 
HETATM   28  C   UNL     1      43.497 -16.371   2.185  1.00  0.00     0.031 A 
HETATM   29  C   UNL     1      44.080 -17.636   2.019  1.00  0.00     0.026 A 
HETATM   30  C   UNL     1      43.940 -18.602   3.007  1.00  0.00     0.034 A 
HETATM   31 CL   UNL     1      44.673 -20.143   2.814  1.00  0.00    -0.084 Cl
HETATM   32  C   UNL     1      43.220 -18.310   4.156  1.00  0.00     0.026 A 
HETATM   33  C   UNL     1      42.641 -17.044   4.318  1.00  0.00     0.031 A 
ENDBRANCH   2  27
TORSDOF 8
ENDMDL
MODEL 5
REMARK VINA RESULT:      -7.2      2.529      6.239
REMARK  8 active torsions:
REMARK  status: ('A' for Active; 'I' for Inactive)
REMARK    1  A    between atoms: C_2  and  N_3 
REMARK    2  A    between atoms: N_3  and  C_5 
REMARK    3  A    between atoms: N_3  and  C_29 
REMARK    4  A    between atoms: C_5  and  C_6 
REMARK    5  A    between atoms: C_6  and  N_7 
REMARK       I    between atoms: N_7  and  C_8 
REMARK    6  A    between atoms: C_8  and  C_9 
REMARK    7  A    between atoms: C_9  and  O_10 
REMARK    8  A    between atoms: N_11  and  C_12 
ROOT
HETATM    1  C   UNL     1      42.937 -16.376   3.572  1.00  0.00     0.256 C 
HETATM    2  N   UNL     1      42.576 -15.933   4.936  1.00  0.00    -0.254 N 
HETATM    3  C   UNL     1      43.013 -16.651   6.045  1.00  0.00     0.330 C 
HETATM    4  O   UNL     1      42.943 -16.277   7.213  1.00  0.00    -0.246 OA
HETATM    5  N   UNL     1      43.541 -17.887   5.840  1.00  0.00    -0.308 N 
HETATM    6  C   UNL     1      43.769 -18.490   4.618  1.00  0.00     0.048 A 
HETATM    7  C   UNL     1      43.495 -17.780   3.463  1.00  0.00     0.034 A 
HETATM    8  C   UNL     1      44.299 -19.780   4.570  1.00  0.00     0.030 A 
HETATM    9  C   UNL     1      44.568 -20.372   3.337  1.00  0.00     0.002 A 
HETATM   10  C   UNL     1      44.328 -19.664   2.162  1.00  0.00     0.001 A 
HETATM   11  C   UNL     1      43.806 -18.370   2.223  1.00  0.00     0.015 A 
HETATM   12  H   UNL     1      43.826 -18.356   6.693  1.00  0.00     0.170 HD
ENDROOT
BRANCH   1  13
HETATM   13  C   UNL     1      41.602 -16.350   2.677  1.00  0.00     0.279 C 
HETATM   14  N   UNL     1      41.548 -15.371   1.684  1.00  0.00    -0.355 N 
HETATM   15  H   UNL     1      42.459 -14.988   1.437  1.00  0.00     0.162 HD
HETATM   16  O   UNL     1      40.623 -17.066   2.894  1.00  0.00    -0.268 OA
BRANCH  14  17
HETATM   17  C   UNL     1      40.586 -15.490   0.596  1.00  0.00     0.150 C 
BRANCH  17  18
HETATM   18  C   UNL     1      41.009 -14.977  -0.801  1.00  0.00     0.254 C 
BRANCH  18  19
HETATM   19  N   UNL     1      39.942 -15.086  -1.892  1.00  0.00    -0.070 N 
HETATM   20  H   UNL     1      39.211 -15.665  -1.461  1.00  0.00     0.279 HD
BRANCH  19  21
HETATM   21  C   UNL     1      40.373 -15.806  -3.151  1.00  0.00     0.230 C 
HETATM   22  C   UNL     1      39.174 -16.175  -4.006  1.00  0.00     0.034 C 
ENDBRANCH  19  21
BRANCH  19  23
HETATM   23  C   UNL     1      39.269 -13.754  -2.173  1.00  0.00     0.230 C 
HETATM   24  C   UNL     1      37.998 -13.611  -1.351  1.00  0.00     0.034 C 
ENDBRANCH  19  23
ENDBRANCH  18  19
ENDBRANCH  17  18
ENDBRANCH  14  17
ENDBRANCH   1  13
BRANCH   1  25
HETATM   25  O   UNL     1      43.982 -15.540   3.113  1.00  0.00    -0.359 OA
HETATM   26  H   UNL     1      44.668 -16.142   2.778  1.00  0.00     0.213 HD
ENDBRANCH   1  25
BRANCH   2  27
HETATM   27  C   UNL     1      41.823 -14.693   5.108  1.00  0.00     0.043 A 
HETATM   28  C   UNL     1      40.457 -14.687   5.450  1.00  0.00     0.031 A 
HETATM   29  C   UNL     1      39.756 -13.492   5.672  1.00  0.00     0.026 A 
HETATM   30  C   UNL     1      40.409 -12.272   5.559  1.00  0.00     0.034 A 
HETATM   31 CL   UNL     1      39.558 -10.810   5.851  1.00  0.00    -0.084 Cl
HETATM   32  C   UNL     1      41.755 -12.241   5.223  1.00  0.00     0.026 A 
HETATM   33  C   UNL     1      42.451 -13.439   5.005  1.00  0.00     0.031 A 
ENDBRANCH   2  27
TORSDOF 8
ENDMDL
MODEL 6
REMARK VINA RESULT:      -7.2      2.656      6.058
REMARK  8 active torsions:
REMARK  status: ('A' for Active; 'I' for Inactive)
REMARK    1  A    between atoms: C_2  and  N_3 
REMARK    2  A    between atoms: N_3  and  C_5 
REMARK    3  A    between atoms: N_3  and  C_29 
REMARK    4  A    between atoms: C_5  and  C_6 
REMARK    5  A    between atoms: C_6  and  N_7 
REMARK       I    between atoms: N_7  and  C_8 
REMARK    6  A    between atoms: C_8  and  C_9 
REMARK    7  A    between atoms: C_9  and  O_10 
REMARK    8  A    between atoms: N_11  and  C_12 
ROOT
HETATM    1  C   UNL     1      43.286 -17.482   3.411  1.00  0.00     0.256 C 
HETATM    2  N   UNL     1      43.583 -16.919   4.746  1.00  0.00    -0.254 N 
HETATM    3  C   UNL     1      44.426 -17.598   5.621  1.00  0.00     0.330 C 
HETATM    4  O   UNL     1      44.896 -17.142   6.661  1.00  0.00    -0.246 OA
HETATM    5  N   UNL     1      44.748 -18.886   5.330  1.00  0.00    -0.308 N 
HETATM    6  C   UNL     1      44.385 -19.587   4.196  1.00  0.00     0.048 A 
HETATM    7  C   UNL     1      43.668 -18.934   3.209  1.00  0.00     0.034 A 
HETATM    8  C   UNL     1      44.775 -20.919   4.049  1.00  0.00     0.030 A 
HETATM    9  C   UNL     1      44.445 -21.612   2.887  1.00  0.00     0.002 A 
HETATM   10  C   UNL     1      43.749 -20.966   1.869  1.00  0.00     0.001 A 
HETATM   11  C   UNL     1      43.373 -19.630   2.022  1.00  0.00     0.015 A 
HETATM   12  H   UNL     1      45.355 -19.321   6.016  1.00  0.00     0.170 HD
ENDROOT
BRANCH   1  13
HETATM   13  C   UNL     1      41.696 -17.398   3.185  1.00  0.00     0.279 C 
HETATM   14  N   UNL     1      41.254 -16.415   2.299  1.00  0.00    -0.355 N 
HETATM   15  H   UNL     1      41.981 -16.069   1.675  1.00  0.00     0.162 HD
HETATM   16  O   UNL     1      40.883 -18.074   3.817  1.00  0.00    -0.268 OA
BRANCH  14  17
HETATM   17  C   UNL     1      39.911 -16.490   1.739  1.00  0.00     0.150 C 
BRANCH  17  18
HETATM   18  C   UNL     1      39.030 -15.221   1.802  1.00  0.00     0.254 C 
BRANCH  18  19
HETATM   19  N   UNL     1      38.754 -14.545   0.457  1.00  0.00    -0.070 N 
HETATM   20  H   UNL     1      38.458 -15.320  -0.150  1.00  0.00     0.279 HD
BRANCH  19  21
HETATM   21  C   UNL     1      39.956 -13.914  -0.210  1.00  0.00     0.230 C 
HETATM   22  C   UNL     1      40.132 -14.437  -1.625  1.00  0.00     0.034 C 
ENDBRANCH  19  21
BRANCH  19  23
HETATM   23  C   UNL     1      37.554 -13.617   0.516  1.00  0.00     0.230 C 
HETATM   24  C   UNL     1      37.860 -12.397   1.369  1.00  0.00     0.034 C 
ENDBRANCH  19  23
ENDBRANCH  18  19
ENDBRANCH  17  18
ENDBRANCH  14  17
ENDBRANCH   1  13
BRANCH   1  25
HETATM   25  O   UNL     1      44.064 -16.774   2.465  1.00  0.00    -0.359 OA
HETATM   26  H   UNL     1      44.980 -17.061   2.614  1.00  0.00     0.213 HD
ENDBRANCH   1  25
BRANCH   2  27
HETATM   27  C   UNL     1      43.045 -15.609   5.105  1.00  0.00     0.043 A 
HETATM   28  C   UNL     1      43.613 -14.410   4.632  1.00  0.00     0.031 A 
HETATM   29  C   UNL     1      43.053 -13.160   4.933  1.00  0.00     0.026 A 
HETATM   30  C   UNL     1      41.909 -13.079   5.715  1.00  0.00     0.034 A 
HETATM   31 CL   UNL     1      41.212 -11.550   6.066  1.00  0.00    -0.084 Cl
HETATM   32  C   UNL     1      41.324 -14.241   6.198  1.00  0.00     0.026 A 
HETATM   33  C   UNL     1      41.885 -15.488   5.892  1.00  0.00     0.031 A 
ENDBRANCH   2  27
TORSDOF 8
ENDMDL
MODEL 7
REMARK VINA RESULT:      -7.2      2.475      5.920
REMARK  8 active torsions:
REMARK  status: ('A' for Active; 'I' for Inactive)
REMARK    1  A    between atoms: C_2  and  N_3 
REMARK    2  A    between atoms: N_3  and  C_5 
REMARK    3  A    between atoms: N_3  and  C_29 
REMARK    4  A    between atoms: C_5  and  C_6 
REMARK    5  A    between atoms: C_6  and  N_7 
REMARK       I    between atoms: N_7  and  C_8 
REMARK    6  A    between atoms: C_8  and  C_9 
REMARK    7  A    between atoms: C_9  and  O_10 
REMARK    8  A    between atoms: N_11  and  C_12 
ROOT
HETATM    1  C   UNL     1      42.858 -16.085   3.523  1.00  0.00     0.256 C 
HETATM    2  N   UNL     1      42.475 -15.785   4.919  1.00  0.00    -0.254 N 
HETATM    3  C   UNL     1      42.862 -16.637   5.949  1.00  0.00     0.330 C 
HETATM    4  O   UNL     1      42.773 -16.393   7.151  1.00  0.00    -0.246 OA
HETATM    5  N   UNL     1      43.359 -17.858   5.619  1.00  0.00    -0.308 N 
HETATM    6  C   UNL     1      43.600 -18.328   4.342  1.00  0.00     0.048 A 
HETATM    7  C   UNL     1      43.377 -17.485   3.268  1.00  0.00     0.034 A 
HETATM    8  C   UNL     1      44.093 -19.621   4.162  1.00  0.00     0.030 A 
HETATM    9  C   UNL     1      44.376 -20.080   2.877  1.00  0.00     0.002 A 
HETATM   10  C   UNL     1      44.187 -19.238   1.784  1.00  0.00     0.001 A 
HETATM   11  C   UNL     1      43.702 -17.943   1.978  1.00  0.00     0.015 A 
HETATM   12  H   UNL     1      43.608 -18.428   6.420  1.00  0.00     0.170 HD
ENDROOT
BRANCH   1  13
HETATM   13  C   UNL     1      41.548 -15.917   2.606  1.00  0.00     0.279 C 
HETATM   14  N   UNL     1      41.530 -14.809   1.758  1.00  0.00    -0.355 N 
HETATM   15  H   UNL     1      42.451 -14.408   1.590  1.00  0.00     0.162 HD
HETATM   16  O   UNL     1      40.556 -16.642   2.697  1.00  0.00    -0.268 OA
BRANCH  14  17
HETATM   17  C   UNL     1      40.597 -14.762   0.640  1.00  0.00     0.150 C 
BRANCH  17  18
HETATM   18  C   UNL     1      41.032 -15.416  -0.692  1.00  0.00     0.254 C 
BRANCH  18  19
HETATM   19  N   UNL     1      41.768 -14.495  -1.667  1.00  0.00    -0.070 N 
HETATM   20  H   UNL     1      42.740 -14.826  -1.629  1.00  0.00     0.279 HD
BRANCH  19  21
HETATM   21  C   UNL     1      41.798 -13.033  -1.281  1.00  0.00     0.230 C 
HETATM   22  C   UNL     1      42.797 -12.265  -2.127  1.00  0.00     0.034 C 
ENDBRANCH  19  21
BRANCH  19  23
HETATM   23  C   UNL     1      41.337 -14.719  -3.106  1.00  0.00     0.230 C 
HETATM   24  C   UNL     1      40.346 -15.867  -3.198  1.00  0.00     0.034 C 
ENDBRANCH  19  23
ENDBRANCH  18  19
ENDBRANCH  17  18
ENDBRANCH  14  17
ENDBRANCH   1  13
BRANCH   1  25
HETATM   25  O   UNL     1      43.939 -15.238   3.183  1.00  0.00    -0.359 OA
HETATM   26  H   UNL     1      44.402 -15.685   2.456  1.00  0.00     0.213 HD
ENDBRANCH   1  25
BRANCH   2  27
HETATM   27  C   UNL     1      41.754 -14.549   5.213  1.00  0.00     0.043 A 
HETATM   28  C   UNL     1      42.372 -13.286   5.140  1.00  0.00     0.031 A 
HETATM   29  C   UNL     1      41.657 -12.100   5.365  1.00  0.00     0.026 A 
HETATM   30  C   UNL     1      40.302 -12.152   5.667  1.00  0.00     0.034 A 
HETATM   31 CL   UNL     1      39.422 -10.700   5.922  1.00  0.00    -0.084 Cl
HETATM   32  C   UNL     1      39.662 -13.380   5.748  1.00  0.00     0.026 A 
HETATM   33  C   UNL     1      40.381 -14.561   5.519  1.00  0.00     0.031 A 
ENDBRANCH   2  27
TORSDOF 8
ENDMDL
MODEL 8
REMARK VINA RESULT:      -7.1      3.112      7.337
REMARK  8 active torsions:
REMARK  status: ('A' for Active; 'I' for Inactive)
REMARK    1  A    between atoms: C_2  and  N_3 
REMARK    2  A    between atoms: N_3  and  C_5 
REMARK    3  A    between atoms: N_3  and  C_29 
REMARK    4  A    between atoms: C_5  and  C_6 
REMARK    5  A    between atoms: C_6  and  N_7 
REMARK       I    between atoms: N_7  and  C_8 
REMARK    6  A    between atoms: C_8  and  C_9 
REMARK    7  A    between atoms: C_9  and  O_10 
REMARK    8  A    between atoms: N_11  and  C_12 
ROOT
HETATM    1  C   UNL     1      41.007 -15.158   4.554  1.00  0.00     0.256 C 
HETATM    2  N   UNL     1      42.404 -15.540   4.853  1.00  0.00    -0.254 N 
HETATM    3  C   UNL     1      43.178 -14.753   5.701  1.00  0.00     0.330 C 
HETATM    4  O   UNL     1      44.268 -15.068   6.173  1.00  0.00    -0.246 OA
HETATM    5  N   UNL     1      42.718 -13.516   6.025  1.00  0.00    -0.308 N 
HETATM    6  C   UNL     1      41.502 -12.970   5.660  1.00  0.00     0.048 A 
HETATM    7  C   UNL     1      40.613 -13.746   4.938  1.00  0.00     0.034 A 
HETATM    8  C   UNL     1      41.180 -11.670   6.052  1.00  0.00     0.030 A 
HETATM    9  C   UNL     1      39.937 -11.136   5.720  1.00  0.00     0.002 A 
HETATM   10  C   UNL     1      39.015 -11.910   5.020  1.00  0.00     0.001 A 
HETATM   11  C   UNL     1      39.345 -13.213   4.641  1.00  0.00     0.015 A 
HETATM   12  H   UNL     1      43.340 -12.996   6.635  1.00  0.00     0.170 HD
ENDROOT
BRANCH   1  13
HETATM   13  C   UNL     1      40.798 -15.267   2.963  1.00  0.00     0.279 C 
HETATM   14  N   UNL     1      41.379 -14.256   2.197  1.00  0.00    -0.355 N 
HETATM   15  H   UNL     1      42.110 -13.741   2.685  1.00  0.00     0.162 HD
HETATM   16  O   UNL     1      40.086 -16.117   2.427  1.00  0.00    -0.268 OA
BRANCH  14  17
HETATM   17  C   UNL     1      41.576 -14.447   0.766  1.00  0.00     0.150 C 
BRANCH  17  18
HETATM   18  C   UNL     1      40.708 -13.610  -0.201  1.00  0.00     0.254 C 
BRANCH  18  19
HETATM   19  N   UNL     1      39.538 -14.355  -0.847  1.00  0.00    -0.070 N 
HETATM   20  H   UNL     1      39.545 -15.271  -0.382  1.00  0.00     0.279 HD
BRANCH  19  21
HETATM   21  C   UNL     1      39.680 -14.625  -2.328  1.00  0.00     0.230 C 
HETATM   22  C   UNL     1      40.859 -15.541  -2.605  1.00  0.00     0.034 C 
ENDBRANCH  19  21
BRANCH  19  23
HETATM   23  C   UNL     1      38.196 -13.744  -0.482  1.00  0.00     0.230 C 
HETATM   24  C   UNL     1      37.783 -14.154   0.922  1.00  0.00     0.034 C 
ENDBRANCH  19  23
ENDBRANCH  18  19
ENDBRANCH  17  18
ENDBRANCH  14  17
ENDBRANCH   1  13
BRANCH   1  25
HETATM   25  O   UNL     1      40.160 -15.987   5.327  1.00  0.00    -0.359 OA
HETATM   26  H   UNL     1      40.280 -15.696   6.246  1.00  0.00     0.213 HD
ENDBRANCH   1  25
BRANCH   2  27
HETATM   27  C   UNL     1      42.934 -16.789   4.314  1.00  0.00     0.043 A 
HETATM   28  C   UNL     1      42.793 -18.017   4.989  1.00  0.00     0.031 A 
HETATM   29  C   UNL     1      43.254 -19.221   4.435  1.00  0.00     0.026 A 
HETATM   30  C   UNL     1      43.865 -19.224   3.188  1.00  0.00     0.034 A 
HETATM   31 CL   UNL     1      44.408 -20.700   2.500  1.00  0.00    -0.084 Cl
HETATM   32  C   UNL     1      44.020 -18.032   2.496  1.00  0.00     0.026 A 
HETATM   33  C   UNL     1      43.556 -16.832   3.053  1.00  0.00     0.031 A 
ENDBRANCH   2  27
TORSDOF 8
ENDMDL
MODEL 9
REMARK VINA RESULT:      -7.0      3.161      7.245
REMARK  8 active torsions:
REMARK  status: ('A' for Active; 'I' for Inactive)
REMARK    1  A    between atoms: C_2  and  N_3 
REMARK    2  A    between atoms: N_3  and  C_5 
REMARK    3  A    between atoms: N_3  and  C_29 
REMARK    4  A    between atoms: C_5  and  C_6 
REMARK    5  A    between atoms: C_6  and  N_7 
REMARK       I    between atoms: N_7  and  C_8 
REMARK    6  A    between atoms: C_8  and  C_9 
REMARK    7  A    between atoms: C_9  and  O_10 
REMARK    8  A    between atoms: N_11  and  C_12 
ROOT
HETATM    1  C   UNL     1      40.821 -14.746   3.172  1.00  0.00     0.256 C 
HETATM    2  N   UNL     1      42.261 -14.853   3.488  1.00  0.00    -0.254 N 
HETATM    3  C   UNL     1      42.993 -13.715   3.813  1.00  0.00     0.330 C 
HETATM    4  O   UNL     1      44.131 -13.704   4.278  1.00  0.00    -0.246 OA
HETATM    5  N   UNL     1      42.428 -12.501   3.580  1.00  0.00    -0.308 N 
HETATM    6  C   UNL     1      41.148 -12.267   3.117  1.00  0.00     0.048 A 
HETATM    7  C   UNL     1      40.307 -13.345   2.907  1.00  0.00     0.034 A 
HETATM    8  C   UNL     1      40.716 -10.957   2.904  1.00  0.00     0.030 A 
HETATM    9  C   UNL     1      39.411 -10.719   2.477  1.00  0.00     0.002 A 
HETATM   10  C   UNL     1      38.539 -11.788   2.289  1.00  0.00     0.001 A 
HETATM   11  C   UNL     1      38.979 -13.094   2.514  1.00  0.00     0.015 A 
HETATM   12  H   UNL     1      43.023 -11.719   3.830  1.00  0.00     0.170 HD
ENDROOT
BRANCH   1  13
HETATM   13  C   UNL     1      40.547 -15.587   1.829  1.00  0.00     0.279 C 
HETATM   14  N   UNL     1      41.084 -15.059   0.654  1.00  0.00    -0.355 N 
HETATM   15  H   UNL     1      41.829 -14.382   0.813  1.00  0.00     0.162 HD
HETATM   16  O   UNL     1      39.824 -16.583   1.786  1.00  0.00    -0.268 OA
BRANCH  14  17
HETATM   17  C   UNL     1      41.224 -15.902  -0.525  1.00  0.00     0.150 C 
BRANCH  17  18
HETATM   18  C   UNL     1      40.889 -15.281  -1.901  1.00  0.00     0.254 C 
BRANCH  18  19
HETATM   19  N   UNL     1      40.994 -13.756  -1.977  1.00  0.00    -0.070 N 
HETATM   20  H   UNL     1      41.186 -13.476  -1.007  1.00  0.00     0.279 HD
BRANCH  19  21
HETATM   21  C   UNL     1      39.726 -13.039  -2.386  1.00  0.00     0.230 C 
HETATM   22  C   UNL     1      38.701 -13.061  -1.266  1.00  0.00     0.034 C 
ENDBRANCH  19  21
BRANCH  19  23
HETATM   23  C   UNL     1      42.211 -13.302  -2.763  1.00  0.00     0.230 C 
HETATM   24  C   UNL     1      42.763 -12.004  -2.196  1.00  0.00     0.034 C 
ENDBRANCH  19  23
ENDBRANCH  18  19
ENDBRANCH  17  18
ENDBRANCH  14  17
ENDBRANCH   1  13
BRANCH   1  25
HETATM   25  O   UNL     1      40.099 -15.181   4.309  1.00  0.00    -0.359 OA
HETATM   26  H   UNL     1      40.769 -15.347   4.994  1.00  0.00     0.213 HD
ENDBRANCH   1  25
BRANCH   2  27
HETATM   27  C   UNL     1      42.887 -16.172   3.529  1.00  0.00     0.043 A 
HETATM   28  C   UNL     1      42.778 -17.019   4.648  1.00  0.00     0.031 A 
HETATM   29  C   UNL     1      43.332 -18.308   4.656  1.00  0.00     0.026 A 
HETATM   30  C   UNL     1      44.009 -18.780   3.539  1.00  0.00     0.034 A 
HETATM   31 CL   UNL     1      44.668 -20.366   3.540  1.00  0.00    -0.084 Cl
HETATM   32  C   UNL     1      44.136 -17.972   2.419  1.00  0.00     0.026 A 
HETATM   33  C   UNL     1      43.577 -16.686   2.416  1.00  0.00     0.031 A 
ENDBRANCH   2  27
TORSDOF 8
ENDMDL
MODEL 10
REMARK VINA RESULT:      -7.0      2.646      5.802
REMARK  8 active torsions:
REMARK  status: ('A' for Active; 'I' for Inactive)
REMARK    1  A    between atoms: C_2  and  N_3 
REMARK    2  A    between atoms: N_3  and  C_5 
REMARK    3  A    between atoms: N_3  and  C_29 
REMARK    4  A    between atoms: C_5  and  C_6 
REMARK    5  A    between atoms: C_6  and  N_7 
REMARK       I    between atoms: N_7  and  C_8 
REMARK    6  A    between atoms: C_8  and  C_9 
REMARK    7  A    between atoms: C_9  and  O_10 
REMARK    8  A    between atoms: N_11  and  C_12 
ROOT
HETATM    1  C   UNL     1      42.635 -14.824   3.542  1.00  0.00     0.256 C 
HETATM    2  N   UNL     1      41.580 -14.782   4.577  1.00  0.00    -0.254 N 
HETATM    3  C   UNL     1      41.170 -15.953   5.208  1.00  0.00     0.330 C 
HETATM    4  O   UNL     1      40.455 -16.016   6.206  1.00  0.00    -0.246 OA
HETATM    5  N   UNL     1      41.563 -17.139   4.675  1.00  0.00    -0.308 N 
HETATM    6  C   UNL     1      42.408 -17.314   3.595  1.00  0.00     0.048 A 
HETATM    7  C   UNL     1      42.973 -16.199   3.003  1.00  0.00     0.034 A 
HETATM    8  C   UNL     1      42.702 -18.603   3.147  1.00  0.00     0.030 A 
HETATM    9  C   UNL     1      43.587 -18.781   2.085  1.00  0.00     0.002 A 
HETATM   10  C   UNL     1      44.191 -17.674   1.494  1.00  0.00     0.001 A 
HETATM   11  C   UNL     1      43.896 -16.390   1.958  1.00  0.00     0.015 A 
HETATM   12  H   UNL     1      41.218 -17.948   5.179  1.00  0.00     0.170 HD
ENDROOT
BRANCH   1  13
HETATM   13  C   UNL     1      42.126 -13.961   2.285  1.00  0.00     0.279 C 
HETATM   14  N   UNL     1      41.080 -14.513   1.544  1.00  0.00    -0.355 N 
HETATM   15  H   UNL     1      40.561 -15.234   2.043  1.00  0.00     0.162 HD
HETATM   16  O   UNL     1      42.671 -12.923   1.906  1.00  0.00    -0.268 OA
BRANCH  14  17
HETATM   17  C   UNL     1      40.303 -13.674   0.642  1.00  0.00     0.150 C 
BRANCH  17  18
HETATM   18  C   UNL     1      39.952 -14.244  -0.752  1.00  0.00     0.254 C 
BRANCH  18  19
HETATM   19  N   UNL     1      40.630 -13.551  -1.936  1.00  0.00    -0.070 N 
HETATM   20  H   UNL     1      40.076 -12.696  -2.069  1.00  0.00     0.279 HD
BRANCH  19  21
HETATM   21  C   UNL     1      40.576 -14.305  -3.246  1.00  0.00     0.230 C 
HETATM   22  C   UNL     1      40.584 -15.805  -3.013  1.00  0.00     0.034 C 
ENDBRANCH  19  21
BRANCH  19  23
HETATM   23  C   UNL     1      42.026 -13.060  -1.592  1.00  0.00     0.230 C 
HETATM   24  C   UNL     1      42.754 -12.592  -2.841  1.00  0.00     0.034 C 
ENDBRANCH  19  23
ENDBRANCH  18  19
ENDBRANCH  17  18
ENDBRANCH  14  17
ENDBRANCH   1  13
BRANCH   1  25
HETATM   25  O   UNL     1      43.836 -14.368   4.134  1.00  0.00    -0.359 OA
HETATM   26  H   UNL     1      44.088 -15.055   4.774  1.00  0.00     0.213 HD
ENDBRANCH   1  25
BRANCH   2  27
HETATM   27  C   UNL     1      41.030 -13.491   4.984  1.00  0.00     0.043 A 
HETATM   28  C   UNL     1      39.737 -13.076   4.611  1.00  0.00     0.031 A 
HETATM   29  C   UNL     1      39.195 -11.861   5.056  1.00  0.00     0.026 A 
HETATM   30  C   UNL     1      39.935 -11.032   5.888  1.00  0.00     0.034 A 
HETATM   31 CL   UNL     1      39.263  -9.556   6.451  1.00  0.00    -0.084 Cl
HETATM   32  C   UNL     1      41.213 -11.410   6.275  1.00  0.00     0.026 A 
HETATM   33  C   UNL     1      41.749 -12.627   5.830  1.00  0.00     0.031 A 
ENDBRANCH   2  27
TORSDOF 8
ENDMDL
