MODEL 1
REMARK VINA RESULT:      -8.4      0.000      0.000
REMARK  12 active torsions:
REMARK  status: ('A' for Active; 'I' for Inactive)
REMARK    1  A    between atoms: C_2  and  N_3 
REMARK    2  A    between atoms: N_3  and  C_5 
REMARK    3  A    between atoms: N_3  and  C_39 
REMARK    4  A    between atoms: C_5  and  C_6 
REMARK    5  A    between atoms: N_7  and  C_8 
REMARK    6  A    between atoms: C_12  and  N_13 
REMARK    7  A    between atoms: C_16  and  C_17 
REMARK       I    between atoms: C_17  and  N_18 
REMARK    8  A    between atoms: N_18  and  N_19 
REMARK    9  A    between atoms: C_20  and  C_21 
REMARK   10  A    between atoms: C_22  and  O_23 
REMARK   11  A    between atoms: O_23  and  C_24 
REMARK   12  A    between atoms: C_24  and  C_25 
ROOT
HETATM    1  C   UNL     1      40.951 -15.325  -1.922  1.00  0.00     0.294 C 
HETATM    2  N   UNL     1      41.406 -16.260  -1.011  1.00  0.00    -0.242 N 
HETATM    3  O   UNL     1      40.950 -15.573  -3.124  1.00  0.00    -0.264 OA
HETATM    4  H   UNL     1      41.595 -17.189  -1.380  1.00  0.00     0.192 HD
ENDROOT
BRANCH   1   5
HETATM    5  C   UNL     1      40.477 -14.050  -1.401  1.00  0.00     0.176 C 
HETATM    6  C   UNL     1      41.162 -12.853  -1.221  1.00  0.00     0.102 C 
HETATM    7  N   UNL     1      40.231 -12.035  -0.575  1.00  0.00    -0.191 N 
HETATM    8  N   UNL     1      39.017 -12.644  -0.620  1.00  0.00    -0.058 NA
HETATM    9  N   UNL     1      39.162 -13.866  -1.092  1.00  0.00    -0.124 NA
BRANCH   6  10
HETATM   10  C   UNL     1      42.559 -12.503  -1.561  1.00  0.00     0.296 C 
BRANCH  10  11
HETATM   11  N   UNL     1      42.736 -11.653  -2.826  1.00  0.00    -0.066 N 
HETATM   12  H   UNL     1      43.628 -11.989  -3.211  1.00  0.00     0.280 HD
BRANCH  11  13
HETATM   13  C   UNL     1      42.913 -10.172  -2.564  1.00  0.00     0.231 C 
HETATM   14  C   UNL     1      43.745  -9.954  -1.312  1.00  0.00     0.034 C 
ENDBRANCH  11  13
BRANCH  11  15
HETATM   15  C   UNL     1      41.707 -11.970  -3.897  1.00  0.00     0.231 C 
HETATM   16  C   UNL     1      41.083 -10.701  -4.453  1.00  0.00     0.034 C 
ENDBRANCH  11  15
ENDBRANCH  10  11
ENDBRANCH   6  10
BRANCH   7  17
HETATM   17  C   UNL     1      40.385 -10.761   0.022  1.00  0.00     0.229 A 
HETATM   18  N   UNL     1      39.908  -9.668  -0.574  1.00  0.00    -0.081 NA
HETATM   19  O   UNL     1      40.260  -8.632   0.292  1.00  0.00    -0.103 OA
HETATM   20  N   UNL     1      40.913  -9.118   1.417  1.00  0.00    -0.083 NA
HETATM   21  C   UNL     1      41.000 -10.436   1.246  1.00  0.00     0.201 A 
BRANCH  21  22
HETATM   22  N   UNL     1      41.555 -11.284   2.127  1.00  0.00    -0.379 N 
HETATM   23  H   UNL     1      41.101 -12.171   2.329  1.00  0.00     0.158 HD
HETATM   24  H   UNL     1      42.207 -10.977   2.848  1.00  0.00     0.158 HD
ENDBRANCH  21  22
ENDBRANCH   7  17
ENDBRANCH   1   5
BRANCH   2  25
HETATM   25  N   UNL     1      41.637 -15.980   0.301  1.00  0.00    -0.183 NA
HETATM   26  C   UNL     1      40.865 -16.597   1.139  1.00  0.00     0.153 C 
BRANCH  26  27
HETATM   27  C   UNL     1      41.050 -16.450   2.591  1.00  0.00     0.018 A 
HETATM   28  C   UNL     1      41.836 -17.335   3.343  1.00  0.00     0.081 A 
HETATM   29  C   UNL     1      42.038 -17.098   4.705  1.00  0.00     0.039 A 
HETATM   30  C   UNL     1      41.410 -16.015   5.324  1.00  0.00     0.026 A 
HETATM   31  C   UNL     1      40.590 -15.167   4.580  1.00  0.00     0.035 A 
HETATM   32 CL   UNL     1      39.809 -13.843   5.349  1.00  0.00    -0.084 Cl
HETATM   33  C   UNL     1      40.405 -15.377   3.214  1.00  0.00     0.039 A 
BRANCH  28  34
HETATM   34  O   UNL     1      42.418 -18.461   2.813  1.00  0.00    -0.346 OA
BRANCH  34  35
HETATM   35  C   UNL     1      43.808 -18.510   3.177  1.00  0.00     0.219 C 
BRANCH  35  36
HETATM   36  C   UNL     1      44.174 -19.920   3.552  1.00  0.00     0.026 A 
HETATM   37  C   UNL     1      44.558 -20.285   4.851  1.00  0.00     0.045 A 
HETATM   38 CL   UNL     1      44.685 -19.125   6.123  1.00  0.00    -0.084 Cl
HETATM   39  C   UNL     1      44.852 -21.619   5.162  1.00  0.00     0.024 A 
HETATM   40  C   UNL     1      44.766 -22.608   4.184  1.00  0.00     0.005 A 
HETATM   41  C   UNL     1      44.406 -22.259   2.887  1.00  0.00     0.043 A 
HETATM   42  C   UNL     1      44.128 -20.928   2.583  1.00  0.00     0.126 A 
HETATM   43  F   UNL     1      43.835 -20.619   1.310  1.00  0.00    -0.205 F 
ENDBRANCH  35  36
ENDBRANCH  34  35
ENDBRANCH  28  34
ENDBRANCH  26  27
ENDBRANCH   2  25
TORSDOF 12
ENDMDL
MODEL 2
REMARK VINA RESULT:      -8.4      1.666      2.275
REMARK  12 active torsions:
REMARK  status: ('A' for Active; 'I' for Inactive)
REMARK    1  A    between atoms: C_2  and  N_3 
REMARK    2  A    between atoms: N_3  and  C_5 
REMARK    3  A    between atoms: N_3  and  C_39 
REMARK    4  A    between atoms: C_5  and  C_6 
REMARK    5  A    between atoms: N_7  and  C_8 
REMARK    6  A    between atoms: C_12  and  N_13 
REMARK    7  A    between atoms: C_16  and  C_17 
REMARK       I    between atoms: C_17  and  N_18 
REMARK    8  A    between atoms: N_18  and  N_19 
REMARK    9  A    between atoms: C_20  and  C_21 
REMARK   10  A    between atoms: C_22  and  O_23 
REMARK   11  A    between atoms: O_23  and  C_24 
REMARK   12  A    between atoms: C_24  and  C_25 
ROOT
HETATM    1  C   UNL     1      40.928 -14.752  -2.642  1.00  0.00     0.294 C 
HETATM    2  N   UNL     1      41.659 -15.444  -1.693  1.00  0.00    -0.242 N 
HETATM    3  O   UNL     1      41.323 -14.678  -3.801  1.00  0.00    -0.264 OA
HETATM    4  H   UNL     1      42.442 -15.991  -2.043  1.00  0.00     0.192 HD
ENDROOT
BRANCH   1   5
HETATM    5  C   UNL     1      39.687 -14.125  -2.211  1.00  0.00     0.176 C 
HETATM    6  C   UNL     1      39.458 -12.840  -1.732  1.00  0.00     0.102 C 
HETATM    7  N   UNL     1      38.109 -12.860  -1.365  1.00  0.00    -0.191 N 
HETATM    8  N   UNL     1      37.549 -14.000  -1.846  1.00  0.00    -0.058 NA
HETATM    9  N   UNL     1      38.495 -14.777  -2.333  1.00  0.00    -0.124 NA
BRANCH   6  10
HETATM   10  C   UNL     1      40.400 -11.709  -1.574  1.00  0.00     0.296 C 
BRANCH  10  11
HETATM   11  N   UNL     1      41.585 -11.966  -0.634  1.00  0.00    -0.066 N 
HETATM   12  H   UNL     1      41.506 -12.971  -0.427  1.00  0.00     0.280 HD
BRANCH  11  13
HETATM   13  C   UNL     1      41.497 -11.247   0.695  1.00  0.00     0.231 C 
HETATM   14  C   UNL     1      41.738 -12.218   1.837  1.00  0.00     0.034 C 
ENDBRANCH  11  13
BRANCH  11  15
HETATM   15  C   UNL     1      42.928 -11.817  -1.326  1.00  0.00     0.231 C 
HETATM   16  C   UNL     1      43.442 -10.391  -1.231  1.00  0.00     0.034 C 
ENDBRANCH  11  15
ENDBRANCH  10  11
ENDBRANCH   6  10
BRANCH   7  17
HETATM   17  C   UNL     1      37.335 -11.909  -0.660  1.00  0.00     0.229 A 
HETATM   18  N   UNL     1      36.479 -11.115  -1.305  1.00  0.00    -0.081 NA
HETATM   19  O   UNL     1      35.928 -10.324  -0.295  1.00  0.00    -0.103 OA
HETATM   20  N   UNL     1      36.433 -10.675   0.949  1.00  0.00    -0.083 NA
HETATM   21  C   UNL     1      37.312 -11.650   0.724  1.00  0.00     0.201 A 
BRANCH  21  22
HETATM   22  N   UNL     1      38.014 -12.280   1.680  1.00  0.00    -0.379 N 
HETATM   23  H   UNL     1      38.163 -13.284   1.618  1.00  0.00     0.158 HD
HETATM   24  H   UNL     1      38.125 -11.900   2.619  1.00  0.00     0.158 HD
ENDBRANCH  21  22
ENDBRANCH   7  17
ENDBRANCH   1   5
BRANCH   2  25
HETATM   25  N   UNL     1      41.400 -15.388  -0.358  1.00  0.00    -0.183 NA
HETATM   26  C   UNL     1      41.620 -16.488   0.291  1.00  0.00     0.153 C 
BRANCH  26  27
HETATM   27  C   UNL     1      41.456 -16.553   1.751  1.00  0.00     0.018 A 
HETATM   28  C   UNL     1      41.973 -17.607   2.520  1.00  0.00     0.081 A 
HETATM   29  C   UNL     1      41.855 -17.573   3.911  1.00  0.00     0.039 A 
HETATM   30  C   UNL     1      41.173 -16.523   4.528  1.00  0.00     0.026 A 
HETATM   31  C   UNL     1      40.619 -15.503   3.754  1.00  0.00     0.035 A 
HETATM   32 CL   UNL     1      39.769 -14.219   4.516  1.00  0.00    -0.084 Cl
HETATM   33  C   UNL     1      40.756 -15.511   2.366  1.00  0.00     0.039 A 
BRANCH  28  34
HETATM   34  O   UNL     1      42.587 -18.708   1.973  1.00  0.00    -0.346 OA
BRANCH  34  35
HETATM   35  C   UNL     1      43.979 -18.720   2.331  1.00  0.00     0.219 C 
BRANCH  35  36
HETATM   36  C   UNL     1      44.291 -19.996   3.065  1.00  0.00     0.026 A 
HETATM   37  C   UNL     1      44.654 -20.023   4.420  1.00  0.00     0.045 A 
HETATM   38 CL   UNL     1      44.815 -18.577   5.349  1.00  0.00    -0.084 Cl
HETATM   39  C   UNL     1      44.897 -21.239   5.072  1.00  0.00     0.024 A 
HETATM   40  C   UNL     1      44.782 -22.445   4.383  1.00  0.00     0.005 A 
HETATM   41  C   UNL     1      44.442 -22.433   3.034  1.00  0.00     0.043 A 
HETATM   42  C   UNL     1      44.215 -21.219   2.390  1.00  0.00     0.126 A 
HETATM   43  F   UNL     1      43.941 -21.242   1.077  1.00  0.00    -0.205 F 
ENDBRANCH  35  36
ENDBRANCH  34  35
ENDBRANCH  28  34
ENDBRANCH  26  27
ENDBRANCH   2  25
TORSDOF 12
ENDMDL
MODEL 3
REMARK VINA RESULT:      -8.4      2.940      4.967
REMARK  12 active torsions:
REMARK  status: ('A' for Active; 'I' for Inactive)
REMARK    1  A    between atoms: C_2  and  N_3 
REMARK    2  A    between atoms: N_3  and  C_5 
REMARK    3  A    between atoms: N_3  and  C_39 
REMARK    4  A    between atoms: C_5  and  C_6 
REMARK    5  A    between atoms: N_7  and  C_8 
REMARK    6  A    between atoms: C_12  and  N_13 
REMARK    7  A    between atoms: C_16  and  C_17 
REMARK       I    between atoms: C_17  and  N_18 
REMARK    8  A    between atoms: N_18  and  N_19 
REMARK    9  A    between atoms: C_20  and  C_21 
REMARK   10  A    between atoms: C_22  and  O_23 
REMARK   11  A    between atoms: O_23  and  C_24 
REMARK   12  A    between atoms: C_24  and  C_25 
ROOT
HETATM    1  C   UNL     1      40.913 -15.009  -0.335  1.00  0.00     0.294 C 
HETATM    2  N   UNL     1      41.428 -16.285  -0.470  1.00  0.00    -0.242 N 
HETATM    3  O   UNL     1      40.832 -14.262  -1.306  1.00  0.00    -0.264 OA
HETATM    4  H   UNL     1      41.592 -16.602  -1.422  1.00  0.00     0.192 HD
ENDROOT
BRANCH   1   5
HETATM    5  C   UNL     1      40.474 -14.596   0.991  1.00  0.00     0.176 C 
HETATM    6  C   UNL     1      40.894 -13.525   1.774  1.00  0.00     0.102 C 
HETATM    7  N   UNL     1      40.215 -13.714   2.980  1.00  0.00    -0.191 N 
HETATM    8  N   UNL     1      39.277 -14.680   2.802  1.00  0.00    -0.058 NA
HETATM    9  N   UNL     1      39.443 -15.232   1.616  1.00  0.00    -0.124 NA
BRANCH   6  10
HETATM   10  C   UNL     1      41.868 -12.454   1.465  1.00  0.00     0.296 C 
BRANCH  10  11
HETATM   11  N   UNL     1      41.524 -11.581   0.252  1.00  0.00    -0.066 N 
HETATM   12  H   UNL     1      41.389 -12.268  -0.501  1.00  0.00     0.280 HD
BRANCH  11  13
HETATM   13  C   UNL     1      42.643 -10.666  -0.198  1.00  0.00     0.231 C 
HETATM   14  C   UNL     1      43.105 -11.046  -1.594  1.00  0.00     0.034 C 
ENDBRANCH  11  13
BRANCH  11  15
HETATM   15  C   UNL     1      40.180 -10.887   0.388  1.00  0.00     0.231 C 
HETATM   16  C   UNL     1      40.240  -9.767   1.412  1.00  0.00     0.034 C 
ENDBRANCH  11  15
ENDBRANCH  10  11
ENDBRANCH   6  10
BRANCH   7  17
HETATM   17  C   UNL     1      40.352 -13.054   4.224  1.00  0.00     0.229 A 
HETATM   18  N   UNL     1      40.759 -11.785   4.281  1.00  0.00    -0.081 NA
HETATM   19  O   UNL     1      40.784 -11.500   5.647  1.00  0.00    -0.103 OA
HETATM   20  N   UNL     1      40.358 -12.590   6.395  1.00  0.00    -0.083 NA
HETATM   21  C   UNL     1      40.100 -13.556   5.515  1.00  0.00     0.201 A 
BRANCH  21  22
HETATM   22  N   UNL     1      39.646 -14.778   5.837  1.00  0.00    -0.379 N 
HETATM   23  H   UNL     1      39.538 -15.484   5.113  1.00  0.00     0.158 HD
HETATM   24  H   UNL     1      39.093 -14.955   6.675  1.00  0.00     0.158 HD
ENDBRANCH  21  22
ENDBRANCH   7  17
ENDBRANCH   1   5
BRANCH   2  25
HETATM   25  N   UNL     1      41.746 -17.083   0.586  1.00  0.00    -0.183 NA
HETATM   26  C   UNL     1      42.973 -17.496   0.612  1.00  0.00     0.153 C 
BRANCH  26  27
HETATM   27  C   UNL     1      43.479 -18.303   1.733  1.00  0.00     0.018 A 
HETATM   28  C   UNL     1      43.761 -17.750   2.991  1.00  0.00     0.081 A 
HETATM   29  C   UNL     1      44.163 -18.581   4.040  1.00  0.00     0.039 A 
HETATM   30  C   UNL     1      44.339 -19.949   3.817  1.00  0.00     0.026 A 
HETATM   31  C   UNL     1      44.104 -20.484   2.551  1.00  0.00     0.035 A 
HETATM   32 CL   UNL     1      44.335 -22.165   2.278  1.00  0.00    -0.084 Cl
HETATM   33  C   UNL     1      43.674 -19.669   1.504  1.00  0.00     0.039 A 
BRANCH  28  34
HETATM   34  O   UNL     1      43.683 -16.405   3.257  1.00  0.00    -0.346 OA
BRANCH  34  35
HETATM   35  C   UNL     1      42.648 -16.156   4.223  1.00  0.00     0.219 C 
BRANCH  35  36
HETATM   36  C   UNL     1      43.242 -15.467   5.421  1.00  0.00     0.026 A 
HETATM   37  C   UNL     1      43.290 -16.060   6.692  1.00  0.00     0.045 A 
HETATM   38 CL   UNL     1      42.625 -17.624   6.993  1.00  0.00    -0.084 Cl
HETATM   39  C   UNL     1      43.889 -15.395   7.769  1.00  0.00     0.024 A 
HETATM   40  C   UNL     1      44.449 -14.131   7.596  1.00  0.00     0.005 A 
HETATM   41  C   UNL     1      44.392 -13.522   6.348  1.00  0.00     0.043 A 
HETATM   42  C   UNL     1      43.783 -14.184   5.284  1.00  0.00     0.126 A 
HETATM   43  F   UNL     1      43.700 -13.545   4.107  1.00  0.00    -0.205 F 
ENDBRANCH  35  36
ENDBRANCH  34  35
ENDBRANCH  28  34
ENDBRANCH  26  27
ENDBRANCH   2  25
TORSDOF 12
ENDMDL
MODEL 4
REMARK VINA RESULT:      -8.1      1.533      2.853
REMARK  12 active torsions:
REMARK  status: ('A' for Active; 'I' for Inactive)
REMARK    1  A    between atoms: C_2  and  N_3 
REMARK    2  A    between atoms: N_3  and  C_5 
REMARK    3  A    between atoms: N_3  and  C_39 
REMARK    4  A    between atoms: C_5  and  C_6 
REMARK    5  A    between atoms: N_7  and  C_8 
REMARK    6  A    between atoms: C_12  and  N_13 
REMARK    7  A    between atoms: C_16  and  C_17 
REMARK       I    between atoms: C_17  and  N_18 
REMARK    8  A    between atoms: N_18  and  N_19 
REMARK    9  A    between atoms: C_20  and  C_21 
REMARK   10  A    between atoms: C_22  and  O_23 
REMARK   11  A    between atoms: O_23  and  C_24 
REMARK   12  A    between atoms: C_24  and  C_25 
ROOT
HETATM    1  C   UNL     1      41.089 -15.019  -2.398  1.00  0.00     0.294 C 
HETATM    2  N   UNL     1      40.803 -15.756  -1.263  1.00  0.00    -0.242 N 
HETATM    3  O   UNL     1      40.975 -15.519  -3.513  1.00  0.00    -0.264 OA
HETATM    4  H   UNL     1      40.368 -16.662  -1.417  1.00  0.00     0.192 HD
ENDROOT
BRANCH   1   5
HETATM    5  C   UNL     1      41.522 -13.641  -2.214  1.00  0.00     0.176 C 
HETATM    6  C   UNL     1      40.812 -12.540  -1.746  1.00  0.00     0.102 C 
HETATM    7  N   UNL     1      41.704 -11.477  -1.912  1.00  0.00    -0.191 N 
HETATM    8  N   UNL     1      42.928 -11.985  -2.212  1.00  0.00    -0.058 NA
HETATM    9  N   UNL     1      42.821 -13.282  -2.420  1.00  0.00    -0.124 NA
BRANCH   6  10
HETATM   10  C   UNL     1      39.423 -12.457  -1.240  1.00  0.00     0.296 C 
BRANCH  10  11
HETATM   11  N   UNL     1      39.248 -12.760   0.254  1.00  0.00    -0.066 N 
HETATM   12  H   UNL     1      39.834 -13.594   0.394  1.00  0.00     0.280 HD
BRANCH  11  13
HETATM   13  C   UNL     1      37.841 -13.154   0.650  1.00  0.00     0.231 C 
HETATM   14  C   UNL     1      37.825 -14.570   1.200  1.00  0.00     0.034 C 
ENDBRANCH  11  13
BRANCH  11  15
HETATM   15  C   UNL     1      39.864 -11.699   1.147  1.00  0.00     0.231 C 
HETATM   16  C   UNL     1      38.804 -10.990   1.973  1.00  0.00     0.034 C 
ENDBRANCH  11  15
ENDBRANCH  10  11
ENDBRANCH   6  10
BRANCH   7  17
HETATM   17  C   UNL     1      41.508 -10.083  -1.778  1.00  0.00     0.229 A 
HETATM   18  N   UNL     1      40.579  -9.454  -2.499  1.00  0.00    -0.081 NA
HETATM   19  O   UNL     1      40.696  -8.119  -2.108  1.00  0.00    -0.103 OA
HETATM   20  N   UNL     1      41.670  -7.966  -1.131  1.00  0.00    -0.083 NA
HETATM   21  C   UNL     1      42.181  -9.180  -0.933  1.00  0.00     0.201 A 
BRANCH  21  22
HETATM   22  N   UNL     1      43.149  -9.465  -0.046  1.00  0.00    -0.379 N 
HETATM   23  H   UNL     1      43.175  -8.976   0.845  1.00  0.00     0.158 HD
HETATM   24  H   UNL     1      44.038  -9.881  -0.318  1.00  0.00     0.158 HD
ENDBRANCH  21  22
ENDBRANCH   7  17
ENDBRANCH   1   5
BRANCH   2  25
HETATM   25  N   UNL     1      41.110 -15.345  -0.002  1.00  0.00    -0.183 NA
HETATM   26  C   UNL     1      41.384 -16.295   0.834  1.00  0.00     0.153 C 
BRANCH  26  27
HETATM   27  C   UNL     1      41.807 -15.996   2.211  1.00  0.00     0.018 A 
HETATM   28  C   UNL     1      42.470 -16.934   3.016  1.00  0.00     0.081 A 
HETATM   29  C   UNL     1      42.916 -16.566   4.287  1.00  0.00     0.039 A 
HETATM   30  C   UNL     1      42.650 -15.285   4.775  1.00  0.00     0.026 A 
HETATM   31  C   UNL     1      41.947 -14.372   3.988  1.00  0.00     0.035 A 
HETATM   32 CL   UNL     1      41.610 -12.801   4.598  1.00  0.00    -0.084 Cl
HETATM   33  C   UNL     1      41.522 -14.720   2.707  1.00  0.00     0.039 A 
BRANCH  28  34
HETATM   34  O   UNL     1      42.695 -18.233   2.628  1.00  0.00    -0.346 OA
BRANCH  34  35
HETATM   35  C   UNL     1      44.107 -18.503   2.623  1.00  0.00     0.219 C 
BRANCH  35  36
HETATM   36  C   UNL     1      44.355 -19.864   3.216  1.00  0.00     0.026 A 
HETATM   37  C   UNL     1      44.768 -20.049   4.543  1.00  0.00     0.045 A 
HETATM   38 CL   UNL     1      45.072 -18.717   5.598  1.00  0.00    -0.084 Cl
HETATM   39  C   UNL     1      44.948 -21.337   5.063  1.00  0.00     0.024 A 
HETATM   40  C   UNL     1      44.717 -22.459   4.269  1.00  0.00     0.005 A 
HETATM   41  C   UNL     1      44.325 -22.291   2.945  1.00  0.00     0.043 A 
HETATM   42  C   UNL     1      44.161 -21.006   2.432  1.00  0.00     0.126 A 
HETATM   43  F   UNL     1      43.834 -20.881   1.137  1.00  0.00    -0.205 F 
ENDBRANCH  35  36
ENDBRANCH  34  35
ENDBRANCH  28  34
ENDBRANCH  26  27
ENDBRANCH   2  25
TORSDOF 12
ENDMDL
MODEL 5
REMARK VINA RESULT:      -8.0      2.029      2.800
REMARK  12 active torsions:
REMARK  status: ('A' for Active; 'I' for Inactive)
REMARK    1  A    between atoms: C_2  and  N_3 
REMARK    2  A    between atoms: N_3  and  C_5 
REMARK    3  A    between atoms: N_3  and  C_39 
REMARK    4  A    between atoms: C_5  and  C_6 
REMARK    5  A    between atoms: N_7  and  C_8 
REMARK    6  A    between atoms: C_12  and  N_13 
REMARK    7  A    between atoms: C_16  and  C_17 
REMARK       I    between atoms: C_17  and  N_18 
REMARK    8  A    between atoms: N_18  and  N_19 
REMARK    9  A    between atoms: C_20  and  C_21 
REMARK   10  A    between atoms: C_22  and  O_23 
REMARK   11  A    between atoms: O_23  and  C_24 
REMARK   12  A    between atoms: C_24  and  C_25 
ROOT
HETATM    1  C   UNL     1      41.108 -15.186  -2.466  1.00  0.00     0.294 C 
HETATM    2  N   UNL     1      41.630 -16.063  -1.533  1.00  0.00    -0.242 N 
HETATM    3  O   UNL     1      41.664 -15.021  -3.547  1.00  0.00    -0.264 OA
HETATM    4  H   UNL     1      42.397 -16.650  -1.851  1.00  0.00     0.192 HD
ENDROOT
BRANCH   1   5
HETATM    5  C   UNL     1      39.884 -14.479  -2.115  1.00  0.00     0.176 C 
HETATM    6  C   UNL     1      39.705 -13.350  -1.321  1.00  0.00     0.102 C 
HETATM    7  N   UNL     1      38.316 -13.216  -1.249  1.00  0.00    -0.191 N 
HETATM    8  N   UNL     1      37.753 -14.059  -2.153  1.00  0.00    -0.058 NA
HETATM    9  N   UNL     1      38.687 -14.839  -2.660  1.00  0.00    -0.124 NA
BRANCH   6  10
HETATM   10  C   UNL     1      40.712 -12.501  -0.646  1.00  0.00     0.296 C 
BRANCH  10  11
HETATM   11  N   UNL     1      41.286 -11.359  -1.496  1.00  0.00    -0.066 N 
HETATM   12  H   UNL     1      40.557 -11.207  -2.206  1.00  0.00     0.280 HD
BRANCH  11  13
HETATM   13  C   UNL     1      42.550 -11.716  -2.249  1.00  0.00     0.231 C 
HETATM   14  C   UNL     1      42.360 -11.482  -3.737  1.00  0.00     0.034 C 
ENDBRANCH  11  13
BRANCH  11  15
HETATM   15  C   UNL     1      41.370 -10.046  -0.738  1.00  0.00     0.231 C 
HETATM   16  C   UNL     1      39.998  -9.592  -0.271  1.00  0.00     0.034 C 
ENDBRANCH  11  15
ENDBRANCH  10  11
ENDBRANCH   6  10
BRANCH   7  17
HETATM   17  C   UNL     1      37.516 -12.364  -0.452  1.00  0.00     0.229 A 
HETATM   18  N   UNL     1      37.586 -12.412   0.879  1.00  0.00    -0.081 NA
HETATM   19  O   UNL     1      36.659 -11.456   1.299  1.00  0.00    -0.103 OA
HETATM   20  N   UNL     1      36.068 -10.820   0.216  1.00  0.00    -0.083 NA
HETATM   21  C   UNL     1      36.590 -11.388  -0.870  1.00  0.00     0.201 A 
BRANCH  21  22
HETATM   22  N   UNL     1      36.289 -11.042  -2.132  1.00  0.00    -0.379 N 
HETATM   23  H   UNL     1      36.485 -10.099  -2.457  1.00  0.00     0.158 HD
HETATM   24  H   UNL     1      35.586 -11.533  -2.683  1.00  0.00     0.158 HD
ENDBRANCH  21  22
ENDBRANCH   7  17
ENDBRANCH   1   5
BRANCH   2  25
HETATM   25  N   UNL     1      41.196 -16.136  -0.245  1.00  0.00    -0.183 NA
HETATM   26  C   UNL     1      42.059 -16.603   0.601  1.00  0.00     0.153 C 
BRANCH  26  27
HETATM   27  C   UNL     1      41.755 -16.668   2.039  1.00  0.00     0.018 A 
HETATM   28  C   UNL     1      42.039 -17.800   2.817  1.00  0.00     0.081 A 
HETATM   29  C   UNL     1      41.801 -17.773   4.193  1.00  0.00     0.039 A 
HETATM   30  C   UNL     1      41.227 -16.643   4.779  1.00  0.00     0.026 A 
HETATM   31  C   UNL     1      40.901 -15.539   3.991  1.00  0.00     0.035 A 
HETATM   32 CL   UNL     1      40.183 -14.156   4.714  1.00  0.00    -0.084 Cl
HETATM   33  C   UNL     1      41.162 -15.544   2.621  1.00  0.00     0.039 A 
BRANCH  28  34
HETATM   34  O   UNL     1      42.532 -18.970   2.293  1.00  0.00    -0.346 OA
BRANCH  34  35
HETATM   35  C   UNL     1      43.952 -19.043   2.507  1.00  0.00     0.219 C 
BRANCH  35  36
HETATM   36  C   UNL     1      44.268 -20.260   3.333  1.00  0.00     0.026 A 
HETATM   37  C   UNL     1      44.326 -21.552   2.791  1.00  0.00     0.045 A 
HETATM   38 CL   UNL     1      43.993 -21.857   1.125  1.00  0.00    -0.084 Cl
HETATM   39  C   UNL     1      44.663 -22.650   3.592  1.00  0.00     0.024 A 
HETATM   40  C   UNL     1      44.948 -22.476   4.946  1.00  0.00     0.005 A 
HETATM   41  C   UNL     1      44.875 -21.204   5.502  1.00  0.00     0.043 A 
HETATM   42  C   UNL     1      44.526 -20.119   4.701  1.00  0.00     0.126 A 
HETATM   43  F   UNL     1      44.415 -18.915   5.282  1.00  0.00    -0.205 F 
ENDBRANCH  35  36
ENDBRANCH  34  35
ENDBRANCH  28  34
ENDBRANCH  26  27
ENDBRANCH   2  25
TORSDOF 12
ENDMDL
MODEL 6
REMARK VINA RESULT:      -7.9      1.894      2.451
REMARK  12 active torsions:
REMARK  status: ('A' for Active; 'I' for Inactive)
REMARK    1  A    between atoms: C_2  and  N_3 
REMARK    2  A    between atoms: N_3  and  C_5 
REMARK    3  A    between atoms: N_3  and  C_39 
REMARK    4  A    between atoms: C_5  and  C_6 
REMARK    5  A    between atoms: N_7  and  C_8 
REMARK    6  A    between atoms: C_12  and  N_13 
REMARK    7  A    between atoms: C_16  and  C_17 
REMARK       I    between atoms: C_17  and  N_18 
REMARK    8  A    between atoms: N_18  and  N_19 
REMARK    9  A    between atoms: C_20  and  C_21 
REMARK   10  A    between atoms: C_22  and  O_23 
REMARK   11  A    between atoms: O_23  and  C_24 
REMARK   12  A    between atoms: C_24  and  C_25 
ROOT
HETATM    1  C   UNL     1      40.968 -15.138  -2.405  1.00  0.00     0.294 C 
HETATM    2  N   UNL     1      41.393 -15.816  -1.276  1.00  0.00    -0.242 N 
HETATM    3  O   UNL     1      41.520 -15.319  -3.486  1.00  0.00    -0.264 OA
HETATM    4  H   UNL     1      42.074 -16.556  -1.429  1.00  0.00     0.192 HD
ENDROOT
BRANCH   1   5
HETATM    5  C   UNL     1      39.850 -14.217  -2.256  1.00  0.00     0.176 C 
HETATM    6  C   UNL     1      39.845 -12.879  -1.876  1.00  0.00     0.102 C 
HETATM    7  N   UNL     1      38.485 -12.566  -1.792  1.00  0.00    -0.191 N 
HETATM    8  N   UNL     1      37.773 -13.586  -2.339  1.00  0.00    -0.058 NA
HETATM    9  N   UNL     1      38.584 -14.592  -2.598  1.00  0.00    -0.124 NA
BRANCH   6  10
HETATM   10  C   UNL     1      40.979 -11.980  -1.566  1.00  0.00     0.296 C 
BRANCH  10  11
HETATM   11  N   UNL     1      41.159 -10.794  -2.522  1.00  0.00    -0.066 N 
HETATM   12  H   UNL     1      40.373 -10.176  -2.279  1.00  0.00     0.280 HD
BRANCH  11  13
HETATM   13  C   UNL     1      40.995 -11.140  -3.987  1.00  0.00     0.231 C 
HETATM   14  C   UNL     1      42.352 -11.233  -4.662  1.00  0.00     0.034 C 
ENDBRANCH  11  13
BRANCH  11  15
HETATM   15  C   UNL     1      42.402  -9.977  -2.219  1.00  0.00     0.231 C 
HETATM   16  C   UNL     1      43.207 -10.598  -1.090  1.00  0.00     0.034 C 
ENDBRANCH  11  15
ENDBRANCH  10  11
ENDBRANCH   6  10
BRANCH   7  17
HETATM   17  C   UNL     1      37.837 -11.413  -1.290  1.00  0.00     0.229 A 
HETATM   18  N   UNL     1      38.008 -10.227  -1.875  1.00  0.00    -0.081 NA
HETATM   19  O   UNL     1      37.239  -9.356  -1.102  1.00  0.00    -0.103 OA
HETATM   20  N   UNL     1      36.587 -10.034  -0.082  1.00  0.00    -0.083 NA
HETATM   21  C   UNL     1      36.964 -11.307  -0.191  1.00  0.00     0.201 A 
BRANCH  21  22
HETATM   22  N   UNL     1      36.538 -12.299   0.608  1.00  0.00    -0.379 N 
HETATM   23  H   UNL     1      37.197 -12.769   1.224  1.00  0.00     0.158 HD
HETATM   24  H   UNL     1      35.695 -12.838   0.412  1.00  0.00     0.158 HD
ENDBRANCH  21  22
ENDBRANCH   7  17
ENDBRANCH   1   5
BRANCH   2  25
HETATM   25  N   UNL     1      40.978 -15.511  -0.016  1.00  0.00    -0.183 NA
HETATM   26  C   UNL     1      41.923 -15.204   0.814  1.00  0.00     0.153 C 
BRANCH  26  27
HETATM   27  C   UNL     1      41.618 -14.779   2.189  1.00  0.00     0.018 A 
HETATM   28  C   UNL     1      42.273 -15.319   3.306  1.00  0.00     0.081 A 
HETATM   29  C   UNL     1      41.997 -14.819   4.581  1.00  0.00     0.039 A 
HETATM   30  C   UNL     1      41.028 -13.827   4.746  1.00  0.00     0.026 A 
HETATM   31  C   UNL     1      40.345 -13.330   3.636  1.00  0.00     0.035 A 
HETATM   32 CL   UNL     1      39.143 -12.119   3.844  1.00  0.00    -0.084 Cl
HETATM   33  C   UNL     1      40.633 -13.801   2.355  1.00  0.00     0.039 A 
BRANCH  28  34
HETATM   34  O   UNL     1      43.180 -16.348   3.224  1.00  0.00    -0.346 OA
BRANCH  34  35
HETATM   35  C   UNL     1      42.740 -17.453   4.031  1.00  0.00     0.219 C 
BRANCH  35  36
HETATM   36  C   UNL     1      43.402 -18.715   3.548  1.00  0.00     0.026 A 
HETATM   37  C   UNL     1      44.416 -19.364   4.268  1.00  0.00     0.045 A 
HETATM   38 CL   UNL     1      45.021 -18.736   5.758  1.00  0.00    -0.084 Cl
HETATM   39  C   UNL     1      44.975 -20.559   3.797  1.00  0.00     0.024 A 
HETATM   40  C   UNL     1      44.531 -21.124   2.603  1.00  0.00     0.005 A 
HETATM   41  C   UNL     1      43.540 -20.483   1.869  1.00  0.00     0.043 A 
HETATM   42  C   UNL     1      42.999 -19.287   2.337  1.00  0.00     0.126 A 
HETATM   43  F   UNL     1      42.082 -18.668   1.577  1.00  0.00    -0.205 F 
ENDBRANCH  35  36
ENDBRANCH  34  35
ENDBRANCH  28  34
ENDBRANCH  26  27
ENDBRANCH   2  25
TORSDOF 12
ENDMDL
MODEL 7
REMARK VINA RESULT:      -7.8      1.556      2.319
REMARK  12 active torsions:
REMARK  status: ('A' for Active; 'I' for Inactive)
REMARK    1  A    between atoms: C_2  and  N_3 
REMARK    2  A    between atoms: N_3  and  C_5 
REMARK    3  A    between atoms: N_3  and  C_39 
REMARK    4  A    between atoms: C_5  and  C_6 
REMARK    5  A    between atoms: N_7  and  C_8 
REMARK    6  A    between atoms: C_12  and  N_13 
REMARK    7  A    between atoms: C_16  and  C_17 
REMARK       I    between atoms: C_17  and  N_18 
REMARK    8  A    between atoms: N_18  and  N_19 
REMARK    9  A    between atoms: C_20  and  C_21 
REMARK   10  A    between atoms: C_22  and  O_23 
REMARK   11  A    between atoms: O_23  and  C_24 
REMARK   12  A    between atoms: C_24  and  C_25 
ROOT
HETATM    1  C   UNL     1      41.043 -15.263  -1.436  1.00  0.00     0.294 C 
HETATM    2  N   UNL     1      41.046 -16.231  -0.449  1.00  0.00    -0.242 N 
HETATM    3  O   UNL     1      40.871 -15.572  -2.612  1.00  0.00    -0.264 OA
HETATM    4  H   UNL     1      40.760 -17.164  -0.736  1.00  0.00     0.192 HD
ENDROOT
BRANCH   1   5
HETATM    5  C   UNL     1      41.247 -13.881  -1.026  1.00  0.00     0.176 C 
HETATM    6  C   UNL     1      40.316 -12.871  -0.808  1.00  0.00     0.102 C 
HETATM    7  N   UNL     1      41.104 -11.744  -0.561  1.00  0.00    -0.191 N 
HETATM    8  N   UNL     1      42.392 -12.146  -0.395  1.00  0.00    -0.058 NA
HETATM    9  N   UNL     1      42.489 -13.425  -0.698  1.00  0.00    -0.124 NA
BRANCH   6  10
HETATM   10  C   UNL     1      38.838 -12.919  -0.870  1.00  0.00     0.296 C 
BRANCH  10  11
HETATM   11  N   UNL     1      38.211 -12.298  -2.126  1.00  0.00    -0.066 N 
HETATM   12  H   UNL     1      38.828 -11.499  -2.324  1.00  0.00     0.280 HD
BRANCH  11  13
HETATM   13  C   UNL     1      36.825 -11.728  -1.916  1.00  0.00     0.231 C 
HETATM   14  C   UNL     1      36.682 -10.407  -2.653  1.00  0.00     0.034 C 
ENDBRANCH  11  13
BRANCH  11  15
HETATM   15  C   UNL     1      38.330 -13.193  -3.347  1.00  0.00     0.231 C 
HETATM   16  C   UNL     1      37.569 -14.493  -3.153  1.00  0.00     0.034 C 
ENDBRANCH  11  15
ENDBRANCH  10  11
ENDBRANCH   6  10
BRANCH   7  17
HETATM   17  C   UNL     1      40.746 -10.381  -0.437  1.00  0.00     0.229 A 
HETATM   18  N   UNL     1      40.161  -9.737  -1.448  1.00  0.00    -0.081 NA
HETATM   19  O   UNL     1      39.981  -8.441  -0.961  1.00  0.00    -0.103 OA
HETATM   20  N   UNL     1      40.427  -8.330   0.349  1.00  0.00    -0.083 NA
HETATM   21  C   UNL     1      40.910  -9.529   0.671  1.00  0.00     0.201 A 
BRANCH  21  22
HETATM   22  N   UNL     1      41.427  -9.845   1.870  1.00  0.00    -0.379 N 
HETATM   23  H   UNL     1      41.620 -10.817   2.095  1.00  0.00     0.158 HD
HETATM   24  H   UNL     1      41.335  -9.239   2.684  1.00  0.00     0.158 HD
ENDBRANCH  21  22
ENDBRANCH   7  17
ENDBRANCH   1   5
BRANCH   2  25
HETATM   25  N   UNL     1      41.441 -15.996   0.833  1.00  0.00    -0.183 NA
HETATM   26  C   UNL     1      40.553 -16.258   1.738  1.00  0.00     0.153 C 
BRANCH  26  27
HETATM   27  C   UNL     1      40.866 -16.124   3.170  1.00  0.00     0.018 A 
HETATM   28  C   UNL     1      41.681 -17.041   3.851  1.00  0.00     0.081 A 
HETATM   29  C   UNL     1      42.007 -16.816   5.191  1.00  0.00     0.039 A 
HETATM   30  C   UNL     1      41.474 -15.714   5.863  1.00  0.00     0.026 A 
HETATM   31  C   UNL     1      40.625 -14.834   5.192  1.00  0.00     0.035 A 
HETATM   32 CL   UNL     1      39.961 -13.486   6.026  1.00  0.00    -0.084 Cl
HETATM   33  C   UNL     1      40.316 -15.032   3.847  1.00  0.00     0.039 A 
BRANCH  28  34
HETATM   34  O   UNL     1      42.174 -18.185   3.273  1.00  0.00    -0.346 OA
BRANCH  34  35
HETATM   35  C   UNL     1      43.605 -18.223   3.407  1.00  0.00     0.219 C 
BRANCH  35  36
HETATM   36  C   UNL     1      44.048 -19.647   3.604  1.00  0.00     0.026 A 
HETATM   37  C   UNL     1      44.493 -20.140   4.839  1.00  0.00     0.045 A 
HETATM   38 CL   UNL     1      44.612 -19.130   6.234  1.00  0.00    -0.084 Cl
HETATM   39  C   UNL     1      44.859 -21.484   4.984  1.00  0.00     0.024 A 
HETATM   40  C   UNL     1      44.784 -22.357   3.899  1.00  0.00     0.005 A 
HETATM   41  C   UNL     1      44.363 -21.879   2.664  1.00  0.00     0.043 A 
HETATM   42  C   UNL     1      44.014 -20.537   2.525  1.00  0.00     0.126 A 
HETATM   43  F   UNL     1      43.663 -20.099   1.307  1.00  0.00    -0.205 F 
ENDBRANCH  35  36
ENDBRANCH  34  35
ENDBRANCH  28  34
ENDBRANCH  26  27
ENDBRANCH   2  25
TORSDOF 12
ENDMDL
MODEL 8
REMARK VINA RESULT:      -7.8      2.311      2.724
REMARK  12 active torsions:
REMARK  status: ('A' for Active; 'I' for Inactive)
REMARK    1  A    between atoms: C_2  and  N_3 
REMARK    2  A    between atoms: N_3  and  C_5 
REMARK    3  A    between atoms: N_3  and  C_39 
REMARK    4  A    between atoms: C_5  and  C_6 
REMARK    5  A    between atoms: N_7  and  C_8 
REMARK    6  A    between atoms: C_12  and  N_13 
REMARK    7  A    between atoms: C_16  and  C_17 
REMARK       I    between atoms: C_17  and  N_18 
REMARK    8  A    between atoms: N_18  and  N_19 
REMARK    9  A    between atoms: C_20  and  C_21 
REMARK   10  A    between atoms: C_22  and  O_23 
REMARK   11  A    between atoms: O_23  and  C_24 
REMARK   12  A    between atoms: C_24  and  C_25 
ROOT
HETATM    1  C   UNL     1      41.491 -15.640   0.229  1.00  0.00     0.294 C 
HETATM    2  N   UNL     1      42.586 -16.128   0.919  1.00  0.00    -0.242 N 
HETATM    3  O   UNL     1      41.332 -15.908  -0.958  1.00  0.00    -0.264 OA
HETATM    4  H   UNL     1      43.151 -16.818   0.431  1.00  0.00     0.192 HD
ENDROOT
BRANCH   1   5
HETATM    5  C   UNL     1      40.547 -14.810   0.963  1.00  0.00     0.176 C 
HETATM    6  C   UNL     1      40.377 -13.429   0.946  1.00  0.00     0.102 C 
HETATM    7  N   UNL     1      39.419 -13.203   1.939  1.00  0.00    -0.191 N 
HETATM    8  N   UNL     1      38.894 -14.399   2.312  1.00  0.00    -0.058 NA
HETATM    9  N   UNL     1      39.585 -15.371   1.749  1.00  0.00    -0.124 NA
BRANCH   6  10
HETATM   10  C   UNL     1      41.065 -12.402   0.132  1.00  0.00     0.296 C 
BRANCH  10  11
HETATM   11  N   UNL     1      41.249 -12.752  -1.351  1.00  0.00    -0.066 N 
HETATM   12  H   UNL     1      41.410 -13.768  -1.333  1.00  0.00     0.280 HD
BRANCH  11  13
HETATM   13  C   UNL     1      42.474 -12.135  -1.991  1.00  0.00     0.231 C 
HETATM   14  C   UNL     1      43.025 -11.025  -1.113  1.00  0.00     0.034 C 
ENDBRANCH  11  13
BRANCH  11  15
HETATM   15  C   UNL     1      39.976 -12.575  -2.159  1.00  0.00     0.231 C 
HETATM   16  C   UNL     1      39.905 -13.577  -3.299  1.00  0.00     0.034 C 
ENDBRANCH  11  15
ENDBRANCH  10  11
ENDBRANCH   6  10
BRANCH   7  17
HETATM   17  C   UNL     1      38.955 -11.995   2.509  1.00  0.00     0.229 A 
HETATM   18  N   UNL     1      38.473 -11.019   1.739  1.00  0.00    -0.081 NA
HETATM   19  O   UNL     1      38.139 -10.009   2.644  1.00  0.00    -0.103 OA
HETATM   20  N   UNL     1      38.391 -10.404   3.950  1.00  0.00    -0.083 NA
HETATM   21  C   UNL     1      38.906 -11.630   3.868  1.00  0.00     0.201 A 
BRANCH  21  22
HETATM   22  N   UNL     1      39.272 -12.375   4.924  1.00  0.00    -0.379 N 
HETATM   23  H   UNL     1      38.831 -13.277   5.082  1.00  0.00     0.158 HD
HETATM   24  H   UNL     1      39.709 -11.974   5.753  1.00  0.00     0.158 HD
ENDBRANCH  21  22
ENDBRANCH   7  17
ENDBRANCH   1   5
BRANCH   2  25
HETATM   25  N   UNL     1      42.941 -15.702   2.163  1.00  0.00    -0.183 NA
HETATM   26  C   UNL     1      42.696 -16.539   3.120  1.00  0.00     0.153 C 
BRANCH  26  27
HETATM   27  C   UNL     1      43.094 -16.245   4.506  1.00  0.00     0.018 A 
HETATM   28  C   UNL     1      43.441 -17.253   5.418  1.00  0.00     0.081 A 
HETATM   29  C   UNL     1      43.888 -16.907   6.696  1.00  0.00     0.039 A 
HETATM   30  C   UNL     1      43.932 -15.565   7.080  1.00  0.00     0.026 A 
HETATM   31  C   UNL     1      43.539 -14.572   6.183  1.00  0.00     0.035 A 
HETATM   32 CL   UNL     1      43.582 -12.923   6.665  1.00  0.00    -0.084 Cl
HETATM   33  C   UNL     1      43.119 -14.903   4.896  1.00  0.00     0.039 A 
BRANCH  28  34
HETATM   34  O   UNL     1      43.348 -18.593   5.132  1.00  0.00    -0.346 OA
BRANCH  34  35
HETATM   35  C   UNL     1      44.661 -19.144   4.935  1.00  0.00     0.219 C 
BRANCH  35  36
HETATM   36  C   UNL     1      44.591 -20.236   3.901  1.00  0.00     0.026 A 
HETATM   37  C   UNL     1      44.668 -21.597   4.229  1.00  0.00     0.045 A 
HETATM   38 CL   UNL     1      44.896 -22.132   5.855  1.00  0.00    -0.084 Cl
HETATM   39  C   UNL     1      44.559 -22.580   3.237  1.00  0.00     0.024 A 
HETATM   40  C   UNL     1      44.370 -22.219   1.904  1.00  0.00     0.005 A 
HETATM   41  C   UNL     1      44.311 -20.873   1.561  1.00  0.00     0.043 A 
HETATM   42  C   UNL     1      44.434 -19.902   2.552  1.00  0.00     0.126 A 
HETATM   43  F   UNL     1      44.425 -18.613   2.178  1.00  0.00    -0.205 F 
ENDBRANCH  35  36
ENDBRANCH  34  35
ENDBRANCH  28  34
ENDBRANCH  26  27
ENDBRANCH   2  25
TORSDOF 12
ENDMDL
MODEL 9
REMARK VINA RESULT:      -7.7      2.272      3.566
REMARK  12 active torsions:
REMARK  status: ('A' for Active; 'I' for Inactive)
REMARK    1  A    between atoms: C_2  and  N_3 
REMARK    2  A    between atoms: N_3  and  C_5 
REMARK    3  A    between atoms: N_3  and  C_39 
REMARK    4  A    between atoms: C_5  and  C_6 
REMARK    5  A    between atoms: N_7  and  C_8 
REMARK    6  A    between atoms: C_12  and  N_13 
REMARK    7  A    between atoms: C_16  and  C_17 
REMARK       I    between atoms: C_17  and  N_18 
REMARK    8  A    between atoms: N_18  and  N_19 
REMARK    9  A    between atoms: C_20  and  C_21 
REMARK   10  A    between atoms: C_22  and  O_23 
REMARK   11  A    between atoms: O_23  and  C_24 
REMARK   12  A    between atoms: C_24  and  C_25 
ROOT
HETATM    1  C   UNL     1      41.030 -15.231  -1.715  1.00  0.00     0.294 C 
HETATM    2  N   UNL     1      40.581 -15.714  -0.500  1.00  0.00    -0.242 N 
HETATM    3  O   UNL     1      41.114 -15.972  -2.689  1.00  0.00    -0.264 OA
HETATM    4  H   UNL     1      40.200 -16.657  -0.507  1.00  0.00     0.192 HD
ENDROOT
BRANCH   1   5
HETATM    5  C   UNL     1      41.391 -13.822  -1.788  1.00  0.00     0.176 C 
HETATM    6  C   UNL     1      40.839 -12.801  -2.555  1.00  0.00     0.102 C 
HETATM    7  N   UNL     1      41.674 -11.709  -2.299  1.00  0.00    -0.191 N 
HETATM    8  N   UNL     1      42.488 -12.023  -1.258  1.00  0.00    -0.058 NA
HETATM    9  N   UNL     1      42.341 -13.299  -0.962  1.00  0.00    -0.124 NA
BRANCH   6  10
HETATM   10  C   UNL     1      39.684 -12.832  -3.480  1.00  0.00     0.296 C 
BRANCH  10  11
HETATM   11  N   UNL     1      38.310 -12.981  -2.812  1.00  0.00    -0.066 N 
HETATM   12  H   UNL     1      37.677 -12.510  -3.471  1.00  0.00     0.280 HD
BRANCH  11  13
HETATM   13  C   UNL     1      38.174 -12.252  -1.492  1.00  0.00     0.231 C 
HETATM   14  C   UNL     1      37.789 -13.224  -0.391  1.00  0.00     0.034 C 
ENDBRANCH  11  13
BRANCH  11  15
HETATM   15  C   UNL     1      37.828 -14.420  -2.773  1.00  0.00     0.231 C 
HETATM   16  C   UNL     1      37.029 -14.767  -4.017  1.00  0.00     0.034 C 
ENDBRANCH  11  15
ENDBRANCH  10  11
ENDBRANCH   6  10
BRANCH   7  17
HETATM   17  C   UNL     1      41.733 -10.435  -2.911  1.00  0.00     0.229 A 
HETATM   18  N   UNL     1      41.364  -9.342  -2.243  1.00  0.00    -0.081 NA
HETATM   19  O   UNL     1      41.545  -8.308  -3.164  1.00  0.00    -0.103 OA
HETATM   20  N   UNL     1      42.054  -8.788  -4.363  1.00  0.00    -0.083 NA
HETATM   21  C   UNL     1      42.162 -10.107  -4.211  1.00  0.00     0.201 A 
BRANCH  21  22
HETATM   22  N   UNL     1      42.635 -10.945  -5.147  1.00  0.00    -0.379 N 
HETATM   23  H   UNL     1      43.000 -11.854  -4.873  1.00  0.00     0.158 HD
HETATM   24  H   UNL     1      42.962 -10.624  -6.058  1.00  0.00     0.158 HD
ENDBRANCH  21  22
ENDBRANCH   7  17
ENDBRANCH   1   5
BRANCH   2  25
HETATM   25  N   UNL     1      40.665 -15.014   0.665  1.00  0.00    -0.183 NA
HETATM   26  C   UNL     1      40.151 -15.603   1.698  1.00  0.00     0.153 C 
BRANCH  26  27
HETATM   27  C   UNL     1      40.237 -14.999   3.036  1.00  0.00     0.018 A 
HETATM   28  C   UNL     1      40.934 -15.605   4.092  1.00  0.00     0.081 A 
HETATM   29  C   UNL     1      41.047 -14.944   5.318  1.00  0.00     0.039 A 
HETATM   30  C   UNL     1      40.416 -13.713   5.507  1.00  0.00     0.026 A 
HETATM   31  C   UNL     1      39.683 -13.140   4.468  1.00  0.00     0.035 A 
HETATM   32 CL   UNL     1      38.897 -11.631   4.709  1.00  0.00    -0.084 Cl
HETATM   33  C   UNL     1      39.588 -13.776   3.231  1.00  0.00     0.039 A 
BRANCH  28  34
HETATM   34  O   UNL     1      41.512 -16.847   3.998  1.00  0.00    -0.346 OA
BRANCH  34  35
HETATM   35  C   UNL     1      42.935 -16.715   3.841  1.00  0.00     0.219 C 
BRANCH  35  36
HETATM   36  C   UNL     1      43.557 -18.084   3.774  1.00  0.00     0.026 A 
HETATM   37  C   UNL     1      43.917 -18.695   2.565  1.00  0.00     0.045 A 
HETATM   38 CL   UNL     1      43.633 -17.938   1.040  1.00  0.00    -0.084 Cl
HETATM   39  C   UNL     1      44.530 -19.955   2.554  1.00  0.00     0.024 A 
HETATM   40  C   UNL     1      44.793 -20.622   3.750  1.00  0.00     0.005 A 
HETATM   41  C   UNL     1      44.424 -20.037   4.956  1.00  0.00     0.043 A 
HETATM   42  C   UNL     1      43.803 -18.790   4.956  1.00  0.00     0.126 A 
HETATM   43  F   UNL     1      43.413 -18.279   6.134  1.00  0.00    -0.205 F 
ENDBRANCH  35  36
ENDBRANCH  34  35
ENDBRANCH  28  34
ENDBRANCH  26  27
ENDBRANCH   2  25
TORSDOF 12
ENDMDL
MODEL 10
REMARK VINA RESULT:      -7.7      1.871      2.484
REMARK  12 active torsions:
REMARK  status: ('A' for Active; 'I' for Inactive)
REMARK    1  A    between atoms: C_2  and  N_3 
REMARK    2  A    between atoms: N_3  and  C_5 
REMARK    3  A    between atoms: N_3  and  C_39 
REMARK    4  A    between atoms: C_5  and  C_6 
REMARK    5  A    between atoms: N_7  and  C_8 
REMARK    6  A    between atoms: C_12  and  N_13 
REMARK    7  A    between atoms: C_16  and  C_17 
REMARK       I    between atoms: C_17  and  N_18 
REMARK    8  A    between atoms: N_18  and  N_19 
REMARK    9  A    between atoms: C_20  and  C_21 
REMARK   10  A    between atoms: C_22  and  O_23 
REMARK   11  A    between atoms: O_23  and  C_24 
REMARK   12  A    between atoms: C_24  and  C_25 
ROOT
HETATM    1  C   UNL     1      40.539 -15.429  -2.359  1.00  0.00     0.294 C 
HETATM    2  N   UNL     1      41.330 -15.835  -1.300  1.00  0.00    -0.242 N 
HETATM    3  O   UNL     1      40.389 -16.153  -3.339  1.00  0.00    -0.264 OA
HETATM    4  H   UNL     1      41.649 -16.800  -1.324  1.00  0.00     0.192 HD
ENDROOT
BRANCH   1   5
HETATM    5  C   UNL     1      39.898 -14.126  -2.261  1.00  0.00     0.176 C 
HETATM    6  C   UNL     1      40.236 -12.920  -2.866  1.00  0.00     0.102 C 
HETATM    7  N   UNL     1      39.343 -12.006  -2.301  1.00  0.00    -0.191 N 
HETATM    8  N   UNL     1      38.394 -12.696  -1.616  1.00  0.00    -0.058 NA
HETATM    9  N   UNL     1      38.735 -13.968  -1.567  1.00  0.00    -0.124 NA
BRANCH   6  10
HETATM   10  C   UNL     1      41.313 -12.619  -3.836  1.00  0.00     0.296 C 
BRANCH  10  11
HETATM   11  N   UNL     1      42.521 -11.865  -3.265  1.00  0.00    -0.066 N 
HETATM   12  H   UNL     1      43.315 -12.274  -3.776  1.00  0.00     0.280 HD
BRANCH  11  13
HETATM   13  C   UNL     1      42.780 -12.121  -1.796  1.00  0.00     0.231 C 
HETATM   14  C   UNL     1      43.128 -10.823  -1.088  1.00  0.00     0.034 C 
ENDBRANCH  11  13
BRANCH  11  15
HETATM   15  C   UNL     1      42.531 -10.395  -3.645  1.00  0.00     0.231 C 
HETATM   16  C   UNL     1      42.326 -10.212  -5.139  1.00  0.00     0.034 C 
ENDBRANCH  11  15
ENDBRANCH  10  11
ENDBRANCH   6  10
BRANCH   7  17
HETATM   17  C   UNL     1      39.297 -10.594  -2.386  1.00  0.00     0.229 A 
HETATM   18  N   UNL     1      39.662  -9.838  -1.350  1.00  0.00    -0.081 NA
HETATM   19  O   UNL     1      39.468  -8.531  -1.803  1.00  0.00    -0.103 OA
HETATM   20  N   UNL     1      39.021  -8.517  -3.117  1.00  0.00    -0.083 NA
HETATM   21  C   UNL     1      38.905  -9.794  -3.476  1.00  0.00     0.201 A 
BRANCH  21  22
HETATM   22  N   UNL     1      38.512 -10.211  -4.691  1.00  0.00    -0.379 N 
HETATM   23  H   UNL     1      38.754 -11.148  -5.006  1.00  0.00     0.158 HD
HETATM   24  H   UNL     1      38.282  -9.566  -5.445  1.00  0.00     0.158 HD
ENDBRANCH  21  22
ENDBRANCH   7  17
ENDBRANCH   1   5
BRANCH   2  25
HETATM   25  N   UNL     1      41.713 -15.009  -0.288  1.00  0.00    -0.183 NA
HETATM   26  C   UNL     1      41.504 -15.467   0.905  1.00  0.00     0.153 C 
BRANCH  26  27
HETATM   27  C   UNL     1      41.936 -14.716   2.094  1.00  0.00     0.018 A 
HETATM   28  C   UNL     1      42.963 -15.167   2.937  1.00  0.00     0.081 A 
HETATM   29  C   UNL     1      43.383 -14.371   4.005  1.00  0.00     0.039 A 
HETATM   30  C   UNL     1      42.741 -13.159   4.265  1.00  0.00     0.026 A 
HETATM   31  C   UNL     1      41.688 -12.740   3.453  1.00  0.00     0.035 A 
HETATM   32 CL   UNL     1      40.892 -11.253   3.785  1.00  0.00    -0.084 Cl
HETATM   33  C   UNL     1      41.279 -13.512   2.366  1.00  0.00     0.039 A 
BRANCH  28  34
HETATM   34  O   UNL     1      43.584 -16.383   2.783  1.00  0.00    -0.346 OA
BRANCH  34  35
HETATM   35  C   UNL     1      43.050 -17.327   3.727  1.00  0.00     0.219 C 
BRANCH  35  36
HETATM   36  C   UNL     1      43.559 -18.704   3.394  1.00  0.00     0.026 A 
HETATM   37  C   UNL     1      44.467 -19.395   4.209  1.00  0.00     0.045 A 
HETATM   38 CL   UNL     1      45.113 -18.697   5.650  1.00  0.00    -0.084 Cl
HETATM   39  C   UNL     1      44.882 -20.691   3.879  1.00  0.00     0.024 A 
HETATM   40  C   UNL     1      44.397 -21.317   2.731  1.00  0.00     0.005 A 
HETATM   41  C   UNL     1      43.511 -20.637   1.903  1.00  0.00     0.043 A 
HETATM   42  C   UNL     1      43.114 -19.343   2.232  1.00  0.00     0.126 A 
HETATM   43  F   UNL     1      42.300 -18.697   1.383  1.00  0.00    -0.205 F 
ENDBRANCH  35  36
ENDBRANCH  34  35
ENDBRANCH  28  34
ENDBRANCH  26  27
ENDBRANCH   2  25
TORSDOF 12
ENDMDL
