MODEL 1
REMARK VINA RESULT:      -7.4      0.000      0.000
REMARK  5 active torsions:
REMARK  status: ('A' for Active; 'I' for Inactive)
REMARK    1  A    between atoms: C_2  and  O_3 
REMARK    2  A    between atoms: O_3  and  C_4 
REMARK    3  A    between atoms: C_8  and  N_9 
REMARK       I    between atoms: N_9  and  C_10 
REMARK       I    between atoms: C_10  and  N_11 
REMARK    4  A    between atoms: N_11  and  C_12 
REMARK    5  A    between atoms: C_12  and  C_13 
ROOT
HETATM    1  N   UNL     1      45.267 -12.451   8.767  1.00  0.00    -0.309 N 
HETATM    2  C   UNL     1      45.137 -13.253   7.680  1.00  0.00     0.321 C 
HETATM    3  N   UNL     1      43.983 -13.936   7.509  1.00  0.00    -0.337 N 
HETATM    4  O   UNL     1      46.085 -13.356   6.904  1.00  0.00    -0.247 OA
HETATM    5  H   UNL     1      46.226 -12.129   8.840  1.00  0.00     0.170 HD
HETATM    6  H   UNL     1      43.475 -14.205   8.339  1.00  0.00     0.164 HD
ENDROOT
BRANCH   1   7
HETATM    7  C   UNL     1      44.376 -11.967   9.741  1.00  0.00     0.038 A 
HETATM    8  C   UNL     1      43.459 -10.936   9.554  1.00  0.00     0.056 A 
HETATM    9  C   UNL     1      42.609 -10.547  10.602  1.00  0.00     0.069 A 
HETATM   10  C   UNL     1      42.675 -11.166  11.861  1.00  0.00     0.090 A 
HETATM   11 CL   UNL     1      41.476  -9.274  10.291  1.00  0.00    -0.081 Cl
HETATM   12  C   UNL     1      43.624 -12.168  12.056  1.00  0.00     0.041 A 
HETATM   13  C   UNL     1      44.465 -12.560  11.007  1.00  0.00     0.032 A 
BRANCH  10  14
HETATM   14  O   UNL     1      41.801 -10.729  12.821  1.00  0.00    -0.350 OA
BRANCH  14  15
HETATM   15  C   UNL     1      42.328 -10.420  14.109  1.00  0.00     0.171 C 
HETATM   16  C   UNL     1      43.237  -9.212  13.971  1.00  0.00     0.034 C 
ENDBRANCH  14  15
ENDBRANCH  10  14
ENDBRANCH   1   7
BRANCH   3  17
HETATM   17  C   UNL     1      43.845 -14.863   6.406  1.00  0.00     0.183 C 
BRANCH  17  18
HETATM   18  C   UNL     1      43.894 -16.309   6.853  1.00  0.00     0.053 A 
HETATM   19  N   UNL     1      43.633 -16.591   8.159  1.00  0.00    -0.264 NA
HETATM   20  C   UNL     1      43.671 -17.888   8.540  1.00  0.00     0.118 A 
HETATM   21  C   UNL     1      43.981 -18.929   7.688  1.00  0.00     0.043 A 
HETATM   22  C   UNL     1      44.269 -18.613   6.368  1.00  0.00     0.037 A 
HETATM   23 CL   UNL     1      44.677 -19.864   5.259  1.00  0.00    -0.084 Cl
HETATM   24  C   UNL     1      44.228 -17.295   5.932  1.00  0.00     0.052 A 
ENDBRANCH  17  18
ENDBRANCH   3  17
TORSDOF 5
ENDMDL
MODEL 2
REMARK VINA RESULT:      -7.3      7.613      9.870
REMARK  5 active torsions:
REMARK  status: ('A' for Active; 'I' for Inactive)
REMARK    1  A    between atoms: C_2  and  O_3 
REMARK    2  A    between atoms: O_3  and  C_4 
REMARK    3  A    between atoms: C_8  and  N_9 
REMARK       I    between atoms: N_9  and  C_10 
REMARK       I    between atoms: C_10  and  N_11 
REMARK    4  A    between atoms: N_11  and  C_12 
REMARK    5  A    between atoms: C_12  and  C_13 
ROOT
HETATM    1  N   UNL     1      40.670 -16.999   3.354  1.00  0.00    -0.309 N 
HETATM    2  C   UNL     1      41.618 -17.439   4.220  1.00  0.00     0.321 C 
HETATM    3  N   UNL     1      42.905 -17.488   3.809  1.00  0.00    -0.337 N 
HETATM    4  O   UNL     1      41.269 -17.809   5.341  1.00  0.00    -0.247 OA
HETATM    5  H   UNL     1      39.749 -17.160   3.746  1.00  0.00     0.170 HD
HETATM    6  H   UNL     1      43.072 -17.651   2.827  1.00  0.00     0.164 HD
ENDROOT
BRANCH   1   7
HETATM    7  C   UNL     1      40.708 -16.358   2.103  1.00  0.00     0.038 A 
HETATM    8  C   UNL     1      40.121 -15.129   1.808  1.00  0.00     0.056 A 
HETATM    9  C   UNL     1      40.237 -14.583   0.520  1.00  0.00     0.069 A 
HETATM   10  C   UNL     1      40.920 -15.262  -0.501  1.00  0.00     0.090 A 
HETATM   11 CL   UNL     1      39.504 -13.040   0.231  1.00  0.00    -0.081 Cl
HETATM   12  C   UNL     1      41.468 -16.511  -0.213  1.00  0.00     0.041 A 
HETATM   13  C   UNL     1      41.359 -17.051   1.074  1.00  0.00     0.032 A 
BRANCH  10  14
HETATM   14  O   UNL     1      40.991 -14.649  -1.724  1.00  0.00    -0.350 OA
BRANCH  14  15
HETATM   15  C   UNL     1      41.046 -15.479  -2.882  1.00  0.00     0.171 C 
HETATM   16  C   UNL     1      39.693 -15.423  -3.569  1.00  0.00     0.034 C 
ENDBRANCH  14  15
ENDBRANCH  10  14
ENDBRANCH   1   7
BRANCH   3  17
HETATM   17  C   UNL     1      43.925 -18.032   4.680  1.00  0.00     0.183 C 
BRANCH  17  18
HETATM   18  C   UNL     1      44.195 -19.497   4.414  1.00  0.00     0.053 A 
HETATM   19  N   UNL     1      44.564 -20.287   5.460  1.00  0.00    -0.264 NA
HETATM   20  C   UNL     1      44.792 -21.596   5.207  1.00  0.00     0.118 A 
HETATM   21  C   UNL     1      44.694 -22.163   3.952  1.00  0.00     0.043 A 
HETATM   22  C   UNL     1      44.342 -21.332   2.898  1.00  0.00     0.037 A 
HETATM   23 CL   UNL     1      44.218 -21.975   1.307  1.00  0.00    -0.084 Cl
HETATM   24  C   UNL     1      44.087 -19.984   3.117  1.00  0.00     0.052 A 
ENDBRANCH  17  18
ENDBRANCH   3  17
TORSDOF 5
ENDMDL
MODEL 3
REMARK VINA RESULT:      -7.1      7.891     10.699
REMARK  5 active torsions:
REMARK  status: ('A' for Active; 'I' for Inactive)
REMARK    1  A    between atoms: C_2  and  O_3 
REMARK    2  A    between atoms: O_3  and  C_4 
REMARK    3  A    between atoms: C_8  and  N_9 
REMARK       I    between atoms: N_9  and  C_10 
REMARK       I    between atoms: C_10  and  N_11 
REMARK    4  A    between atoms: N_11  and  C_12 
REMARK    5  A    between atoms: C_12  and  C_13 
ROOT
HETATM    1  N   UNL     1      40.741 -16.531   3.235  1.00  0.00    -0.309 N 
HETATM    2  C   UNL     1      40.588 -15.269   2.759  1.00  0.00     0.321 C 
HETATM    3  N   UNL     1      41.665 -14.629   2.251  1.00  0.00    -0.337 N 
HETATM    4  O   UNL     1      39.481 -14.738   2.835  1.00  0.00    -0.247 OA
HETATM    5  H   UNL     1      39.896 -16.818   3.715  1.00  0.00     0.170 HD
HETATM    6  H   UNL     1      42.569 -14.868   2.631  1.00  0.00     0.164 HD
ENDROOT
BRANCH   1   7
HETATM    7  C   UNL     1      41.769 -17.487   3.166  1.00  0.00     0.038 A 
HETATM    8  C   UNL     1      42.637 -17.816   4.205  1.00  0.00     0.056 A 
HETATM    9  C   UNL     1      43.620 -18.801   4.019  1.00  0.00     0.069 A 
HETATM   10  C   UNL     1      43.770 -19.458   2.787  1.00  0.00     0.090 A 
HETATM   11 CL   UNL     1      44.648 -19.177   5.362  1.00  0.00    -0.081 Cl
HETATM   12  C   UNL     1      42.928 -19.094   1.737  1.00  0.00     0.041 A 
HETATM   13  C   UNL     1      41.942 -18.119   1.927  1.00  0.00     0.032 A 
BRANCH  10  14
HETATM   14  O   UNL     1      44.750 -20.412   2.700  1.00  0.00    -0.350 OA
BRANCH  14  15
HETATM   15  C   UNL     1      44.354 -21.744   2.383  1.00  0.00     0.171 C 
HETATM   16  C   UNL     1      44.683 -22.630   3.572  1.00  0.00     0.034 C 
ENDBRANCH  14  15
ENDBRANCH  10  14
ENDBRANCH   1   7
BRANCH   3  17
HETATM   17  C   UNL     1      41.553 -13.255   1.812  1.00  0.00     0.183 C 
BRANCH  17  18
HETATM   18  C   UNL     1      41.879 -13.085   0.344  1.00  0.00     0.053 A 
HETATM   19  N   UNL     1      42.534 -11.957  -0.047  1.00  0.00    -0.264 NA
HETATM   20  C   UNL     1      42.826 -11.825  -1.361  1.00  0.00     0.118 A 
HETATM   21  C   UNL     1      42.477 -12.754  -2.321  1.00  0.00     0.043 A 
HETATM   22  C   UNL     1      41.788 -13.883  -1.901  1.00  0.00     0.037 A 
HETATM   23 CL   UNL     1      41.313 -15.071  -3.052  1.00  0.00    -0.084 Cl
HETATM   24  C   UNL     1      41.480 -14.063  -0.559  1.00  0.00     0.052 A 
ENDBRANCH  17  18
ENDBRANCH   3  17
TORSDOF 5
ENDMDL
MODEL 4
REMARK VINA RESULT:      -7.1      7.966     11.223
REMARK  5 active torsions:
REMARK  status: ('A' for Active; 'I' for Inactive)
REMARK    1  A    between atoms: C_2  and  O_3 
REMARK    2  A    between atoms: O_3  and  C_4 
REMARK    3  A    between atoms: C_8  and  N_9 
REMARK       I    between atoms: N_9  and  C_10 
REMARK       I    between atoms: C_10  and  N_11 
REMARK    4  A    between atoms: N_11  and  C_12 
REMARK    5  A    between atoms: C_12  and  C_13 
ROOT
HETATM    1  N   UNL     1      40.364 -16.421   2.852  1.00  0.00    -0.309 N 
HETATM    2  C   UNL     1      39.951 -15.472   1.974  1.00  0.00     0.321 C 
HETATM    3  N   UNL     1      40.822 -15.023   1.042  1.00  0.00    -0.337 N 
HETATM    4  O   UNL     1      38.808 -15.030   2.075  1.00  0.00    -0.247 OA
HETATM    5  H   UNL     1      39.663 -16.545   3.574  1.00  0.00     0.170 HD
HETATM    6  H   UNL     1      41.803 -15.028   1.283  1.00  0.00     0.164 HD
ENDROOT
BRANCH   1   7
HETATM    7  C   UNL     1      41.493 -17.255   2.936  1.00  0.00     0.038 A 
HETATM    8  C   UNL     1      42.345 -17.352   4.034  1.00  0.00     0.056 A 
HETATM    9  C   UNL     1      43.437 -18.233   4.005  1.00  0.00     0.069 A 
HETATM   10  C   UNL     1      43.713 -19.016   2.872  1.00  0.00     0.090 A 
HETATM   11 CL   UNL     1      44.440 -18.320   5.415  1.00  0.00    -0.081 Cl
HETATM   12  C   UNL     1      42.883 -18.883   1.760  1.00  0.00     0.041 A 
HETATM   13  C   UNL     1      41.788 -18.011   1.793  1.00  0.00     0.032 A 
BRANCH  10  14
HETATM   14  O   UNL     1      44.794 -19.854   2.936  1.00  0.00    -0.350 OA
BRANCH  14  15
HETATM   15  C   UNL     1      44.557 -21.222   3.259  1.00  0.00     0.171 C 
HETATM   16  C   UNL     1      44.519 -22.014   1.963  1.00  0.00     0.034 C 
ENDBRANCH  14  15
ENDBRANCH  10  14
ENDBRANCH   1   7
BRANCH   3  17
HETATM   17  C   UNL     1      40.439 -13.953   0.147  1.00  0.00     0.183 C 
BRANCH  17  18
HETATM   18  C   UNL     1      40.082 -14.454  -1.237  1.00  0.00     0.053 A 
HETATM   19  N   UNL     1      40.942 -15.306  -1.858  1.00  0.00    -0.264 NA
HETATM   20  C   UNL     1      40.604 -15.752  -3.089  1.00  0.00     0.118 A 
HETATM   21  C   UNL     1      39.455 -15.371  -3.753  1.00  0.00     0.043 A 
HETATM   22  C   UNL     1      38.607 -14.481  -3.110  1.00  0.00     0.037 A 
HETATM   23 CL   UNL     1      37.166 -13.957  -3.891  1.00  0.00    -0.084 Cl
HETATM   24  C   UNL     1      38.911 -14.009  -1.839  1.00  0.00     0.052 A 
ENDBRANCH  17  18
ENDBRANCH   3  17
TORSDOF 5
ENDMDL
MODEL 5
REMARK VINA RESULT:      -6.9      7.910     10.618
REMARK  5 active torsions:
REMARK  status: ('A' for Active; 'I' for Inactive)
REMARK    1  A    between atoms: C_2  and  O_3 
REMARK    2  A    between atoms: O_3  and  C_4 
REMARK    3  A    between atoms: C_8  and  N_9 
REMARK       I    between atoms: N_9  and  C_10 
REMARK       I    between atoms: C_10  and  N_11 
REMARK    4  A    between atoms: N_11  and  C_12 
REMARK    5  A    between atoms: C_12  and  C_13 
ROOT
HETATM    1  N   UNL     1      40.675 -16.646   3.214  1.00  0.00    -0.309 N 
HETATM    2  C   UNL     1      40.507 -15.549   2.433  1.00  0.00     0.321 C 
HETATM    3  N   UNL     1      41.588 -15.009   1.827  1.00  0.00    -0.337 N 
HETATM    4  O   UNL     1      39.382 -15.064   2.327  1.00  0.00    -0.247 OA
HETATM    5  H   UNL     1      39.815 -16.842   3.714  1.00  0.00     0.170 HD
HETATM    6  H   UNL     1      42.479 -15.107   2.293  1.00  0.00     0.164 HD
ENDROOT
BRANCH   1   7
HETATM    7  C   UNL     1      41.735 -17.544   3.428  1.00  0.00     0.038 A 
HETATM    8  C   UNL     1      42.189 -18.489   2.510  1.00  0.00     0.056 A 
HETATM    9  C   UNL     1      43.268 -19.326   2.834  1.00  0.00     0.069 A 
HETATM   10  C   UNL     1      43.899 -19.251   4.087  1.00  0.00     0.090 A 
HETATM   11 CL   UNL     1      43.796 -20.462   1.636  1.00  0.00    -0.081 Cl
HETATM   12  C   UNL     1      43.413 -18.333   5.017  1.00  0.00     0.041 A 
HETATM   13  C   UNL     1      42.342 -17.493   4.690  1.00  0.00     0.032 A 
BRANCH  10  14
HETATM   14  O   UNL     1      44.951 -20.100   4.312  1.00  0.00    -0.350 OA
BRANCH  14  15
HETATM   15  C   UNL     1      44.777 -21.131   5.280  1.00  0.00     0.171 C 
HETATM   16  C   UNL     1      44.761 -22.465   4.554  1.00  0.00     0.034 C 
ENDBRANCH  14  15
ENDBRANCH  10  14
ENDBRANCH   1   7
BRANCH   3  17
HETATM   17  C   UNL     1      41.456 -13.791   1.056  1.00  0.00     0.183 C 
BRANCH  17  18
HETATM   18  C   UNL     1      41.440 -14.048  -0.436  1.00  0.00     0.053 A 
HETATM   19  N   UNL     1      41.018 -15.264  -0.879  1.00  0.00    -0.264 NA
HETATM   20  C   UNL     1      41.000 -15.473  -2.214  1.00  0.00     0.118 A 
HETATM   21  C   UNL     1      41.407 -14.536  -3.143  1.00  0.00     0.043 A 
HETATM   22  C   UNL     1      41.858 -13.314  -2.666  1.00  0.00     0.037 A 
HETATM   23 CL   UNL     1      42.392 -12.109  -3.773  1.00  0.00    -0.084 Cl
HETATM   24  C   UNL     1      41.879 -13.053  -1.302  1.00  0.00     0.052 A 
ENDBRANCH  17  18
ENDBRANCH   3  17
TORSDOF 5
ENDMDL
MODEL 6
REMARK VINA RESULT:      -6.8      3.565      8.623
REMARK  5 active torsions:
REMARK  status: ('A' for Active; 'I' for Inactive)
REMARK    1  A    between atoms: C_2  and  O_3 
REMARK    2  A    between atoms: O_3  and  C_4 
REMARK    3  A    between atoms: C_8  and  N_9 
REMARK       I    between atoms: N_9  and  C_10 
REMARK       I    between atoms: C_10  and  N_11 
REMARK    4  A    between atoms: N_11  and  C_12 
REMARK    5  A    between atoms: C_12  and  C_13 
ROOT
HETATM    1  N   UNL     1      39.518 -13.250   6.707  1.00  0.00    -0.309 N 
HETATM    2  C   UNL     1      39.843 -12.087   7.326  1.00  0.00     0.321 C 
HETATM    3  N   UNL     1      41.120 -11.647   7.260  1.00  0.00    -0.337 N 
HETATM    4  O   UNL     1      38.972 -11.488   7.954  1.00  0.00    -0.247 OA
HETATM    5  H   UNL     1      38.578 -13.524   6.969  1.00  0.00     0.170 HD
HETATM    6  H   UNL     1      41.847 -12.344   7.184  1.00  0.00     0.164 HD
ENDROOT
BRANCH   1   7
HETATM    7  C   UNL     1      40.175 -14.089   5.790  1.00  0.00     0.038 A 
HETATM    8  C   UNL     1      40.686 -15.353   6.075  1.00  0.00     0.056 A 
HETATM    9  C   UNL     1      41.313 -16.106   5.070  1.00  0.00     0.069 A 
HETATM   10  C   UNL     1      41.461 -15.601   3.767  1.00  0.00     0.090 A 
HETATM   11 CL   UNL     1      41.903 -17.680   5.489  1.00  0.00    -0.081 Cl
HETATM   12  C   UNL     1      40.986 -14.318   3.498  1.00  0.00     0.041 A 
HETATM   13  C   UNL     1      40.354 -13.573   4.500  1.00  0.00     0.032 A 
BRANCH  10  14
HETATM   14  O   UNL     1      42.077 -16.409   2.848  1.00  0.00    -0.350 OA
BRANCH  14  15
HETATM   15  C   UNL     1      43.414 -16.089   2.472  1.00  0.00     0.171 C 
HETATM   16  C   UNL     1      44.006 -17.292   1.759  1.00  0.00     0.034 C 
ENDBRANCH  14  15
ENDBRANCH  10  14
ENDBRANCH   1   7
BRANCH   3  17
HETATM   17  C   UNL     1      41.516 -10.456   7.979  1.00  0.00     0.183 C 
BRANCH  17  18
HETATM   18  C   UNL     1      42.673 -10.705   8.923  1.00  0.00     0.053 A 
HETATM   19  N   UNL     1      43.727 -11.441   8.474  1.00  0.00    -0.264 NA
HETATM   20  C   UNL     1      44.756 -11.646   9.326  1.00  0.00     0.118 A 
HETATM   21  C   UNL     1      44.784 -11.173  10.623  1.00  0.00     0.043 A 
HETATM   22  C   UNL     1      43.687 -10.448  11.065  1.00  0.00     0.037 A 
HETATM   23 CL   UNL     1      43.656  -9.843  12.676  1.00  0.00    -0.084 Cl
HETATM   24  C   UNL     1      42.615 -10.203  10.218  1.00  0.00     0.052 A 
ENDBRANCH  17  18
ENDBRANCH   3  17
TORSDOF 5
ENDMDL
MODEL 7
REMARK VINA RESULT:      -6.7      7.356     10.500
REMARK  5 active torsions:
REMARK  status: ('A' for Active; 'I' for Inactive)
REMARK    1  A    between atoms: C_2  and  O_3 
REMARK    2  A    between atoms: O_3  and  C_4 
REMARK    3  A    between atoms: C_8  and  N_9 
REMARK       I    between atoms: N_9  and  C_10 
REMARK       I    between atoms: C_10  and  N_11 
REMARK    4  A    between atoms: N_11  and  C_12 
REMARK    5  A    between atoms: C_12  and  C_13 
ROOT
HETATM    1  N   UNL     1      43.194 -14.762   2.646  1.00  0.00    -0.309 N 
HETATM    2  C   UNL     1      42.116 -14.005   2.318  1.00  0.00     0.321 C 
HETATM    3  N   UNL     1      40.966 -14.624   1.970  1.00  0.00    -0.337 N 
HETATM    4  O   UNL     1      42.231 -12.780   2.319  1.00  0.00    -0.247 OA
HETATM    5  H   UNL     1      44.011 -14.170   2.735  1.00  0.00     0.170 HD
HETATM    6  H   UNL     1      41.041 -15.528   1.526  1.00  0.00     0.164 HD
ENDROOT
BRANCH   1   7
HETATM    7  C   UNL     1      43.386 -16.129   2.914  1.00  0.00     0.038 A 
HETATM    8  C   UNL     1      43.220 -16.739   4.155  1.00  0.00     0.056 A 
HETATM    9  C   UNL     1      43.430 -18.119   4.297  1.00  0.00     0.069 A 
HETATM   10  C   UNL     1      43.831 -18.912   3.210  1.00  0.00     0.090 A 
HETATM   11 CL   UNL     1      43.181 -18.815   5.865  1.00  0.00    -0.081 Cl
HETATM   12  C   UNL     1      44.038 -18.289   1.979  1.00  0.00     0.041 A 
HETATM   13  C   UNL     1      43.819 -16.914   1.837  1.00  0.00     0.032 A 
BRANCH  10  14
HETATM   14  O   UNL     1      44.003 -20.252   3.438  1.00  0.00    -0.350 OA
BRANCH  14  15
HETATM   15  C   UNL     1      44.785 -20.991   2.503  1.00  0.00     0.171 C 
HETATM   16  C   UNL     1      43.848 -21.867   1.690  1.00  0.00     0.034 C 
ENDBRANCH  14  15
ENDBRANCH  10  14
ENDBRANCH   1   7
BRANCH   3  17
HETATM   17  C   UNL     1      39.826 -13.846   1.535  1.00  0.00     0.183 C 
BRANCH  17  18
HETATM   18  C   UNL     1      39.535 -14.017   0.059  1.00  0.00     0.053 A 
HETATM   19  N   UNL     1      38.332 -13.593  -0.417  1.00  0.00    -0.264 NA
HETATM   20  C   UNL     1      38.091 -13.744  -1.738  1.00  0.00     0.118 A 
HETATM   21  C   UNL     1      38.984 -14.324  -2.618  1.00  0.00     0.043 A 
HETATM   22  C   UNL     1      40.192 -14.772  -2.105  1.00  0.00     0.037 A 
HETATM   23 CL   UNL     1      41.341 -15.516  -3.148  1.00  0.00    -0.084 Cl
HETATM   24  C   UNL     1      40.484 -14.624  -0.756  1.00  0.00     0.052 A 
ENDBRANCH  17  18
ENDBRANCH   3  17
TORSDOF 5
ENDMDL
MODEL 8
REMARK VINA RESULT:      -6.7      7.152      8.655
REMARK  5 active torsions:
REMARK  status: ('A' for Active; 'I' for Inactive)
REMARK    1  A    between atoms: C_2  and  O_3 
REMARK    2  A    between atoms: O_3  and  C_4 
REMARK    3  A    between atoms: C_8  and  N_9 
REMARK       I    between atoms: N_9  and  C_10 
REMARK       I    between atoms: C_10  and  N_11 
REMARK    4  A    between atoms: N_11  and  C_12 
REMARK    5  A    between atoms: C_12  and  C_13 
ROOT
HETATM    1  N   UNL     1      41.255 -16.864   4.934  1.00  0.00    -0.309 N 
HETATM    2  C   UNL     1      42.347 -17.487   5.445  1.00  0.00     0.321 C 
HETATM    3  N   UNL     1      43.393 -17.743   4.627  1.00  0.00    -0.337 N 
HETATM    4  O   UNL     1      42.336 -17.826   6.627  1.00  0.00    -0.247 OA
HETATM    5  H   UNL     1      40.505 -16.877   5.617  1.00  0.00     0.170 HD
HETATM    6  H   UNL     1      43.190 -17.902   3.651  1.00  0.00     0.164 HD
ENDROOT
BRANCH   1   7
HETATM    7  C   UNL     1      40.980 -16.201   3.725  1.00  0.00     0.038 A 
HETATM    8  C   UNL     1      41.339 -16.654   2.457  1.00  0.00     0.056 A 
HETATM    9  C   UNL     1      40.997 -15.909   1.318  1.00  0.00     0.069 A 
HETATM   10  C   UNL     1      40.310 -14.689   1.424  1.00  0.00     0.090 A 
HETATM   11 CL   UNL     1      41.454 -16.544  -0.228  1.00  0.00    -0.081 Cl
HETATM   12  C   UNL     1      39.991 -14.219   2.697  1.00  0.00     0.041 A 
HETATM   13  C   UNL     1      40.325 -14.967   3.832  1.00  0.00     0.032 A 
BRANCH  10  14
HETATM   14  O   UNL     1      40.009 -14.034   0.259  1.00  0.00    -0.350 OA
BRANCH  14  15
HETATM   15  C   UNL     1      40.430 -12.678   0.129  1.00  0.00     0.171 C 
HETATM   16  C   UNL     1      41.893 -12.674  -0.278  1.00  0.00     0.034 C 
ENDBRANCH  14  15
ENDBRANCH  10  14
ENDBRANCH   1   7
BRANCH   3  17
HETATM   17  C   UNL     1      44.536 -18.480   5.121  1.00  0.00     0.183 C 
BRANCH  17  18
HETATM   18  C   UNL     1      44.547 -19.919   4.650  1.00  0.00     0.053 A 
HETATM   19  N   UNL     1      44.772 -20.899   5.569  1.00  0.00    -0.264 NA
HETATM   20  C   UNL     1      44.768 -22.179   5.134  1.00  0.00     0.118 A 
HETATM   21  C   UNL     1      44.575 -22.540   3.816  1.00  0.00     0.043 A 
HETATM   22  C   UNL     1      44.374 -21.522   2.894  1.00  0.00     0.037 A 
HETATM   23 CL   UNL     1      44.142 -21.907   1.233  1.00  0.00    -0.084 Cl
HETATM   24  C   UNL     1      44.357 -20.195   3.301  1.00  0.00     0.052 A 
ENDBRANCH  17  18
ENDBRANCH   3  17
TORSDOF 5
ENDMDL
MODEL 9
REMARK VINA RESULT:      -6.5      4.008      8.476
REMARK  5 active torsions:
REMARK  status: ('A' for Active; 'I' for Inactive)
REMARK    1  A    between atoms: C_2  and  O_3 
REMARK    2  A    between atoms: O_3  and  C_4 
REMARK    3  A    between atoms: C_8  and  N_9 
REMARK       I    between atoms: N_9  and  C_10 
REMARK       I    between atoms: C_10  and  N_11 
REMARK    4  A    between atoms: N_11  and  C_12 
REMARK    5  A    between atoms: C_12  and  C_13 
ROOT
HETATM    1  N   UNL     1      39.507 -13.430   6.303  1.00  0.00    -0.309 N 
HETATM    2  C   UNL     1      39.898 -12.235   6.814  1.00  0.00     0.321 C 
HETATM    3  N   UNL     1      41.202 -11.887   6.733  1.00  0.00    -0.337 N 
HETATM    4  O   UNL     1      39.058 -11.522   7.361  1.00  0.00    -0.247 OA
HETATM    5  H   UNL     1      38.546 -13.616   6.569  1.00  0.00     0.170 HD
HETATM    6  H   UNL     1      41.882 -12.634   6.742  1.00  0.00     0.164 HD
ENDROOT
BRANCH   1   7
HETATM    7  C   UNL     1      40.121 -14.396   5.486  1.00  0.00     0.038 A 
HETATM    8  C   UNL     1      40.104 -14.402   4.093  1.00  0.00     0.056 A 
HETATM    9  C   UNL     1      40.767 -15.416   3.384  1.00  0.00     0.069 A 
HETATM   10  C   UNL     1      41.439 -16.453   4.051  1.00  0.00     0.090 A 
HETATM   11 CL   UNL     1      40.726 -15.348   1.653  1.00  0.00    -0.081 Cl
HETATM   12  C   UNL     1      41.415 -16.466   5.445  1.00  0.00     0.041 A 
HETATM   13  C   UNL     1      40.761 -15.449   6.151  1.00  0.00     0.032 A 
BRANCH  10  14
HETATM   14  O   UNL     1      42.066 -17.394   3.278  1.00  0.00    -0.350 OA
BRANCH  14  15
HETATM   15  C   UNL     1      43.491 -17.413   3.278  1.00  0.00     0.171 C 
HETATM   16  C   UNL     1      43.967 -17.231   1.847  1.00  0.00     0.034 C 
ENDBRANCH  14  15
ENDBRANCH  10  14
ENDBRANCH   1   7
BRANCH   3  17
HETATM   17  C   UNL     1      41.665 -10.659   7.343  1.00  0.00     0.183 C 
BRANCH  17  18
HETATM   18  C   UNL     1      42.168 -10.865   8.755  1.00  0.00     0.053 A 
HETATM   19  N   UNL     1      41.313 -10.631   9.788  1.00  0.00    -0.264 NA
HETATM   20  C   UNL     1      41.775 -10.829  11.043  1.00  0.00     0.118 A 
HETATM   21  C   UNL     1      43.064 -11.229  11.330  1.00  0.00     0.043 A 
HETATM   22  C   UNL     1      43.925 -11.436  10.262  1.00  0.00     0.037 A 
HETATM   23 CL   UNL     1      45.550 -11.922  10.556  1.00  0.00    -0.084 Cl
HETATM   24  C   UNL     1      43.487 -11.257   8.957  1.00  0.00     0.052 A 
ENDBRANCH  17  18
ENDBRANCH   3  17
TORSDOF 5
ENDMDL
MODEL 10
REMARK VINA RESULT:      -6.4      8.366     10.885
REMARK  5 active torsions:
REMARK  status: ('A' for Active; 'I' for Inactive)
REMARK    1  A    between atoms: C_2  and  O_3 
REMARK    2  A    between atoms: O_3  and  C_4 
REMARK    3  A    between atoms: C_8  and  N_9 
REMARK       I    between atoms: N_9  and  C_10 
REMARK       I    between atoms: C_10  and  N_11 
REMARK    4  A    between atoms: N_11  and  C_12 
REMARK    5  A    between atoms: C_12  and  C_13 
ROOT
HETATM    1  N   UNL     1      40.999 -16.488  -0.184  1.00  0.00    -0.309 N 
HETATM    2  C   UNL     1      41.137 -15.487  -1.090  1.00  0.00     0.321 C 
HETATM    3  N   UNL     1      42.034 -14.505  -0.847  1.00  0.00    -0.337 N 
HETATM    4  O   UNL     1      40.418 -15.490  -2.089  1.00  0.00    -0.247 OA
HETATM    5  H   UNL     1      40.196 -17.057  -0.425  1.00  0.00     0.170 HD
HETATM    6  H   UNL     1      42.220 -14.277   0.119  1.00  0.00     0.164 HD
ENDROOT
BRANCH   1   7
HETATM    7  C   UNL     1      41.733 -16.897   0.943  1.00  0.00     0.038 A 
HETATM    8  C   UNL     1      41.239 -16.973   2.244  1.00  0.00     0.056 A 
HETATM    9  C   UNL     1      42.067 -17.410   3.289  1.00  0.00     0.069 A 
HETATM   10  C   UNL     1      43.408 -17.758   3.060  1.00  0.00     0.090 A 
HETATM   11 CL   UNL     1      41.380 -17.504   4.877  1.00  0.00    -0.081 Cl
HETATM   12  C   UNL     1      43.910 -17.639   1.765  1.00  0.00     0.041 A 
HETATM   13  C   UNL     1      43.080 -17.211   0.722  1.00  0.00     0.032 A 
BRANCH  10  14
HETATM   14  O   UNL     1      44.139 -18.183   4.138  1.00  0.00    -0.350 OA
BRANCH  14  15
HETATM   15  C   UNL     1      44.424 -19.577   4.241  1.00  0.00     0.171 C 
HETATM   16  C   UNL     1      44.332 -19.971   5.705  1.00  0.00     0.034 C 
ENDBRANCH  14  15
ENDBRANCH  10  14
ENDBRANCH   1   7
BRANCH   3  17
HETATM   17  C   UNL     1      42.144 -13.382  -1.752  1.00  0.00     0.183 C 
BRANCH  17  18
HETATM   18  C   UNL     1      42.126 -12.051  -1.031  1.00  0.00     0.053 A 
HETATM   19  N   UNL     1      41.174 -11.844  -0.080  1.00  0.00    -0.264 NA
HETATM   20  C   UNL     1      41.177 -10.654   0.562  1.00  0.00     0.118 A 
HETATM   21  C   UNL     1      42.071  -9.638   0.289  1.00  0.00     0.043 A 
HETATM   22  C   UNL     1      43.015  -9.863  -0.703  1.00  0.00     0.037 A 
HETATM   23 CL   UNL     1      44.148  -8.630  -1.101  1.00  0.00    -0.084 Cl
HETATM   24  C   UNL     1      43.055 -11.076  -1.377  1.00  0.00     0.052 A 
ENDBRANCH  17  18
ENDBRANCH   3  17
TORSDOF 5
ENDMDL
