MODEL 1
REMARK VINA RESULT:      -9.5      0.000      0.000
REMARK  8 active torsions:
REMARK  status: ('A' for Active; 'I' for Inactive)
REMARK    1  A    between atoms: C_2  and  C_3 
REMARK    2  A    between atoms: C_3  and  C_4 
REMARK    3  A    between atoms: C_3  and  C_38 
REMARK    4  A    between atoms: C_6  and  C_7 
REMARK    5  A    between atoms: C_14  and  C_15 
REMARK    6  A    between atoms: C_18  and  C_19 
REMARK    7  A    between atoms: C_19  and  N_20 
REMARK       I    between atoms: N_20  and  C_21 
REMARK       I    between atoms: C_21  and  N_22 
REMARK    8  A    between atoms: N_22  and  C_23 
ROOT
HETATM    1  C   UNL     1      41.945 -10.650   7.829  1.00  0.00     0.037 A 
HETATM    2  C   UNL     1      42.948 -11.396   8.458  1.00  0.00     0.052 A 
HETATM    3  C   UNL     1      43.315 -11.122   9.783  1.00  0.00     0.046 A 
HETATM    4  C   UNL     1      44.351 -11.892  10.405  1.00  0.00     0.099 C 
HETATM    5  N   UNL     1      45.189 -12.534  10.887  1.00  0.00    -0.191 NA
HETATM    6  C   UNL     1      42.679 -10.095  10.485  1.00  0.00     0.023 A 
HETATM    7  C   UNL     1      41.683  -9.344   9.863  1.00  0.00     0.004 A 
HETATM    8  C   UNL     1      41.322  -9.618   8.540  1.00  0.00     0.029 A 
ENDROOT
BRANCH   1   9
HETATM    9  N   UNL     1      41.553 -10.854   6.489  1.00  0.00    -0.309 N 
HETATM   10  C   UNL     1      40.689 -11.810   6.023  1.00  0.00     0.320 C 
HETATM   11  N   UNL     1      40.692 -11.883   4.649  1.00  0.00    -0.341 N 
HETATM   12  O   UNL     1      39.942 -12.515   6.693  1.00  0.00    -0.247 OA
HETATM   13  H   UNL     1      41.564 -11.580   4.230  1.00  0.00     0.164 HD
HETATM   14  H   UNL     1      41.831 -10.137   5.831  1.00  0.00     0.170 HD
BRANCH  11  15
HETATM   15  C   UNL     1      39.990 -12.946   3.928  1.00  0.00     0.157 C 
BRANCH  15  16
HETATM   16  C   UNL     1      40.447 -13.148   2.462  1.00  0.00     0.206 C 
HETATM   17  C   UNL     1      41.922 -13.561   2.324  1.00  0.00     0.040 C 
HETATM   18  C   UNL     1      42.080 -14.633   1.220  1.00  0.00     0.001 C 
HETATM   19  C   UNL     1      41.391 -15.947   1.678  1.00  0.00     0.068 C 
HETATM   20  C   UNL     1      41.342 -14.137  -0.047  1.00  0.00     0.033 C 
HETATM   21  C   UNL     1      39.947 -15.619   2.120  1.00  0.00     0.246 C 
HETATM   22  N   UNL     1      39.629 -14.188   1.701  1.00  0.00    -0.065 N 
HETATM   23  C   UNL     1      39.836 -14.019   0.217  1.00  0.00     0.236 C 
HETATM   24  H   UNL     1      38.624 -14.034   1.938  1.00  0.00     0.280 HD
BRANCH  19  25
HETATM   25  C   UNL     1      42.192 -16.705   2.718  1.00  0.00     0.045 A 
HETATM   26  N   UNL     1      42.530 -17.980   2.450  1.00  0.00    -0.233 NA
HETATM   27  C   UNL     1      43.269 -18.631   3.377  1.00  0.00     0.160 A 
HETATM   28  N   UNL     1      43.626 -18.103   4.561  1.00  0.00    -0.233 NA
HETATM   29  C   UNL     1      43.268 -16.831   4.820  1.00  0.00     0.043 A 
HETATM   30  C   UNL     1      42.545 -16.086   3.904  1.00  0.00     0.055 A 
BRANCH  27  31
HETATM   31  C   UNL     1      43.753 -19.984   3.045  1.00  0.00     0.014 A 
HETATM   32  C   UNL     1      43.553 -20.543   1.775  1.00  0.00     0.034 A 
HETATM   33  C   UNL     1      43.999 -21.829   1.513  1.00  0.00     0.117 A 
HETATM   34  N   UNL     1      44.634 -22.597   2.420  1.00  0.00    -0.273 NA
HETATM   35  C   UNL     1      44.824 -22.061   3.640  1.00  0.00     0.117 A 
HETATM   36  C   UNL     1      44.410 -20.785   3.992  1.00  0.00     0.034 A 
ENDBRANCH  27  31
BRANCH  29  37
HETATM   37  C   UNL     1      43.653 -16.223   6.163  1.00  0.00     0.037 C 
BRANCH  37  38
HETATM   38  C   UNL     1      42.782 -16.764   7.322  1.00  0.00     0.006 C 
HETATM   39  C   UNL     1      43.528 -17.268   8.552  1.00  0.00     0.006 C 
ENDBRANCH  37  38
BRANCH  37  40
HETATM   40  C   UNL     1      43.684 -14.683   6.109  1.00  0.00     0.006 C 
HETATM   41  C   UNL     1      44.807 -14.070   6.938  1.00  0.00     0.006 C 
ENDBRANCH  37  40
ENDBRANCH  29  37
ENDBRANCH  19  25
ENDBRANCH  15  16
ENDBRANCH  11  15
ENDBRANCH   1   9
TORSDOF 8
ENDMDL
MODEL 2
REMARK VINA RESULT:      -9.4      1.484      2.053
REMARK  8 active torsions:
REMARK  status: ('A' for Active; 'I' for Inactive)
REMARK    1  A    between atoms: C_2  and  C_3 
REMARK    2  A    between atoms: C_3  and  C_4 
REMARK    3  A    between atoms: C_3  and  C_38 
REMARK    4  A    between atoms: C_6  and  C_7 
REMARK    5  A    between atoms: C_14  and  C_15 
REMARK    6  A    between atoms: C_18  and  C_19 
REMARK    7  A    between atoms: C_19  and  N_20 
REMARK       I    between atoms: N_20  and  C_21 
REMARK       I    between atoms: C_21  and  N_22 
REMARK    8  A    between atoms: N_22  and  C_23 
ROOT
HETATM    1  C   UNL     1      43.193 -11.142   9.267  1.00  0.00     0.037 A 
HETATM    2  C   UNL     1      42.149 -10.597  10.021  1.00  0.00     0.052 A 
HETATM    3  C   UNL     1      42.387 -10.089  11.306  1.00  0.00     0.046 A 
HETATM    4  C   UNL     1      41.301  -9.542  12.064  1.00  0.00     0.099 C 
HETATM    5  N   UNL     1      40.406  -9.100  12.655  1.00  0.00    -0.191 NA
HETATM    6  C   UNL     1      43.675 -10.128  11.844  1.00  0.00     0.023 A 
HETATM    7  C   UNL     1      44.720 -10.676  11.101  1.00  0.00     0.004 A 
HETATM    8  C   UNL     1      44.478 -11.185   9.821  1.00  0.00     0.029 A 
ENDROOT
BRANCH   1   9
HETATM    9  N   UNL     1      43.013 -11.700   7.984  1.00  0.00    -0.309 N 
HETATM   10  C   UNL     1      41.879 -11.640   7.216  1.00  0.00     0.320 C 
HETATM   11  N   UNL     1      41.955 -12.468   6.119  1.00  0.00    -0.341 N 
HETATM   12  O   UNL     1      40.902 -10.923   7.401  1.00  0.00    -0.247 OA
HETATM   13  H   UNL     1      42.570 -13.263   6.254  1.00  0.00     0.164 HD
HETATM   14  H   UNL     1      43.846 -12.057   7.533  1.00  0.00     0.170 HD
BRANCH  11  15
HETATM   15  C   UNL     1      40.801 -12.713   5.252  1.00  0.00     0.157 C 
BRANCH  15  16
HETATM   16  C   UNL     1      41.130 -12.795   3.741  1.00  0.00     0.206 C 
HETATM   17  C   UNL     1      42.536 -13.343   3.440  1.00  0.00     0.040 C 
HETATM   18  C   UNL     1      42.494 -14.292   2.220  1.00  0.00     0.001 C 
HETATM   19  C   UNL     1      41.693 -15.570   2.592  1.00  0.00     0.068 C 
HETATM   20  C   UNL     1      41.730 -13.580   1.077  1.00  0.00     0.033 C 
HETATM   21  C   UNL     1      40.330 -15.144   3.182  1.00  0.00     0.246 C 
HETATM   22  N   UNL     1      40.148 -13.649   2.943  1.00  0.00    -0.065 N 
HETATM   23  C   UNL     1      40.269 -13.335   1.474  1.00  0.00     0.236 C 
HETATM   24  H   UNL     1      39.186 -13.419   3.276  1.00  0.00     0.280 HD
BRANCH  19  25
HETATM   25  C   UNL     1      42.473 -16.521   3.477  1.00  0.00     0.045 A 
HETATM   26  N   UNL     1      42.696 -17.769   3.023  1.00  0.00    -0.233 NA
HETATM   27  C   UNL     1      43.418 -18.594   3.814  1.00  0.00     0.160 A 
HETATM   28  N   UNL     1      43.865 -18.263   5.039  1.00  0.00    -0.233 NA
HETATM   29  C   UNL     1      43.621 -17.016   5.485  1.00  0.00     0.043 A 
HETATM   30  C   UNL     1      42.923 -16.100   4.716  1.00  0.00     0.055 A 
BRANCH  27  31
HETATM   31  C   UNL     1      43.778 -19.920   3.279  1.00  0.00     0.014 A 
HETATM   32  C   UNL     1      44.416 -20.883   4.075  1.00  0.00     0.034 A 
HETATM   33  C   UNL     1      44.763 -22.107   3.526  1.00  0.00     0.117 A 
HETATM   34  N   UNL     1      44.518 -22.446   2.245  1.00  0.00    -0.273 NA
HETATM   35  C   UNL     1      43.908 -21.521   1.481  1.00  0.00     0.117 A 
HETATM   36  C   UNL     1      43.526 -20.271   1.944  1.00  0.00     0.034 A 
ENDBRANCH  27  31
BRANCH  29  37
HETATM   37  C   UNL     1      44.110 -16.629   6.875  1.00  0.00     0.037 C 
BRANCH  37  38
HETATM   38  C   UNL     1      43.494 -17.521   7.981  1.00  0.00     0.006 C 
HETATM   39  C   UNL     1      44.460 -18.427   8.736  1.00  0.00     0.006 C 
ENDBRANCH  37  38
BRANCH  37  40
HETATM   40  C   UNL     1      43.924 -15.124   7.152  1.00  0.00     0.006 C 
HETATM   41  C   UNL     1      45.166 -14.295   6.850  1.00  0.00     0.006 C 
ENDBRANCH  37  40
ENDBRANCH  29  37
ENDBRANCH  19  25
ENDBRANCH  15  16
ENDBRANCH  11  15
ENDBRANCH   1   9
TORSDOF 8
ENDMDL
MODEL 3
REMARK VINA RESULT:      -9.1      2.224      4.905
REMARK  8 active torsions:
REMARK  status: ('A' for Active; 'I' for Inactive)
REMARK    1  A    between atoms: C_2  and  C_3 
REMARK    2  A    between atoms: C_3  and  C_4 
REMARK    3  A    between atoms: C_3  and  C_38 
REMARK    4  A    between atoms: C_6  and  C_7 
REMARK    5  A    between atoms: C_14  and  C_15 
REMARK    6  A    between atoms: C_18  and  C_19 
REMARK    7  A    between atoms: C_19  and  N_20 
REMARK       I    between atoms: N_20  and  C_21 
REMARK       I    between atoms: C_21  and  N_22 
REMARK    8  A    between atoms: N_22  and  C_23 
ROOT
HETATM    1  C   UNL     1      42.942 -10.956  10.926  1.00  0.00     0.037 A 
HETATM    2  C   UNL     1      41.602 -10.618  11.135  1.00  0.00     0.052 A 
HETATM    3  C   UNL     1      41.231  -9.816  12.224  1.00  0.00     0.046 A 
HETATM    4  C   UNL     1      39.850  -9.488  12.425  1.00  0.00     0.099 C 
HETATM    5  N   UNL     1      38.727  -9.233  12.562  1.00  0.00    -0.191 NA
HETATM    6  C   UNL     1      42.204  -9.352  13.112  1.00  0.00     0.023 A 
HETATM    7  C   UNL     1      43.542  -9.690  12.912  1.00  0.00     0.004 A 
HETATM    8  C   UNL     1      43.907 -10.493  11.827  1.00  0.00     0.029 A 
ENDROOT
BRANCH   1   9
HETATM    9  N   UNL     1      43.376 -11.786   9.870  1.00  0.00    -0.309 N 
HETATM   10  C   UNL     1      43.162 -11.587   8.530  1.00  0.00     0.320 C 
HETATM   11  N   UNL     1      43.518 -12.686   7.783  1.00  0.00    -0.341 N 
HETATM   12  O   UNL     1      42.752 -10.563   7.994  1.00  0.00    -0.247 OA
HETATM   13  H   UNL     1      43.464 -13.559   8.295  1.00  0.00     0.164 HD
HETATM   14  H   UNL     1      44.024 -12.522  10.119  1.00  0.00     0.170 HD
BRANCH  11  15
HETATM   15  C   UNL     1      43.216 -12.782   6.354  1.00  0.00     0.157 C 
BRANCH  15  16
HETATM   16  C   UNL     1      41.772 -12.379   5.966  1.00  0.00     0.206 C 
HETATM   17  C   UNL     1      41.561 -12.206   4.452  1.00  0.00     0.040 C 
HETATM   18  C   UNL     1      40.191 -12.786   4.029  1.00  0.00     0.001 C 
HETATM   19  C   UNL     1      40.211 -14.330   4.206  1.00  0.00     0.068 C 
HETATM   20  C   UNL     1      39.110 -12.223   4.983  1.00  0.00     0.033 C 
HETATM   21  C   UNL     1      40.687 -14.656   5.639  1.00  0.00     0.246 C 
HETATM   22  N   UNL     1      40.708 -13.363   6.446  1.00  0.00    -0.065 N 
HETATM   23  C   UNL     1      39.351 -12.706   6.419  1.00  0.00     0.236 C 
HETATM   24  H   UNL     1      40.950 -13.636   7.424  1.00  0.00     0.280 HD
BRANCH  19  25
HETATM   25  C   UNL     1      40.999 -15.039   3.123  1.00  0.00     0.045 A 
HETATM   26  N   UNL     1      41.741 -16.106   3.477  1.00  0.00    -0.233 NA
HETATM   27  C   UNL     1      42.414 -16.743   2.492  1.00  0.00     0.160 A 
HETATM   28  N   UNL     1      42.433 -16.340   1.209  1.00  0.00    -0.233 NA
HETATM   29  C   UNL     1      41.697 -15.263   0.874  1.00  0.00     0.043 A 
HETATM   30  C   UNL     1      40.949 -14.581   1.818  1.00  0.00     0.055 A 
BRANCH  27  31
HETATM   31  C   UNL     1      43.130 -17.985   2.840  1.00  0.00     0.014 A 
HETATM   32  C   UNL     1      43.266 -19.034   1.919  1.00  0.00     0.034 A 
HETATM   33  C   UNL     1      43.922 -20.196   2.295  1.00  0.00     0.117 A 
HETATM   34  N   UNL     1      44.456 -20.389   3.517  1.00  0.00    -0.273 NA
HETATM   35  C   UNL     1      44.322 -19.383   4.401  1.00  0.00     0.117 A 
HETATM   36  C   UNL     1      43.682 -18.187   4.114  1.00  0.00     0.034 A 
ENDBRANCH  27  31
BRANCH  29  37
HETATM   37  C   UNL     1      41.718 -14.785  -0.573  1.00  0.00     0.037 C 
BRANCH  37  38
HETATM   38  C   UNL     1      41.262 -13.312  -0.709  1.00  0.00     0.006 C 
HETATM   39  C   UNL     1      42.324 -12.313  -1.155  1.00  0.00     0.006 C 
ENDBRANCH  37  38
BRANCH  37  40
HETATM   40  C   UNL     1      40.943 -15.737  -1.504  1.00  0.00     0.006 C 
HETATM   41  C   UNL     1      41.042 -15.358  -2.977  1.00  0.00     0.006 C 
ENDBRANCH  37  40
ENDBRANCH  29  37
ENDBRANCH  19  25
ENDBRANCH  15  16
ENDBRANCH  11  15
ENDBRANCH   1   9
TORSDOF 8
ENDMDL
MODEL 4
REMARK VINA RESULT:      -9.0      2.551      8.307
REMARK  8 active torsions:
REMARK  status: ('A' for Active; 'I' for Inactive)
REMARK    1  A    between atoms: C_2  and  C_3 
REMARK    2  A    between atoms: C_3  and  C_4 
REMARK    3  A    between atoms: C_3  and  C_38 
REMARK    4  A    between atoms: C_6  and  C_7 
REMARK    5  A    between atoms: C_14  and  C_15 
REMARK    6  A    between atoms: C_18  and  C_19 
REMARK    7  A    between atoms: C_19  and  N_20 
REMARK       I    between atoms: N_20  and  C_21 
REMARK       I    between atoms: C_21  and  N_22 
REMARK    8  A    between atoms: N_22  and  C_23 
ROOT
HETATM    1  C   UNL     1      43.679 -18.113   3.378  1.00  0.00     0.037 A 
HETATM    2  C   UNL     1      43.797 -19.276   2.610  1.00  0.00     0.052 A 
HETATM    3  C   UNL     1      44.357 -20.438   3.159  1.00  0.00     0.046 A 
HETATM    4  C   UNL     1      44.476 -21.616   2.351  1.00  0.00     0.099 C 
HETATM    5  N   UNL     1      44.556 -22.558   1.679  1.00  0.00    -0.191 NA
HETATM    6  C   UNL     1      44.804 -20.439   4.482  1.00  0.00     0.023 A 
HETATM    7  C   UNL     1      44.695 -19.282   5.251  1.00  0.00     0.004 A 
HETATM    8  C   UNL     1      44.140 -18.123   4.699  1.00  0.00     0.029 A 
ENDROOT
BRANCH   1   9
HETATM    9  N   UNL     1      43.157 -16.902   2.874  1.00  0.00    -0.309 N 
HETATM   10  C   UNL     1      42.446 -16.735   1.715  1.00  0.00     0.320 C 
HETATM   11  N   UNL     1      42.276 -15.406   1.400  1.00  0.00    -0.341 N 
HETATM   12  O   UNL     1      41.952 -17.618   1.020  1.00  0.00    -0.247 OA
HETATM   13  H   UNL     1      43.004 -14.806   1.772  1.00  0.00     0.164 HD
HETATM   14  H   UNL     1      43.193 -16.107   3.500  1.00  0.00     0.170 HD
BRANCH  11  15
HETATM   15  C   UNL     1      41.708 -14.979   0.121  1.00  0.00     0.157 C 
BRANCH  15  16
HETATM   16  C   UNL     1      40.189 -14.679   0.151  1.00  0.00     0.206 C 
HETATM   17  C   UNL     1      39.506 -15.068   1.473  1.00  0.00     0.040 C 
HETATM   18  C   UNL     1      38.470 -13.994   1.881  1.00  0.00     0.001 C 
HETATM   19  C   UNL     1      39.212 -12.678   2.245  1.00  0.00     0.068 C 
HETATM   20  C   UNL     1      37.571 -13.697   0.656  1.00  0.00     0.033 C 
HETATM   21  C   UNL     1      40.166 -12.313   1.086  1.00  0.00     0.246 C 
HETATM   22  N   UNL     1      39.847 -13.213  -0.103  1.00  0.00    -0.065 N 
HETATM   23  C   UNL     1      38.394 -13.083  -0.483  1.00  0.00     0.236 C 
HETATM   24  H   UNL     1      40.449 -12.879  -0.887  1.00  0.00     0.280 HD
BRANCH  19  25
HETATM   25  C   UNL     1      39.889 -12.735   3.599  1.00  0.00     0.045 A 
HETATM   26  N   UNL     1      39.541 -11.816   4.520  1.00  0.00    -0.233 NA
HETATM   27  C   UNL     1      40.134 -11.901   5.732  1.00  0.00     0.160 A 
HETATM   28  N   UNL     1      41.085 -12.799   6.044  1.00  0.00    -0.233 NA
HETATM   29  C   UNL     1      41.432 -13.703   5.108  1.00  0.00     0.043 A 
HETATM   30  C   UNL     1      40.841 -13.707   3.856  1.00  0.00     0.055 A 
BRANCH  27  31
HETATM   31  C   UNL     1      39.674 -10.982   6.789  1.00  0.00     0.014 A 
HETATM   32  C   UNL     1      39.455 -11.426   8.102  1.00  0.00     0.034 A 
HETATM   33  C   UNL     1      38.995 -10.536   9.060  1.00  0.00     0.117 A 
HETATM   34  N   UNL     1      38.741  -9.237   8.810  1.00  0.00    -0.273 NA
HETATM   35  C   UNL     1      38.948  -8.812   7.549  1.00  0.00     0.117 A 
HETATM   36  C   UNL     1      39.405  -9.630   6.527  1.00  0.00     0.034 A 
ENDBRANCH  27  31
BRANCH  29  37
HETATM   37  C   UNL     1      42.517 -14.720   5.442  1.00  0.00     0.037 C 
BRANCH  37  38
HETATM   38  C   UNL     1      42.028 -15.788   6.450  1.00  0.00     0.006 C 
HETATM   39  C   UNL     1      40.886 -16.684   5.986  1.00  0.00     0.006 C 
ENDBRANCH  37  38
BRANCH  37  40
HETATM   40  C   UNL     1      43.827 -14.039   5.885  1.00  0.00     0.006 C 
HETATM   41  C   UNL     1      44.478 -14.705   7.091  1.00  0.00     0.006 C 
ENDBRANCH  37  40
ENDBRANCH  29  37
ENDBRANCH  19  25
ENDBRANCH  15  16
ENDBRANCH  11  15
ENDBRANCH   1   9
TORSDOF 8
ENDMDL
MODEL 5
REMARK VINA RESULT:      -8.8      3.196      6.661
REMARK  8 active torsions:
REMARK  status: ('A' for Active; 'I' for Inactive)
REMARK    1  A    between atoms: C_2  and  C_3 
REMARK    2  A    between atoms: C_3  and  C_4 
REMARK    3  A    between atoms: C_3  and  C_38 
REMARK    4  A    between atoms: C_6  and  C_7 
REMARK    5  A    between atoms: C_14  and  C_15 
REMARK    6  A    between atoms: C_18  and  C_19 
REMARK    7  A    between atoms: C_19  and  N_20 
REMARK       I    between atoms: N_20  and  C_21 
REMARK       I    between atoms: C_21  and  N_22 
REMARK    8  A    between atoms: N_22  and  C_23 
ROOT
HETATM    1  C   UNL     1      42.727 -16.991   6.285  1.00  0.00     0.037 A 
HETATM    2  C   UNL     1      43.210 -18.102   5.585  1.00  0.00     0.052 A 
HETATM    3  C   UNL     1      43.912 -19.114   6.254  1.00  0.00     0.046 A 
HETATM    4  C   UNL     1      44.407 -20.240   5.516  1.00  0.00     0.099 C 
HETATM    5  N   UNL     1      44.791 -21.142   4.898  1.00  0.00    -0.191 NA
HETATM    6  C   UNL     1      44.136 -19.017   7.629  1.00  0.00     0.023 A 
HETATM    7  C   UNL     1      43.662 -17.910   8.332  1.00  0.00     0.004 A 
HETATM    8  C   UNL     1      42.965 -16.900   7.660  1.00  0.00     0.029 A 
ENDROOT
BRANCH   1   9
HETATM    9  N   UNL     1      42.043 -15.923   5.665  1.00  0.00    -0.309 N 
HETATM   10  C   UNL     1      42.601 -14.783   5.147  1.00  0.00     0.320 C 
HETATM   11  N   UNL     1      41.649 -13.847   4.817  1.00  0.00    -0.341 N 
HETATM   12  O   UNL     1      43.792 -14.578   4.934  1.00  0.00    -0.247 OA
HETATM   13  H   UNL     1      40.797 -13.927   5.361  1.00  0.00     0.164 HD
HETATM   14  H   UNL     1      41.064 -16.080   5.461  1.00  0.00     0.170 HD
BRANCH  11  15
HETATM   15  C   UNL     1      42.007 -12.485   4.417  1.00  0.00     0.157 C 
BRANCH  15  16
HETATM   16  C   UNL     1      40.869 -11.689   3.731  1.00  0.00     0.206 C 
HETATM   17  C   UNL     1      41.074 -11.491   2.220  1.00  0.00     0.040 C 
HETATM   18  C   UNL     1      39.733 -11.659   1.468  1.00  0.00     0.001 C 
HETATM   19  C   UNL     1      39.271 -13.139   1.567  1.00  0.00     0.068 C 
HETATM   20  C   UNL     1      38.666 -10.790   2.178  1.00  0.00     0.033 C 
HETATM   21  C   UNL     1      39.287 -13.563   3.053  1.00  0.00     0.246 C 
HETATM   22  N   UNL     1      39.488 -12.315   3.907  1.00  0.00    -0.065 N 
HETATM   23  C   UNL     1      38.419 -11.296   3.605  1.00  0.00     0.236 C 
HETATM   24  H   UNL     1      39.408 -12.629   4.899  1.00  0.00     0.280 HD
BRANCH  19  25
HETATM   25  C   UNL     1      40.053 -14.065   0.658  1.00  0.00     0.045 A 
HETATM   26  N   UNL     1      40.840 -14.997   1.230  1.00  0.00    -0.233 NA
HETATM   27  C   UNL     1      41.507 -15.833   0.403  1.00  0.00     0.160 A 
HETATM   28  N   UNL     1      41.478 -15.746  -0.939  1.00  0.00    -0.233 NA
HETATM   29  C   UNL     1      40.698 -14.800  -1.496  1.00  0.00     0.043 A 
HETATM   30  C   UNL     1      39.953 -13.932  -0.716  1.00  0.00     0.055 A 
BRANCH  27  31
HETATM   31  C   UNL     1      42.273 -16.937   1.011  1.00  0.00     0.014 A 
HETATM   32  C   UNL     1      41.651 -18.132   1.402  1.00  0.00     0.034 A 
HETATM   33  C   UNL     1      42.403 -19.134   1.996  1.00  0.00     0.117 A 
HETATM   34  N   UNL     1      43.727 -19.036   2.225  1.00  0.00    -0.273 NA
HETATM   35  C   UNL     1      44.322 -17.888   1.851  1.00  0.00     0.117 A 
HETATM   36  C   UNL     1      43.651 -16.833   1.253  1.00  0.00     0.034 A 
ENDBRANCH  27  31
BRANCH  29  37
HETATM   37  C   UNL     1      40.665 -14.681  -3.014  1.00  0.00     0.037 C 
BRANCH  37  38
HETATM   38  C   UNL     1      41.287 -13.354  -3.510  1.00  0.00     0.006 C 
HETATM   39  C   UNL     1      42.657 -12.995  -2.946  1.00  0.00     0.006 C 
ENDBRANCH  37  38
BRANCH  37  40
HETATM   40  C   UNL     1      39.251 -14.924  -3.579  1.00  0.00     0.006 C 
HETATM   41  C   UNL     1      39.050 -16.334  -4.121  1.00  0.00     0.006 C 
ENDBRANCH  37  40
ENDBRANCH  29  37
ENDBRANCH  19  25
ENDBRANCH  15  16
ENDBRANCH  11  15
ENDBRANCH   1   9
TORSDOF 8
ENDMDL
MODEL 6
REMARK VINA RESULT:      -8.7      1.283      4.076
REMARK  8 active torsions:
REMARK  status: ('A' for Active; 'I' for Inactive)
REMARK    1  A    between atoms: C_2  and  C_3 
REMARK    2  A    between atoms: C_3  and  C_4 
REMARK    3  A    between atoms: C_3  and  C_38 
REMARK    4  A    between atoms: C_6  and  C_7 
REMARK    5  A    between atoms: C_14  and  C_15 
REMARK    6  A    between atoms: C_18  and  C_19 
REMARK    7  A    between atoms: C_19  and  N_20 
REMARK       I    between atoms: N_20  and  C_21 
REMARK       I    between atoms: C_21  and  N_22 
REMARK    8  A    between atoms: N_22  and  C_23 
ROOT
HETATM    1  C   UNL     1      41.280 -10.174   7.161  1.00  0.00     0.037 A 
HETATM    2  C   UNL     1      42.041 -10.838   8.129  1.00  0.00     0.052 A 
HETATM    3  C   UNL     1      42.159 -10.315   9.424  1.00  0.00     0.046 A 
HETATM    4  C   UNL     1      42.951 -11.007  10.398  1.00  0.00     0.099 C 
HETATM    5  N   UNL     1      43.592 -11.589  11.170  1.00  0.00    -0.191 NA
HETATM    6  C   UNL     1      41.518  -9.119   9.754  1.00  0.00     0.023 A 
HETATM    7  C   UNL     1      40.763  -8.449   8.793  1.00  0.00     0.004 A 
HETATM    8  C   UNL     1      40.650  -8.972   7.501  1.00  0.00     0.029 A 
ENDROOT
BRANCH   1   9
HETATM    9  N   UNL     1      41.149 -10.631   5.832  1.00  0.00    -0.309 N 
HETATM   10  C   UNL     1      40.182 -11.471   5.345  1.00  0.00     0.320 C 
HETATM   11  N   UNL     1      40.463 -11.896   4.067  1.00  0.00    -0.341 N 
HETATM   12  O   UNL     1      39.146 -11.805   5.910  1.00  0.00    -0.247 OA
HETATM   13  H   UNL     1      41.454 -11.902   3.851  1.00  0.00     0.164 HD
HETATM   14  H   UNL     1      41.745 -10.184   5.147  1.00  0.00     0.170 HD
BRANCH  11  15
HETATM   15  C   UNL     1      39.675 -12.937   3.405  1.00  0.00     0.157 C 
BRANCH  15  16
HETATM   16  C   UNL     1      40.079 -13.224   1.938  1.00  0.00     0.206 C 
HETATM   17  C   UNL     1      41.566 -13.574   1.760  1.00  0.00     0.040 C 
HETATM   18  C   UNL     1      41.732 -14.714   0.728  1.00  0.00     0.001 C 
HETATM   19  C   UNL     1      41.132 -16.023   1.310  1.00  0.00     0.068 C 
HETATM   20  C   UNL     1      40.914 -14.348  -0.535  1.00  0.00     0.033 C 
HETATM   21  C   UNL     1      39.693 -15.734   1.795  1.00  0.00     0.246 C 
HETATM   22  N   UNL     1      39.283 -14.355   1.290  1.00  0.00    -0.065 N 
HETATM   23  C   UNL     1      39.417 -14.284  -0.209  1.00  0.00     0.236 C 
HETATM   24  H   UNL     1      38.283 -14.233   1.563  1.00  0.00     0.280 HD
BRANCH  19  25
HETATM   25  C   UNL     1      42.015 -16.663   2.362  1.00  0.00     0.045 A 
HETATM   26  N   UNL     1      42.442 -15.895   3.382  1.00  0.00    -0.233 NA
HETATM   27  C   UNL     1      43.205 -16.491   4.326  1.00  0.00     0.160 A 
HETATM   28  N   UNL     1      43.607 -17.773   4.270  1.00  0.00    -0.233 NA
HETATM   29  C   UNL     1      43.183 -18.525   3.237  1.00  0.00     0.043 A 
HETATM   30  C   UNL     1      42.366 -17.998   2.251  1.00  0.00     0.055 A 
BRANCH  27  31
HETATM   31  C   UNL     1      43.577 -15.698   5.512  1.00  0.00     0.014 A 
HETATM   32  C   UNL     1      43.718 -14.303   5.447  1.00  0.00     0.034 A 
HETATM   33  C   UNL     1      44.097 -13.599   6.579  1.00  0.00     0.117 A 
HETATM   34  N   UNL     1      44.340 -14.177   7.771  1.00  0.00    -0.273 NA
HETATM   35  C   UNL     1      44.207 -15.515   7.832  1.00  0.00     0.117 A 
HETATM   36  C   UNL     1      43.834 -16.301   6.752  1.00  0.00     0.034 A 
ENDBRANCH  27  31
BRANCH  29  37
HETATM   37  C   UNL     1      43.640 -19.976   3.153  1.00  0.00     0.037 C 
BRANCH  37  38
HETATM   38  C   UNL     1      44.896 -20.245   4.017  1.00  0.00     0.006 C 
HETATM   39  C   UNL     1      44.748 -21.288   5.119  1.00  0.00     0.006 C 
ENDBRANCH  37  38
BRANCH  37  40
HETATM   40  C   UNL     1      43.811 -20.441   1.693  1.00  0.00     0.006 C 
HETATM   41  C   UNL     1      43.996 -21.948   1.556  1.00  0.00     0.006 C 
ENDBRANCH  37  40
ENDBRANCH  29  37
ENDBRANCH  19  25
ENDBRANCH  15  16
ENDBRANCH  11  15
ENDBRANCH   1   9
TORSDOF 8
ENDMDL
MODEL 7
REMARK VINA RESULT:      -8.6      2.711      7.126
REMARK  8 active torsions:
REMARK  status: ('A' for Active; 'I' for Inactive)
REMARK    1  A    between atoms: C_2  and  C_3 
REMARK    2  A    between atoms: C_3  and  C_4 
REMARK    3  A    between atoms: C_3  and  C_38 
REMARK    4  A    between atoms: C_6  and  C_7 
REMARK    5  A    between atoms: C_14  and  C_15 
REMARK    6  A    between atoms: C_18  and  C_19 
REMARK    7  A    between atoms: C_19  and  N_20 
REMARK       I    between atoms: N_20  and  C_21 
REMARK       I    between atoms: C_21  and  N_22 
REMARK    8  A    between atoms: N_22  and  C_23 
ROOT
HETATM    1  C   UNL     1      43.515 -18.399   5.807  1.00  0.00     0.037 A 
HETATM    2  C   UNL     1      43.957 -19.432   4.975  1.00  0.00     0.052 A 
HETATM    3  C   UNL     1      44.218 -20.706   5.499  1.00  0.00     0.046 A 
HETATM    4  C   UNL     1      44.678 -21.749   4.630  1.00  0.00     0.099 C 
HETATM    5  N   UNL     1      45.044 -22.577   3.904  1.00  0.00    -0.191 NA
HETATM    6  C   UNL     1      44.040 -20.950   6.862  1.00  0.00     0.023 A 
HETATM    7  C   UNL     1      43.605 -19.923   7.699  1.00  0.00     0.004 A 
HETATM    8  C   UNL     1      43.349 -18.652   7.173  1.00  0.00     0.029 A 
ENDROOT
BRANCH   1   9
HETATM    9  N   UNL     1      43.268 -17.087   5.348  1.00  0.00    -0.309 N 
HETATM   10  C   UNL     1      43.650 -15.920   5.957  1.00  0.00     0.320 C 
HETATM   11  N   UNL     1      43.065 -14.819   5.375  1.00  0.00    -0.341 N 
HETATM   12  O   UNL     1      44.448 -15.799   6.881  1.00  0.00    -0.247 OA
HETATM   13  H   UNL     1      42.179 -15.022   4.925  1.00  0.00     0.164 HD
HETATM   14  H   UNL     1      42.895 -17.006   4.411  1.00  0.00     0.170 HD
BRANCH  11  15
HETATM   15  C   UNL     1      43.176 -13.482   5.960  1.00  0.00     0.157 C 
BRANCH  15  16
HETATM   16  C   UNL     1      41.885 -12.629   5.881  1.00  0.00     0.206 C 
HETATM   17  C   UNL     1      41.608 -12.051   4.484  1.00  0.00     0.040 C 
HETATM   18  C   UNL     1      40.098 -12.129   4.159  1.00  0.00     0.001 C 
HETATM   19  C   UNL     1      39.681 -13.618   4.009  1.00  0.00     0.068 C 
HETATM   20  C   UNL     1      39.311 -11.544   5.357  1.00  0.00     0.033 C 
HETATM   21  C   UNL     1      40.160 -14.392   5.258  1.00  0.00     0.246 C 
HETATM   22  N   UNL     1      40.625 -13.382   6.301  1.00  0.00    -0.065 N 
HETATM   23  C   UNL     1      39.521 -12.403   6.611  1.00  0.00     0.236 C 
HETATM   24  H   UNL     1      40.857 -13.935   7.155  1.00  0.00     0.280 HD
BRANCH  19  25
HETATM   25  C   UNL     1      40.134 -14.231   2.699  1.00  0.00     0.045 A 
HETATM   26  N   UNL     1      41.030 -15.235   2.746  1.00  0.00    -0.233 NA
HETATM   27  C   UNL     1      41.400 -15.788   1.569  1.00  0.00     0.160 A 
HETATM   28  N   UNL     1      40.978 -15.355   0.368  1.00  0.00    -0.233 NA
HETATM   29  C   UNL     1      40.093 -14.340   0.336  1.00  0.00     0.043 A 
HETATM   30  C   UNL     1      39.635 -13.748   1.501  1.00  0.00     0.055 A 
BRANCH  27  31
HETATM   31  C   UNL     1      42.282 -16.969   1.611  1.00  0.00     0.014 A 
HETATM   32  C   UNL     1      41.761 -18.271   1.669  1.00  0.00     0.034 A 
HETATM   33  C   UNL     1      42.625 -19.353   1.735  1.00  0.00     0.117 A 
HETATM   34  N   UNL     1      43.967 -19.236   1.743  1.00  0.00    -0.273 NA
HETATM   35  C   UNL     1      44.466 -17.987   1.689  1.00  0.00     0.117 A 
HETATM   36  C   UNL     1      43.679 -16.847   1.623  1.00  0.00     0.034 A 
ENDBRANCH  27  31
BRANCH  29  37
HETATM   37  C   UNL     1      39.615 -13.830  -1.017  1.00  0.00     0.037 C 
BRANCH  37  38
HETATM   38  C   UNL     1      38.081 -13.625  -1.057  1.00  0.00     0.006 C 
HETATM   39  C   UNL     1      37.560 -12.605  -2.063  1.00  0.00     0.006 C 
ENDBRANCH  37  38
BRANCH  37  40
HETATM   40  C   UNL     1      40.129 -14.706  -2.177  1.00  0.00     0.006 C 
HETATM   41  C   UNL     1      40.931 -13.929  -3.214  1.00  0.00     0.006 C 
ENDBRANCH  37  40
ENDBRANCH  29  37
ENDBRANCH  19  25
ENDBRANCH  15  16
ENDBRANCH  11  15
ENDBRANCH   1   9
TORSDOF 8
ENDMDL
MODEL 8
REMARK VINA RESULT:      -8.6      2.904      7.967
REMARK  8 active torsions:
REMARK  status: ('A' for Active; 'I' for Inactive)
REMARK    1  A    between atoms: C_2  and  C_3 
REMARK    2  A    between atoms: C_3  and  C_4 
REMARK    3  A    between atoms: C_3  and  C_38 
REMARK    4  A    between atoms: C_6  and  C_7 
REMARK    5  A    between atoms: C_14  and  C_15 
REMARK    6  A    between atoms: C_18  and  C_19 
REMARK    7  A    between atoms: C_19  and  N_20 
REMARK       I    between atoms: N_20  and  C_21 
REMARK       I    between atoms: C_21  and  N_22 
REMARK    8  A    between atoms: N_22  and  C_23 
ROOT
HETATM    1  C   UNL     1      39.677 -14.156  -1.391  1.00  0.00     0.037 A 
HETATM    2  C   UNL     1      38.524 -14.071  -2.177  1.00  0.00     0.052 A 
HETATM    3  C   UNL     1      38.404 -14.826  -3.351  1.00  0.00     0.046 A 
HETATM    4  C   UNL     1      37.217 -14.717  -4.147  1.00  0.00     0.099 C 
HETATM    5  N   UNL     1      36.244 -14.614  -4.770  1.00  0.00    -0.191 NA
HETATM    6  C   UNL     1      39.444 -15.671  -3.746  1.00  0.00     0.023 A 
HETATM    7  C   UNL     1      40.599 -15.757  -2.971  1.00  0.00     0.004 A 
HETATM    8  C   UNL     1      40.716 -14.999  -1.801  1.00  0.00     0.029 A 
ENDROOT
BRANCH   1   9
HETATM    9  N   UNL     1      39.873 -13.398  -0.217  1.00  0.00    -0.309 N 
HETATM   10  C   UNL     1      39.130 -13.460   0.933  1.00  0.00     0.320 C 
HETATM   11  N   UNL     1      39.438 -12.440   1.803  1.00  0.00    -0.341 N 
HETATM   12  O   UNL     1      38.309 -14.321   1.233  1.00  0.00    -0.247 OA
HETATM   13  H   UNL     1      39.798 -11.611   1.343  1.00  0.00     0.164 HD
HETATM   14  H   UNL     1      40.727 -12.857  -0.174  1.00  0.00     0.170 HD
BRANCH  11  15
HETATM   15  C   UNL     1      38.655 -12.190   3.014  1.00  0.00     0.157 C 
BRANCH  15  16
HETATM   16  C   UNL     1      39.464 -11.618   4.205  1.00  0.00     0.206 C 
HETATM   17  C   UNL     1      39.878 -12.677   5.240  1.00  0.00     0.040 C 
HETATM   18  C   UNL     1      41.318 -12.411   5.736  1.00  0.00     0.001 C 
HETATM   19  C   UNL     1      42.316 -12.655   4.570  1.00  0.00     0.068 C 
HETATM   20  C   UNL     1      41.427 -10.920   6.137  1.00  0.00     0.033 C 
HETATM   21  C   UNL     1      41.847 -11.842   3.343  1.00  0.00     0.246 C 
HETATM   22  N   UNL     1      40.741 -10.892   3.788  1.00  0.00    -0.065 N 
HETATM   23  C   UNL     1      41.225 -10.016   4.915  1.00  0.00     0.236 C 
HETATM   24  H   UNL     1      40.513 -10.304   2.956  1.00  0.00     0.280 HD
BRANCH  19  25
HETATM   25  C   UNL     1      42.541 -14.125   4.280  1.00  0.00     0.045 A 
HETATM   26  N   UNL     1      42.930 -14.918   5.297  1.00  0.00    -0.233 NA
HETATM   27  C   UNL     1      43.099 -16.232   5.026  1.00  0.00     0.160 A 
HETATM   28  N   UNL     1      42.962 -16.771   3.801  1.00  0.00    -0.233 NA
HETATM   29  C   UNL     1      42.586 -15.963   2.792  1.00  0.00     0.043 A 
HETATM   30  C   UNL     1      42.356 -14.613   2.999  1.00  0.00     0.055 A 
BRANCH  27  31
HETATM   31  C   UNL     1      43.402 -17.134   6.152  1.00  0.00     0.014 A 
HETATM   32  C   UNL     1      43.741 -18.479   5.942  1.00  0.00     0.034 A 
HETATM   33  C   UNL     1      43.992 -19.301   7.030  1.00  0.00     0.117 A 
HETATM   34  N   UNL     1      43.933 -18.882   8.310  1.00  0.00    -0.273 NA
HETATM   35  C   UNL     1      43.605 -17.592   8.510  1.00  0.00     0.117 A 
HETATM   36  C   UNL     1      43.337 -16.699   7.484  1.00  0.00     0.034 A 
ENDBRANCH  27  31
BRANCH  29  37
HETATM   37  C   UNL     1      42.440 -16.556   1.396  1.00  0.00     0.037 C 
BRANCH  37  38
HETATM   38  C   UNL     1      41.142 -17.387   1.247  1.00  0.00     0.006 C 
HETATM   39  C   UNL     1      39.954 -16.945   2.093  1.00  0.00     0.006 C 
ENDBRANCH  37  38
BRANCH  37  40
HETATM   40  C   UNL     1      43.699 -17.336   0.968  1.00  0.00     0.006 C 
HETATM   41  C   UNL     1      43.926 -18.609   1.776  1.00  0.00     0.006 C 
ENDBRANCH  37  40
ENDBRANCH  29  37
ENDBRANCH  19  25
ENDBRANCH  15  16
ENDBRANCH  11  15
ENDBRANCH   1   9
TORSDOF 8
ENDMDL
MODEL 9
REMARK VINA RESULT:      -8.6      3.299      8.046
REMARK  8 active torsions:
REMARK  status: ('A' for Active; 'I' for Inactive)
REMARK    1  A    between atoms: C_2  and  C_3 
REMARK    2  A    between atoms: C_3  and  C_4 
REMARK    3  A    between atoms: C_3  and  C_38 
REMARK    4  A    between atoms: C_6  and  C_7 
REMARK    5  A    between atoms: C_14  and  C_15 
REMARK    6  A    between atoms: C_18  and  C_19 
REMARK    7  A    between atoms: C_19  and  N_20 
REMARK       I    between atoms: N_20  and  C_21 
REMARK       I    between atoms: C_21  and  N_22 
REMARK    8  A    between atoms: N_22  and  C_23 
ROOT
HETATM    1  C   UNL     1      42.274 -11.480  -0.346  1.00  0.00     0.037 A 
HETATM    2  C   UNL     1      41.925 -12.651  -1.026  1.00  0.00     0.052 A 
HETATM    3  C   UNL     1      42.078 -12.741  -2.416  1.00  0.00     0.046 A 
HETATM    4  C   UNL     1      41.706 -13.948  -3.093  1.00  0.00     0.099 C 
HETATM    5  N   UNL     1      41.404 -14.938  -3.617  1.00  0.00    -0.191 NA
HETATM    6  C   UNL     1      42.580 -11.653  -3.134  1.00  0.00     0.023 A 
HETATM    7  C   UNL     1      42.924 -10.480  -2.465  1.00  0.00     0.004 A 
HETATM    8  C   UNL     1      42.766 -10.393  -1.077  1.00  0.00     0.029 A 
ENDROOT
BRANCH   1   9
HETATM    9  N   UNL     1      42.113 -11.314   1.046  1.00  0.00    -0.309 N 
HETATM   10  C   UNL     1      41.114 -10.620   1.679  1.00  0.00     0.320 C 
HETATM   11  N   UNL     1      41.367 -10.464   3.022  1.00  0.00    -0.341 N 
HETATM   12  O   UNL     1      40.076 -10.204   1.177  1.00  0.00    -0.247 OA
HETATM   13  H   UNL     1      42.354 -10.476   3.253  1.00  0.00     0.164 HD
HETATM   14  H   UNL     1      42.713 -11.878   1.634  1.00  0.00     0.170 HD
BRANCH  11  15
HETATM   15  C   UNL     1      40.539  -9.605   3.872  1.00  0.00     0.157 C 
BRANCH  15  16
HETATM   16  C   UNL     1      40.030 -10.274   5.173  1.00  0.00     0.206 C 
HETATM   17  C   UNL     1      38.985 -11.377   4.935  1.00  0.00     0.040 C 
HETATM   18  C   UNL     1      39.235 -12.571   5.886  1.00  0.00     0.001 C 
HETATM   19  C   UNL     1      40.569 -13.265   5.496  1.00  0.00     0.068 C 
HETATM   20  C   UNL     1      39.399 -12.021   7.323  1.00  0.00     0.033 C 
HETATM   21  C   UNL     1      41.681 -12.194   5.425  1.00  0.00     0.246 C 
HETATM   22  N   UNL     1      41.139 -10.898   6.018  1.00  0.00    -0.065 N 
HETATM   23  C   UNL     1      40.644 -11.130   7.423  1.00  0.00     0.236 C 
HETATM   24  H   UNL     1      41.940 -10.229   6.031  1.00  0.00     0.280 HD
BRANCH  19  25
HETATM   25  C   UNL     1      40.454 -14.111   4.244  1.00  0.00     0.045 A 
HETATM   26  N   UNL     1      39.669 -13.660   3.247  1.00  0.00    -0.233 NA
HETATM   27  C   UNL     1      39.601 -14.414   2.127  1.00  0.00     0.160 A 
HETATM   28  N   UNL     1      40.215 -15.602   1.980  1.00  0.00    -0.233 NA
HETATM   29  C   UNL     1      40.984 -16.046   2.992  1.00  0.00     0.043 A 
HETATM   30  C   UNL     1      41.136 -15.312   4.156  1.00  0.00     0.055 A 
BRANCH  27  31
HETATM   31  C   UNL     1      38.849 -13.875   0.979  1.00  0.00     0.014 A 
HETATM   32  C   UNL     1      39.097 -14.313  -0.331  1.00  0.00     0.034 A 
HETATM   33  C   UNL     1      38.386 -13.760  -1.385  1.00  0.00     0.117 A 
HETATM   34  N   UNL     1      37.445 -12.809  -1.232  1.00  0.00    -0.273 NA
HETATM   35  C   UNL     1      37.209 -12.387   0.024  1.00  0.00     0.117 A 
HETATM   36  C   UNL     1      37.871 -12.881   1.138  1.00  0.00     0.034 A 
ENDBRANCH  27  31
BRANCH  29  37
HETATM   37  C   UNL     1      41.675 -17.396   2.846  1.00  0.00     0.037 C 
BRANCH  37  38
HETATM   38  C   UNL     1      42.894 -17.534   3.790  1.00  0.00     0.006 C 
HETATM   39  C   UNL     1      42.756 -18.532   4.934  1.00  0.00     0.006 C 
ENDBRANCH  37  38
BRANCH  37  40
HETATM   40  C   UNL     1      42.021 -17.710   1.377  1.00  0.00     0.006 C 
HETATM   41  C   UNL     1      43.510 -17.598   1.068  1.00  0.00     0.006 C 
ENDBRANCH  37  40
ENDBRANCH  29  37
ENDBRANCH  19  25
ENDBRANCH  15  16
ENDBRANCH  11  15
ENDBRANCH   1   9
TORSDOF 8
ENDMDL
MODEL 10
REMARK VINA RESULT:      -8.6      3.511      9.125
REMARK  8 active torsions:
REMARK  status: ('A' for Active; 'I' for Inactive)
REMARK    1  A    between atoms: C_2  and  C_3 
REMARK    2  A    between atoms: C_3  and  C_4 
REMARK    3  A    between atoms: C_3  and  C_38 
REMARK    4  A    between atoms: C_6  and  C_7 
REMARK    5  A    between atoms: C_14  and  C_15 
REMARK    6  A    between atoms: C_18  and  C_19 
REMARK    7  A    between atoms: C_19  and  N_20 
REMARK       I    between atoms: N_20  and  C_21 
REMARK       I    between atoms: C_21  and  N_22 
REMARK    8  A    between atoms: N_22  and  C_23 
ROOT
HETATM    1  C   UNL     1      43.571 -17.942   2.301  1.00  0.00     0.037 A 
HETATM    2  C   UNL     1      43.821 -19.274   1.956  1.00  0.00     0.052 A 
HETATM    3  C   UNL     1      44.191 -20.206   2.936  1.00  0.00     0.046 A 
HETATM    4  C   UNL     1      44.450 -21.564   2.560  1.00  0.00     0.099 C 
HETATM    5  N   UNL     1      44.649 -22.659   2.230  1.00  0.00    -0.191 NA
HETATM    6  C   UNL     1      44.315 -19.805   4.268  1.00  0.00     0.023 A 
HETATM    7  C   UNL     1      44.073 -18.478   4.618  1.00  0.00     0.004 A 
HETATM    8  C   UNL     1      43.708 -17.550   3.637  1.00  0.00     0.029 A 
ENDROOT
BRANCH   1   9
HETATM    9  N   UNL     1      43.229 -16.949   1.358  1.00  0.00    -0.309 N 
HETATM   10  C   UNL     1      42.034 -16.822   0.698  1.00  0.00     0.320 C 
HETATM   11  N   UNL     1      42.099 -15.889  -0.311  1.00  0.00    -0.341 N 
HETATM   12  O   UNL     1      40.985 -17.403   0.957  1.00  0.00    -0.247 OA
HETATM   13  H   UNL     1      43.031 -15.767  -0.690  1.00  0.00     0.164 HD
HETATM   14  H   UNL     1      43.880 -16.180   1.265  1.00  0.00     0.170 HD
BRANCH  11  15
HETATM   15  C   UNL     1      41.007 -15.707  -1.269  1.00  0.00     0.157 C 
BRANCH  15  16
HETATM   16  C   UNL     1      41.174 -14.497  -2.222  1.00  0.00     0.206 C 
HETATM   17  C   UNL     1      39.902 -13.645  -2.372  1.00  0.00     0.040 C 
HETATM   18  C   UNL     1      40.263 -12.141  -2.402  1.00  0.00     0.001 C 
HETATM   19  C   UNL     1      40.806 -11.716  -1.010  1.00  0.00     0.068 C 
HETATM   20  C   UNL     1      41.402 -11.935  -3.429  1.00  0.00     0.033 C 
HETATM   21  C   UNL     1      41.936 -12.688  -0.604  1.00  0.00     0.246 C 
HETATM   22  N   UNL     1      42.294 -13.543  -1.814  1.00  0.00    -0.065 N 
HETATM   23  C   UNL     1      42.673 -12.667  -2.981  1.00  0.00     0.236 C 
HETATM   24  H   UNL     1      43.113 -14.123  -1.527  1.00  0.00     0.280 HD
BRANCH  19  25
HETATM   25  C   UNL     1      39.717 -11.573   0.033  1.00  0.00     0.045 A 
HETATM   26  N   UNL     1      39.926 -12.121   1.245  1.00  0.00    -0.233 NA
HETATM   27  C   UNL     1      38.956 -11.959   2.172  1.00  0.00     0.160 A 
HETATM   28  N   UNL     1      37.782 -11.345   1.935  1.00  0.00    -0.233 NA
HETATM   29  C   UNL     1      37.582 -10.815   0.713  1.00  0.00     0.043 A 
HETATM   30  C   UNL     1      38.545 -10.905  -0.277  1.00  0.00     0.055 A 
BRANCH  27  31
HETATM   31  C   UNL     1      39.221 -12.442   3.540  1.00  0.00     0.014 A 
HETATM   32  C   UNL     1      38.906 -11.666   4.666  1.00  0.00     0.034 A 
HETATM   33  C   UNL     1      39.198 -12.146   5.933  1.00  0.00     0.117 A 
HETATM   34  N   UNL     1      39.776 -13.341   6.163  1.00  0.00    -0.273 NA
HETATM   35  C   UNL     1      40.082 -14.083   5.083  1.00  0.00     0.117 A 
HETATM   36  C   UNL     1      39.828 -13.685   3.779  1.00  0.00     0.034 A 
ENDBRANCH  27  31
BRANCH  29  37
HETATM   37  C   UNL     1      36.253 -10.128   0.424  1.00  0.00     0.037 C 
BRANCH  37  38
HETATM   38  C   UNL     1      36.032  -8.882   1.317  1.00  0.00     0.006 C 
HETATM   39  C   UNL     1      36.858  -7.648   0.973  1.00  0.00     0.006 C 
ENDBRANCH  37  38
BRANCH  37  40
HETATM   40  C   UNL     1      35.071 -11.116   0.477  1.00  0.00     0.006 C 
HETATM   41  C   UNL     1      33.844 -10.554   1.187  1.00  0.00     0.006 C 
ENDBRANCH  37  40
ENDBRANCH  29  37
ENDBRANCH  19  25
ENDBRANCH  15  16
ENDBRANCH  11  15
ENDBRANCH   1   9
TORSDOF 8
ENDMDL
