MODEL 1
REMARK VINA RESULT:      -7.8      0.000      0.000
REMARK  10 active torsions:
REMARK  status: ('A' for Active; 'I' for Inactive)
REMARK    1  A    between atoms: C_2  and  O_3 
REMARK    2  A    between atoms: O_3  and  C_4 
REMARK    3  A    between atoms: C_5  and  O_6 
REMARK    4  A    between atoms: O_6  and  C_7 
REMARK    5  A    between atoms: C_7  and  C_8 
REMARK       I    between atoms: C_8  and  N_9 
REMARK    6  A    between atoms: N_9  and  C_10 
REMARK    7  A    between atoms: C_18  and  C_19 
REMARK    8  A    between atoms: C_19  and  N_20 
REMARK    9  A    between atoms: N_20  and  C_21 
REMARK   10  A    between atoms: C_24  and  N_25 
ROOT
HETATM    1  C   UNL     1      42.099 -12.717   5.964  1.00  0.00     0.103 A 
HETATM    2  C   UNL     1      41.353 -11.528   6.042  1.00  0.00     0.120 A 
HETATM    3  C   UNL     1      40.289 -11.303   5.162  1.00  0.00     0.047 A 
HETATM    4 BR   UNL     1      39.316  -9.676   5.157  1.00  0.00    -0.048 Br
HETATM    5  C   UNL     1      39.920 -12.291   4.247  1.00  0.00     0.031 A 
HETATM    6  C   UNL     1      40.624 -13.503   4.186  1.00  0.00    -0.036 A 
HETATM    7  C   UNL     1      41.715 -13.704   5.049  1.00  0.00     0.048 A 
ENDROOT
BRANCH   6   8
HETATM    8  C   UNL     1      40.203 -14.583   3.216  1.00  0.00     0.158 C 
BRANCH   8   9
HETATM    9  N   UNL     1      41.303 -14.873   2.302  1.00  0.00    -0.386 N 
HETATM   10  H   UNL     1      41.909 -14.066   2.158  1.00  0.00     0.160 HD
BRANCH   9  11
HETATM   11  C   UNL     1      42.004 -16.072   2.402  1.00  0.00     0.028 A 
HETATM   12  C   UNL     1      43.107 -16.396   1.602  1.00  0.00     0.031 A 
HETATM   13  C   UNL     1      43.807 -17.596   1.778  1.00  0.00     0.039 A 
HETATM   14  C   UNL     1      43.429 -18.480   2.787  1.00  0.00     0.134 A 
HETATM   15  C   UNL     1      42.372 -18.154   3.633  1.00  0.00     0.039 A 
HETATM   16  C   UNL     1      41.680 -16.952   3.446  1.00  0.00     0.031 A 
BRANCH  14  17
HETATM   17  N   UNL     1      44.160 -19.756   2.922  1.00  0.00    -0.041 N 
HETATM   18  H   UNL     1      45.116 -19.573   2.592  1.00  0.00     0.286 HD
HETATM   19  C   UNL     1      44.278 -20.188   4.361  1.00  0.00     0.241 C 
HETATM   20  C   UNL     1      45.170 -21.424   4.426  1.00  0.00     0.028 C 
HETATM   21  C   UNL     1      44.661 -22.538   3.513  1.00  0.00     0.003 C 
HETATM   22  C   UNL     1      44.478 -22.049   2.079  1.00  0.00     0.028 C 
HETATM   23  C   UNL     1      43.585 -20.815   2.015  1.00  0.00     0.241 C 
ENDBRANCH  14  17
ENDBRANCH   9  11
ENDBRANCH   8   9
ENDBRANCH   6   8
BRANCH   1  24
HETATM   24  O   UNL     1      43.135 -12.839   6.850  1.00  0.00    -0.349 OA
BRANCH  24  25
HETATM   25  C   UNL     1      43.971 -13.992   6.752  1.00  0.00     0.171 C 
HETATM   26  C   UNL     1      45.404 -13.626   7.093  1.00  0.00     0.034 C 
ENDBRANCH  24  25
ENDBRANCH   1  24
BRANCH   2  27
HETATM   27  O   UNL     1      41.725 -10.570   6.955  1.00  0.00    -0.338 OA
BRANCH  27  28
HETATM   28  C   UNL     1      40.920 -10.678   8.135  1.00  0.00     0.278 C 
BRANCH  28  29
HETATM   29  C   UNL     1      41.737 -10.420   9.398  1.00  0.00     0.242 C 
HETATM   30  N   UNL     1      42.609 -11.438   9.722  1.00  0.00    -0.351 N 
HETATM   31  H   UNL     1      42.729 -12.147   9.002  1.00  0.00     0.163 HD
HETATM   32  O   UNL     1      41.564  -9.412  10.078  1.00  0.00    -0.271 OA
BRANCH  30  33
HETATM   33  C   UNL     1      43.526 -11.438  10.868  1.00  0.00     0.022 C 
HETATM   34  C   UNL     1      42.754 -11.509  12.196  1.00  0.00     0.037 C 
HETATM   35  C   UNL     1      44.418 -12.688  10.765  1.00  0.00     0.037 C 
HETATM   36  C   UNL     1      44.424 -10.192  10.848  1.00  0.00     0.037 C 
ENDBRANCH  30  33
ENDBRANCH  28  29
ENDBRANCH  27  28
ENDBRANCH   2  27
TORSDOF 10
ENDMDL
MODEL 2
REMARK VINA RESULT:      -7.8      1.992      3.004
REMARK  10 active torsions:
REMARK  status: ('A' for Active; 'I' for Inactive)
REMARK    1  A    between atoms: C_2  and  O_3 
REMARK    2  A    between atoms: O_3  and  C_4 
REMARK    3  A    between atoms: C_5  and  O_6 
REMARK    4  A    between atoms: O_6  and  C_7 
REMARK    5  A    between atoms: C_7  and  C_8 
REMARK       I    between atoms: C_8  and  N_9 
REMARK    6  A    between atoms: N_9  and  C_10 
REMARK    7  A    between atoms: C_18  and  C_19 
REMARK    8  A    between atoms: C_19  and  N_20 
REMARK    9  A    between atoms: N_20  and  C_21 
REMARK   10  A    between atoms: C_24  and  N_25 
ROOT
HETATM    1  C   UNL     1      42.103 -10.444   8.094  1.00  0.00     0.103 A 
HETATM    2  C   UNL     1      41.101  -9.457   8.101  1.00  0.00     0.120 A 
HETATM    3  C   UNL     1      40.028  -9.536   7.208  1.00  0.00     0.047 A 
HETATM    4 BR   UNL     1      38.705  -8.181   7.105  1.00  0.00    -0.048 Br
HETATM    5  C   UNL     1      39.911 -10.633   6.352  1.00  0.00     0.031 A 
HETATM    6  C   UNL     1      40.877 -11.651   6.365  1.00  0.00    -0.036 A 
HETATM    7  C   UNL     1      41.972 -11.544   7.240  1.00  0.00     0.048 A 
ENDROOT
BRANCH   6   8
HETATM    8  C   UNL     1      40.731 -12.853   5.460  1.00  0.00     0.158 C 
BRANCH   8   9
HETATM    9  N   UNL     1      40.878 -14.075   6.246  1.00  0.00    -0.386 N 
HETATM   10  H   UNL     1      40.058 -14.267   6.819  1.00  0.00     0.160 HD
BRANCH   9  11
HETATM   11  C   UNL     1      41.425 -15.220   5.672  1.00  0.00     0.028 A 
HETATM   12  C   UNL     1      42.716 -15.277   5.133  1.00  0.00     0.031 A 
HETATM   13  C   UNL     1      43.236 -16.469   4.611  1.00  0.00     0.039 A 
HETATM   14  C   UNL     1      42.475 -17.636   4.655  1.00  0.00     0.134 A 
HETATM   15  C   UNL     1      41.211 -17.618   5.239  1.00  0.00     0.039 A 
HETATM   16  C   UNL     1      40.704 -16.420   5.755  1.00  0.00     0.031 A 
BRANCH  14  17
HETATM   17  N   UNL     1      43.033 -18.867   4.060  1.00  0.00    -0.041 N 
HETATM   18  H   UNL     1      42.395 -19.627   4.330  1.00  0.00     0.286 HD
HETATM   19  C   UNL     1      43.027 -18.818   2.554  1.00  0.00     0.241 C 
HETATM   20  C   UNL     1      43.473 -20.176   2.022  1.00  0.00     0.028 C 
HETATM   21  C   UNL     1      44.825 -20.594   2.596  1.00  0.00     0.003 C 
HETATM   22  C   UNL     1      44.822 -20.559   4.121  1.00  0.00     0.028 C 
HETATM   23  C   UNL     1      44.378 -19.201   4.653  1.00  0.00     0.241 C 
ENDBRANCH  14  17
ENDBRANCH   9  11
ENDBRANCH   8   9
ENDBRANCH   6   8
BRANCH   1  24
HETATM   24  O   UNL     1      43.126 -10.271   8.988  1.00  0.00    -0.349 OA
BRANCH  24  25
HETATM   25  C   UNL     1      43.996 -11.376   9.235  1.00  0.00     0.171 C 
HETATM   26  C   UNL     1      45.279 -10.893   9.886  1.00  0.00     0.034 C 
ENDBRANCH  24  25
ENDBRANCH   1  24
BRANCH   2  27
HETATM   27  O   UNL     1      41.229  -8.388   8.956  1.00  0.00    -0.338 OA
BRANCH  27  28
HETATM   28  C   UNL     1      40.395  -8.578  10.105  1.00  0.00     0.278 C 
BRANCH  28  29
HETATM   29  C   UNL     1      41.220  -8.693  11.385  1.00  0.00     0.242 C 
HETATM   30  N   UNL     1      41.608  -9.981  11.689  1.00  0.00    -0.351 N 
HETATM   31  H   UNL     1      41.452 -10.663  10.951  1.00  0.00     0.163 HD
HETATM   32  O   UNL     1      41.447  -7.715  12.091  1.00  0.00    -0.271 OA
BRANCH  30  33
HETATM   33  C   UNL     1      42.425 -10.371  12.846  1.00  0.00     0.022 C 
HETATM   34  C   UNL     1      43.589  -9.389  13.057  1.00  0.00     0.037 C 
HETATM   35  C   UNL     1      41.530 -10.332  14.097  1.00  0.00     0.037 C 
HETATM   36  C   UNL     1      42.966 -11.798  12.673  1.00  0.00     0.037 C 
ENDBRANCH  30  33
ENDBRANCH  28  29
ENDBRANCH  27  28
ENDBRANCH   2  27
TORSDOF 10
ENDMDL
MODEL 3
REMARK VINA RESULT:      -7.7      2.816      9.400
REMARK  10 active torsions:
REMARK  status: ('A' for Active; 'I' for Inactive)
REMARK    1  A    between atoms: C_2  and  O_3 
REMARK    2  A    between atoms: O_3  and  C_4 
REMARK    3  A    between atoms: C_5  and  O_6 
REMARK    4  A    between atoms: O_6  and  C_7 
REMARK    5  A    between atoms: C_7  and  C_8 
REMARK       I    between atoms: C_8  and  N_9 
REMARK    6  A    between atoms: N_9  and  C_10 
REMARK    7  A    between atoms: C_18  and  C_19 
REMARK    8  A    between atoms: C_19  and  N_20 
REMARK    9  A    between atoms: N_20  and  C_21 
REMARK   10  A    between atoms: C_24  and  N_25 
ROOT
HETATM    1  C   UNL     1      41.847 -15.436   5.371  1.00  0.00     0.103 A 
HETATM    2  C   UNL     1      41.136 -15.873   4.239  1.00  0.00     0.120 A 
HETATM    3  C   UNL     1      40.389 -14.965   3.483  1.00  0.00     0.047 A 
HETATM    4 BR   UNL     1      39.331 -15.517   2.009  1.00  0.00    -0.048 Br
HETATM    5  C   UNL     1      40.402 -13.607   3.808  1.00  0.00     0.031 A 
HETATM    6  C   UNL     1      41.144 -13.147   4.906  1.00  0.00    -0.036 A 
HETATM    7  C   UNL     1      41.862 -14.073   5.684  1.00  0.00     0.048 A 
ENDROOT
BRANCH   6   8
HETATM    8  C   UNL     1      41.182 -11.672   5.238  1.00  0.00     0.158 C 
BRANCH   8   9
HETATM    9  N   UNL     1      40.126 -11.361   6.196  1.00  0.00    -0.386 N 
HETATM   10  H   UNL     1      39.339 -12.005   6.128  1.00  0.00     0.160 HD
BRANCH   9  11
HETATM   11  C   UNL     1      40.444 -11.023   7.510  1.00  0.00     0.028 A 
HETATM   12  C   UNL     1      39.553 -11.155   8.582  1.00  0.00     0.031 A 
HETATM   13  C   UNL     1      39.940 -10.847   9.893  1.00  0.00     0.039 A 
HETATM   14  C   UNL     1      41.246 -10.432  10.153  1.00  0.00     0.134 A 
HETATM   15  C   UNL     1      42.166 -10.350   9.110  1.00  0.00     0.039 A 
HETATM   16  C   UNL     1      41.765 -10.659   7.806  1.00  0.00     0.031 A 
BRANCH  14  17
HETATM   17  N   UNL     1      41.613 -10.075  11.537  1.00  0.00    -0.041 N 
HETATM   18  H   UNL     1      41.371  -9.083  11.648  1.00  0.00     0.286 HD
HETATM   19  C   UNL     1      40.793 -10.832  12.550  1.00  0.00     0.241 C 
HETATM   20  C   UNL     1      41.125 -10.299  13.940  1.00  0.00     0.028 C 
HETATM   21  C   UNL     1      42.624 -10.358  14.228  1.00  0.00     0.003 C 
HETATM   22  C   UNL     1      43.431  -9.650  13.143  1.00  0.00     0.028 C 
HETATM   23  C   UNL     1      43.101 -10.184  11.755  1.00  0.00     0.241 C 
ENDBRANCH  14  17
ENDBRANCH   9  11
ENDBRANCH   8   9
ENDBRANCH   6   8
BRANCH   1  24
HETATM   24  O   UNL     1      42.531 -16.399   6.063  1.00  0.00    -0.349 OA
BRANCH  24  25
HETATM   25  C   UNL     1      43.407 -15.981   7.110  1.00  0.00     0.171 C 
HETATM   26  C   UNL     1      43.377 -16.985   8.247  1.00  0.00     0.034 C 
ENDBRANCH  24  25
ENDBRANCH   1  24
BRANCH   2  27
HETATM   27  O   UNL     1      41.141 -17.212   3.929  1.00  0.00    -0.338 OA
BRANCH  27  28
HETATM   28  C   UNL     1      42.047 -17.460   2.848  1.00  0.00     0.278 C 
BRANCH  28  29
HETATM   29  C   UNL     1      43.279 -18.233   3.315  1.00  0.00     0.242 C 
HETATM   30  N   UNL     1      43.161 -18.765   4.581  1.00  0.00    -0.351 N 
HETATM   31  H   UNL     1      42.225 -18.731   4.978  1.00  0.00     0.163 HD
HETATM   32  O   UNL     1      44.292 -18.302   2.624  1.00  0.00    -0.271 OA
BRANCH  30  33
HETATM   33  C   UNL     1      44.184 -19.570   5.263  1.00  0.00     0.022 C 
HETATM   34  C   UNL     1      45.342 -18.688   5.759  1.00  0.00     0.037 C 
HETATM   35  C   UNL     1      43.529 -20.236   6.486  1.00  0.00     0.037 C 
HETATM   36  C   UNL     1      44.720 -20.670   4.334  1.00  0.00     0.037 C 
ENDBRANCH  30  33
ENDBRANCH  28  29
ENDBRANCH  27  28
ENDBRANCH   2  27
TORSDOF 10
ENDMDL
MODEL 4
REMARK VINA RESULT:      -7.7      1.844      2.328
REMARK  10 active torsions:
REMARK  status: ('A' for Active; 'I' for Inactive)
REMARK    1  A    between atoms: C_2  and  O_3 
REMARK    2  A    between atoms: O_3  and  C_4 
REMARK    3  A    between atoms: C_5  and  O_6 
REMARK    4  A    between atoms: O_6  and  C_7 
REMARK    5  A    between atoms: C_7  and  C_8 
REMARK       I    between atoms: C_8  and  N_9 
REMARK    6  A    between atoms: N_9  and  C_10 
REMARK    7  A    between atoms: C_18  and  C_19 
REMARK    8  A    between atoms: C_19  and  N_20 
REMARK    9  A    between atoms: N_20  and  C_21 
REMARK   10  A    between atoms: C_24  and  N_25 
ROOT
HETATM    1  C   UNL     1      40.517 -14.421   4.996  1.00  0.00     0.103 A 
HETATM    2  C   UNL     1      40.540 -13.021   5.118  1.00  0.00     0.120 A 
HETATM    3  C   UNL     1      40.451 -12.212   3.981  1.00  0.00     0.047 A 
HETATM    4 BR   UNL     1      40.580 -10.322   4.080  1.00  0.00    -0.048 Br
HETATM    5  C   UNL     1      40.266 -12.791   2.725  1.00  0.00     0.031 A 
HETATM    6  C   UNL     1      40.193 -14.186   2.589  1.00  0.00    -0.036 A 
HETATM    7  C   UNL     1      40.322 -14.992   3.734  1.00  0.00     0.048 A 
ENDROOT
BRANCH   6   8
HETATM    8  C   UNL     1      39.961 -14.810   1.232  1.00  0.00     0.158 C 
BRANCH   8   9
HETATM    9  N   UNL     1      41.246 -15.130   0.617  1.00  0.00    -0.386 N 
HETATM   10  H   UNL     1      41.816 -14.300   0.459  1.00  0.00     0.160 HD
BRANCH   9  11
HETATM   11  C   UNL     1      41.986 -16.224   1.059  1.00  0.00     0.028 A 
HETATM   12  C   UNL     1      43.297 -16.132   1.539  1.00  0.00     0.031 A 
HETATM   13  C   UNL     1      43.979 -17.258   2.019  1.00  0.00     0.039 A 
HETATM   14  C   UNL     1      43.338 -18.495   2.054  1.00  0.00     0.134 A 
HETATM   15  C   UNL     1      42.014 -18.601   1.636  1.00  0.00     0.039 A 
HETATM   16  C   UNL     1      41.345 -17.468   1.158  1.00  0.00     0.031 A 
BRANCH  14  17
HETATM   17  N   UNL     1      44.095 -19.672   2.526  1.00  0.00    -0.041 N 
HETATM   18  H   UNL     1      45.056 -19.547   2.183  1.00  0.00     0.286 HD
HETATM   19  C   UNL     1      44.180 -19.721   4.029  1.00  0.00     0.241 C 
HETATM   20  C   UNL     1      45.098 -20.872   4.427  1.00  0.00     0.028 C 
HETATM   21  C   UNL     1      44.647 -22.196   3.815  1.00  0.00     0.003 C 
HETATM   22  C   UNL     1      44.496 -22.091   2.300  1.00  0.00     0.028 C 
HETATM   23  C   UNL     1      43.576 -20.943   1.903  1.00  0.00     0.241 C 
ENDBRANCH  14  17
ENDBRANCH   9  11
ENDBRANCH   8   9
ENDBRANCH   6   8
BRANCH   1  24
HETATM   24  O   UNL     1      40.634 -15.131   6.160  1.00  0.00    -0.349 OA
BRANCH  24  25
HETATM   25  C   UNL     1      40.751 -16.551   6.073  1.00  0.00     0.171 C 
HETATM   26  C   UNL     1      42.203 -16.964   6.224  1.00  0.00     0.034 C 
ENDBRANCH  24  25
ENDBRANCH   1  24
BRANCH   2  27
HETATM   27  O   UNL     1      40.715 -12.467   6.364  1.00  0.00    -0.338 OA
BRANCH  27  28
HETATM   28  C   UNL     1      39.442 -12.145   6.939  1.00  0.00     0.278 C 
BRANCH  28  29
HETATM   29  C   UNL     1      39.589 -11.218   8.143  1.00  0.00     0.242 C 
HETATM   30  N   UNL     1      40.805 -11.319   8.785  1.00  0.00    -0.351 N 
HETATM   31  H   UNL     1      41.510 -11.859   8.290  1.00  0.00     0.163 HD
HETATM   32  O   UNL     1      38.664 -10.503   8.518  1.00  0.00    -0.271 OA
BRANCH  30  33
HETATM   33  C   UNL     1      41.217 -10.529   9.953  1.00  0.00     0.022 C 
HETATM   34  C   UNL     1      41.034  -9.024   9.696  1.00  0.00     0.037 C 
HETATM   35  C   UNL     1      40.321 -10.927  11.139  1.00  0.00     0.037 C 
HETATM   36  C   UNL     1      42.679 -10.825  10.322  1.00  0.00     0.037 C 
ENDBRANCH  30  33
ENDBRANCH  28  29
ENDBRANCH  27  28
ENDBRANCH   2  27
TORSDOF 10
ENDMDL
MODEL 5
REMARK VINA RESULT:      -7.4      3.629      6.978
REMARK  10 active torsions:
REMARK  status: ('A' for Active; 'I' for Inactive)
REMARK    1  A    between atoms: C_2  and  O_3 
REMARK    2  A    between atoms: O_3  and  C_4 
REMARK    3  A    between atoms: C_5  and  O_6 
REMARK    4  A    between atoms: O_6  and  C_7 
REMARK    5  A    between atoms: C_7  and  C_8 
REMARK       I    between atoms: C_8  and  N_9 
REMARK    6  A    between atoms: N_9  and  C_10 
REMARK    7  A    between atoms: C_18  and  C_19 
REMARK    8  A    between atoms: C_19  and  N_20 
REMARK    9  A    between atoms: N_20  and  C_21 
REMARK   10  A    between atoms: C_24  and  N_25 
ROOT
HETATM    1  C   UNL     1      41.824 -13.860   2.379  1.00  0.00     0.103 A 
HETATM    2  C   UNL     1      40.693 -13.036   2.504  1.00  0.00     0.120 A 
HETATM    3  C   UNL     1      40.335 -12.514   3.752  1.00  0.00     0.047 A 
HETATM    4 BR   UNL     1      38.763 -11.482   3.995  1.00  0.00    -0.048 Br
HETATM    5  C   UNL     1      41.141 -12.753   4.866  1.00  0.00     0.031 A 
HETATM    6  C   UNL     1      42.301 -13.534   4.750  1.00  0.00    -0.036 A 
HETATM    7  C   UNL     1      42.631 -14.086   3.499  1.00  0.00     0.048 A 
ENDROOT
BRANCH   6   8
HETATM    8  C   UNL     1      43.190 -13.765   5.950  1.00  0.00     0.158 C 
BRANCH   8   9
HETATM    9  N   UNL     1      42.784 -14.993   6.627  1.00  0.00    -0.386 N 
HETATM   10  H   UNL     1      41.802 -14.979   6.899  1.00  0.00     0.160 HD
BRANCH   9  11
HETATM   11  C   UNL     1      43.200 -16.233   6.147  1.00  0.00     0.028 A 
HETATM   12  C   UNL     1      42.492 -16.972   5.192  1.00  0.00     0.031 A 
HETATM   13  C   UNL     1      42.981 -18.192   4.706  1.00  0.00     0.039 A 
HETATM   14  C   UNL     1      44.211 -18.674   5.150  1.00  0.00     0.134 A 
HETATM   15  C   UNL     1      44.961 -17.928   6.056  1.00  0.00     0.039 A 
HETATM   16  C   UNL     1      44.461 -16.712   6.534  1.00  0.00     0.031 A 
BRANCH  14  17
HETATM   17  N   UNL     1      44.681 -19.982   4.651  1.00  0.00    -0.041 N 
HETATM   18  H   UNL     1      45.702 -19.903   4.566  1.00  0.00     0.286 HD
HETATM   19  C   UNL     1      44.417 -21.089   5.639  1.00  0.00     0.241 C 
HETATM   20  C   UNL     1      45.063 -22.369   5.119  1.00  0.00     0.028 C 
HETATM   21  C   UNL     1      44.591 -22.710   3.708  1.00  0.00     0.003 C 
HETATM   22  C   UNL     1      44.801 -21.541   2.749  1.00  0.00     0.028 C 
HETATM   23  C   UNL     1      44.153 -20.263   3.268  1.00  0.00     0.241 C 
ENDBRANCH  14  17
ENDBRANCH   9  11
ENDBRANCH   8   9
ENDBRANCH   6   8
BRANCH   1  24
HETATM   24  O   UNL     1      42.083 -14.344   1.124  1.00  0.00    -0.349 OA
BRANCH  24  25
HETATM   25  C   UNL     1      42.308 -15.746   0.978  1.00  0.00     0.171 C 
HETATM   26  C   UNL     1      40.993 -16.497   1.078  1.00  0.00     0.034 C 
ENDBRANCH  24  25
ENDBRANCH   1  24
BRANCH   2  27
HETATM   27  O   UNL     1      39.914 -12.805   1.395  1.00  0.00    -0.338 OA
BRANCH  27  28
HETATM   28  C   UNL     1      40.291 -11.565   0.783  1.00  0.00     0.278 C 
BRANCH  28  29
HETATM   29  C   UNL     1      40.721 -11.765  -0.669  1.00  0.00     0.242 C 
HETATM   30  N   UNL     1      40.694 -13.078  -1.087  1.00  0.00    -0.351 N 
HETATM   31  H   UNL     1      40.235 -13.724  -0.450  1.00  0.00     0.163 HD
HETATM   32  O   UNL     1      41.112 -10.825  -1.356  1.00  0.00    -0.271 OA
BRANCH  30  33
HETATM   33  C   UNL     1      41.036 -13.547  -2.436  1.00  0.00     0.022 C 
HETATM   34  C   UNL     1      40.103 -12.930  -3.490  1.00  0.00     0.037 C 
HETATM   35  C   UNL     1      42.475 -13.099  -2.747  1.00  0.00     0.037 C 
HETATM   36  C   UNL     1      40.974 -15.080  -2.512  1.00  0.00     0.037 C 
ENDBRANCH  30  33
ENDBRANCH  28  29
ENDBRANCH  27  28
ENDBRANCH   2  27
TORSDOF 10
ENDMDL
MODEL 6
REMARK VINA RESULT:      -7.3      4.060      7.082
REMARK  10 active torsions:
REMARK  status: ('A' for Active; 'I' for Inactive)
REMARK    1  A    between atoms: C_2  and  O_3 
REMARK    2  A    between atoms: O_3  and  C_4 
REMARK    3  A    between atoms: C_5  and  O_6 
REMARK    4  A    between atoms: O_6  and  C_7 
REMARK    5  A    between atoms: C_7  and  C_8 
REMARK       I    between atoms: C_8  and  N_9 
REMARK    6  A    between atoms: N_9  and  C_10 
REMARK    7  A    between atoms: C_18  and  C_19 
REMARK    8  A    between atoms: C_19  and  N_20 
REMARK    9  A    between atoms: N_20  and  C_21 
REMARK   10  A    between atoms: C_24  and  N_25 
ROOT
HETATM    1  C   UNL     1      39.931 -13.201   1.925  1.00  0.00     0.103 A 
HETATM    2  C   UNL     1      40.272 -11.838   1.973  1.00  0.00     0.120 A 
HETATM    3  C   UNL     1      40.323 -11.166   3.198  1.00  0.00     0.047 A 
HETATM    4 BR   UNL     1      40.677  -9.307   3.310  1.00  0.00    -0.048 Br
HETATM    5  C   UNL     1      40.102 -11.865   4.387  1.00  0.00     0.031 A 
HETATM    6  C   UNL     1      39.807 -13.236   4.362  1.00  0.00    -0.036 A 
HETATM    7  C   UNL     1      39.721 -13.894   3.122  1.00  0.00     0.048 A 
ENDROOT
BRANCH   6   8
HETATM    8  C   UNL     1      39.600 -13.996   5.651  1.00  0.00     0.158 C 
BRANCH   8   9
HETATM    9  N   UNL     1      40.893 -14.430   6.174  1.00  0.00    -0.386 N 
HETATM   10  H   UNL     1      40.889 -14.519   7.189  1.00  0.00     0.160 HD
BRANCH   9  11
HETATM   11  C   UNL     1      41.605 -15.444   5.538  1.00  0.00     0.028 A 
HETATM   12  C   UNL     1      42.800 -15.233   4.841  1.00  0.00     0.031 A 
HETATM   13  C   UNL     1      43.503 -16.297   4.261  1.00  0.00     0.039 A 
HETATM   14  C   UNL     1      43.031 -17.601   4.402  1.00  0.00     0.134 A 
HETATM   15  C   UNL     1      41.874 -17.842   5.140  1.00  0.00     0.039 A 
HETATM   16  C   UNL     1      41.182 -16.770   5.713  1.00  0.00     0.031 A 
BRANCH  14  17
HETATM   17  N   UNL     1      43.770 -18.697   3.745  1.00  0.00    -0.041 N 
HETATM   18  H   UNL     1      44.607 -18.268   3.332  1.00  0.00     0.286 HD
HETATM   19  C   UNL     1      44.257 -19.721   4.737  1.00  0.00     0.241 C 
HETATM   20  C   UNL     1      45.134 -20.731   4.003  1.00  0.00     0.028 C 
HETATM   21  C   UNL     1      44.405 -21.357   2.816  1.00  0.00     0.003 C 
HETATM   22  C   UNL     1      43.856 -20.292   1.870  1.00  0.00     0.028 C 
HETATM   23  C   UNL     1      42.978 -19.285   2.604  1.00  0.00     0.241 C 
ENDBRANCH  14  17
ENDBRANCH   9  11
ENDBRANCH   8   9
ENDBRANCH   6   8
BRANCH   1  24
HETATM   24  O   UNL     1      39.884 -13.769   0.680  1.00  0.00    -0.349 OA
BRANCH  24  25
HETATM   25  C   UNL     1      40.425 -15.080   0.518  1.00  0.00     0.171 C 
HETATM   26  C   UNL     1      41.939 -15.034   0.619  1.00  0.00     0.034 C 
ENDBRANCH  24  25
ENDBRANCH   1  24
BRANCH   2  27
HETATM   27  O   UNL     1      40.494 -11.169   0.793  1.00  0.00    -0.338 OA
BRANCH  27  28
HETATM   28  C   UNL     1      41.899 -11.108   0.521  1.00  0.00     0.278 C 
BRANCH  28  29
HETATM   29  C   UNL     1      42.222 -11.621  -0.880  1.00  0.00     0.242 C 
HETATM   30  N   UNL     1      41.116 -12.013  -1.604  1.00  0.00    -0.351 N 
HETATM   31  H   UNL     1      40.221 -11.757  -1.195  1.00  0.00     0.163 HD
HETATM   32  O   UNL     1      43.380 -11.722  -1.274  1.00  0.00    -0.271 OA
BRANCH  30  33
HETATM   33  C   UNL     1      41.138 -12.523  -2.981  1.00  0.00     0.022 C 
HETATM   34  C   UNL     1      42.007 -11.634  -3.886  1.00  0.00     0.037 C 
HETATM   35  C   UNL     1      41.754 -13.933  -2.958  1.00  0.00     0.037 C 
HETATM   36  C   UNL     1      39.714 -12.619  -3.549  1.00  0.00     0.037 C 
ENDBRANCH  30  33
ENDBRANCH  28  29
ENDBRANCH  27  28
ENDBRANCH   2  27
TORSDOF 10
ENDMDL
MODEL 7
REMARK VINA RESULT:      -7.2      3.305      9.627
REMARK  10 active torsions:
REMARK  status: ('A' for Active; 'I' for Inactive)
REMARK    1  A    between atoms: C_2  and  O_3 
REMARK    2  A    between atoms: O_3  and  C_4 
REMARK    3  A    between atoms: C_5  and  O_6 
REMARK    4  A    between atoms: O_6  and  C_7 
REMARK    5  A    between atoms: C_7  and  C_8 
REMARK       I    between atoms: C_8  and  N_9 
REMARK    6  A    between atoms: N_9  and  C_10 
REMARK    7  A    between atoms: C_18  and  C_19 
REMARK    8  A    between atoms: C_19  and  N_20 
REMARK    9  A    between atoms: N_20  and  C_21 
REMARK   10  A    between atoms: C_24  and  N_25 
ROOT
HETATM    1  C   UNL     1      40.248 -14.825   3.289  1.00  0.00     0.103 A 
HETATM    2  C   UNL     1      41.509 -15.208   3.776  1.00  0.00     0.120 A 
HETATM    3  C   UNL     1      42.009 -14.650   4.957  1.00  0.00     0.047 A 
HETATM    4 BR   UNL     1      43.745 -15.054   5.604  1.00  0.00    -0.048 Br
HETATM    5  C   UNL     1      41.224 -13.762   5.695  1.00  0.00     0.031 A 
HETATM    6  C   UNL     1      39.943 -13.405   5.249  1.00  0.00    -0.036 A 
HETATM    7  C   UNL     1      39.465 -13.942   4.041  1.00  0.00     0.048 A 
ENDROOT
BRANCH   6   8
HETATM    8  C   UNL     1      39.083 -12.468   6.066  1.00  0.00     0.158 C 
BRANCH   8   9
HETATM    9  N   UNL     1      39.819 -11.234   6.327  1.00  0.00    -0.386 N 
HETATM   10  H   UNL     1      39.444 -10.443   5.807  1.00  0.00     0.160 HD
BRANCH   9  11
HETATM   11  C   UNL     1      40.201 -10.903   7.625  1.00  0.00     0.028 A 
HETATM   12  C   UNL     1      39.418 -11.166   8.755  1.00  0.00     0.031 A 
HETATM   13  C   UNL     1      39.872 -10.857  10.044  1.00  0.00     0.039 A 
HETATM   14  C   UNL     1      41.140 -10.306  10.221  1.00  0.00     0.134 A 
HETATM   15  C   UNL     1      41.961 -10.089   9.116  1.00  0.00     0.039 A 
HETATM   16  C   UNL     1      41.494 -10.401   7.835  1.00  0.00     0.031 A 
BRANCH  14  17
HETATM   17  N   UNL     1      41.574  -9.952  11.587  1.00  0.00    -0.041 N 
HETATM   18  H   UNL     1      40.714  -9.801  12.129  1.00  0.00     0.286 HD
HETATM   19  C   UNL     1      42.308 -11.086  12.255  1.00  0.00     0.241 C 
HETATM   20  C   UNL     1      42.587 -10.697  13.704  1.00  0.00     0.028 C 
HETATM   21  C   UNL     1      43.334  -9.369  13.801  1.00  0.00     0.003 C 
HETATM   22  C   UNL     1      42.605  -8.259  13.049  1.00  0.00     0.028 C 
HETATM   23  C   UNL     1      42.329  -8.647  11.601  1.00  0.00     0.241 C 
ENDBRANCH  14  17
ENDBRANCH   9  11
ENDBRANCH   8   9
ENDBRANCH   6   8
BRANCH   1  24
HETATM   24  O   UNL     1      39.852 -15.406   2.114  1.00  0.00    -0.349 OA
BRANCH  24  25
HETATM   25  C   UNL     1      39.879 -14.611   0.928  1.00  0.00     0.171 C 
HETATM   26  C   UNL     1      40.891 -15.173  -0.052  1.00  0.00     0.034 C 
ENDBRANCH  24  25
ENDBRANCH   1  24
BRANCH   2  27
HETATM   27  O   UNL     1      42.265 -16.090   3.040  1.00  0.00    -0.338 OA
BRANCH  27  28
HETATM   28  C   UNL     1      41.956 -17.436   3.422  1.00  0.00     0.278 C 
BRANCH  28  29
HETATM   29  C   UNL     1      43.204 -18.192   3.871  1.00  0.00     0.242 C 
HETATM   30  N   UNL     1      43.167 -18.608   5.185  1.00  0.00    -0.351 N 
HETATM   31  H   UNL     1      42.262 -18.518   5.639  1.00  0.00     0.163 HD
HETATM   32  O   UNL     1      44.165 -18.344   3.122  1.00  0.00    -0.271 OA
BRANCH  30  33
HETATM   33  C   UNL     1      44.222 -19.372   5.864  1.00  0.00     0.022 C 
HETATM   34  C   UNL     1      45.423 -18.475   6.204  1.00  0.00     0.037 C 
HETATM   35  C   UNL     1      43.642 -19.918   7.181  1.00  0.00     0.037 C 
HETATM   36  C   UNL     1      44.677 -20.558   5.000  1.00  0.00     0.037 C 
ENDBRANCH  30  33
ENDBRANCH  28  29
ENDBRANCH  27  28
ENDBRANCH   2  27
TORSDOF 10
ENDMDL
MODEL 8
REMARK VINA RESULT:      -7.2      3.136      8.845
REMARK  10 active torsions:
REMARK  status: ('A' for Active; 'I' for Inactive)
REMARK    1  A    between atoms: C_2  and  O_3 
REMARK    2  A    between atoms: O_3  and  C_4 
REMARK    3  A    between atoms: C_5  and  O_6 
REMARK    4  A    between atoms: O_6  and  C_7 
REMARK    5  A    between atoms: C_7  and  C_8 
REMARK       I    between atoms: C_8  and  N_9 
REMARK    6  A    between atoms: N_9  and  C_10 
REMARK    7  A    between atoms: C_18  and  C_19 
REMARK    8  A    between atoms: C_19  and  N_20 
REMARK    9  A    between atoms: N_20  and  C_21 
REMARK   10  A    between atoms: C_24  and  N_25 
ROOT
HETATM    1  C   UNL     1      42.418 -13.859   4.944  1.00  0.00     0.103 A 
HETATM    2  C   UNL     1      41.692 -14.562   3.968  1.00  0.00     0.120 A 
HETATM    3  C   UNL     1      40.535 -14.007   3.413  1.00  0.00     0.047 A 
HETATM    4 BR   UNL     1      39.462 -14.955   2.169  1.00  0.00    -0.048 Br
HETATM    5  C   UNL     1      40.135 -12.719   3.776  1.00  0.00     0.031 A 
HETATM    6  C   UNL     1      40.875 -11.983   4.714  1.00  0.00    -0.036 A 
HETATM    7  C   UNL     1      42.016 -12.566   5.294  1.00  0.00     0.048 A 
ENDROOT
BRANCH   6   8
HETATM    8  C   UNL     1      40.458 -10.578   5.082  1.00  0.00     0.158 C 
BRANCH   8   9
HETATM    9  N   UNL     1      39.628 -10.614   6.282  1.00  0.00    -0.386 N 
HETATM   10  H   UNL     1      38.865 -11.285   6.204  1.00  0.00     0.160 HD
BRANCH   9  11
HETATM   11  C   UNL     1      40.214 -10.598   7.545  1.00  0.00     0.028 A 
HETATM   12  C   UNL     1      41.461 -10.021   7.814  1.00  0.00     0.031 A 
HETATM   13  C   UNL     1      41.983  -9.988   9.114  1.00  0.00     0.039 A 
HETATM   14  C   UNL     1      41.242 -10.507  10.174  1.00  0.00     0.134 A 
HETATM   15  C   UNL     1      39.974 -11.034   9.940  1.00  0.00     0.039 A 
HETATM   16  C   UNL     1      39.465 -11.062   8.637  1.00  0.00     0.031 A 
BRANCH  14  17
HETATM   17  N   UNL     1      41.836 -10.496  11.526  1.00  0.00    -0.041 N 
HETATM   18  H   UNL     1      42.270 -11.419  11.653  1.00  0.00     0.286 HD
HETATM   19  C   UNL     1      42.944  -9.482  11.646  1.00  0.00     0.241 C 
HETATM   20  C   UNL     1      43.601  -9.639  13.014  1.00  0.00     0.028 C 
HETATM   21  C   UNL     1      42.581  -9.539  14.147  1.00  0.00     0.003 C 
HETATM   22  C   UNL     1      41.432 -10.525  13.955  1.00  0.00     0.028 C 
HETATM   23  C   UNL     1      40.775 -10.366  12.589  1.00  0.00     0.241 C 
ENDBRANCH  14  17
ENDBRANCH   9  11
ENDBRANCH   8   9
ENDBRANCH   6   8
BRANCH   1  24
HETATM   24  O   UNL     1      43.524 -14.491   5.447  1.00  0.00    -0.349 OA
BRANCH  24  25
HETATM   25  C   UNL     1      43.960 -14.140   6.760  1.00  0.00     0.171 C 
HETATM   26  C   UNL     1      45.442 -13.811   6.746  1.00  0.00     0.034 C 
ENDBRANCH  24  25
ENDBRANCH   1  24
BRANCH   2  27
HETATM   27  O   UNL     1      42.105 -15.826   3.616  1.00  0.00    -0.338 OA
BRANCH  27  28
HETATM   28  C   UNL     1      41.237 -16.804   4.201  1.00  0.00     0.278 C 
BRANCH  28  29
HETATM   29  C   UNL     1      41.759 -17.279   5.556  1.00  0.00     0.242 C 
HETATM   30  N   UNL     1      43.089 -17.641   5.550  1.00  0.00    -0.351 N 
HETATM   31  H   UNL     1      43.599 -17.391   4.707  1.00  0.00     0.163 HD
HETATM   32  O   UNL     1      41.017 -17.377   6.529  1.00  0.00    -0.271 OA
BRANCH  30  33
HETATM   33  C   UNL     1      43.847 -18.111   6.717  1.00  0.00     0.022 C 
HETATM   34  C   UNL     1      45.352 -17.850   6.540  1.00  0.00     0.037 C 
HETATM   35  C   UNL     1      43.364 -17.324   7.947  1.00  0.00     0.037 C 
HETATM   36  C   UNL     1      43.597 -19.607   6.962  1.00  0.00     0.037 C 
ENDBRANCH  30  33
ENDBRANCH  28  29
ENDBRANCH  27  28
ENDBRANCH   2  27
TORSDOF 10
ENDMDL
MODEL 9
REMARK VINA RESULT:      -7.0      1.757      2.340
REMARK  10 active torsions:
REMARK  status: ('A' for Active; 'I' for Inactive)
REMARK    1  A    between atoms: C_2  and  O_3 
REMARK    2  A    between atoms: O_3  and  C_4 
REMARK    3  A    between atoms: C_5  and  O_6 
REMARK    4  A    between atoms: O_6  and  C_7 
REMARK    5  A    between atoms: C_7  and  C_8 
REMARK       I    between atoms: C_8  and  N_9 
REMARK    6  A    between atoms: N_9  and  C_10 
REMARK    7  A    between atoms: C_18  and  C_19 
REMARK    8  A    between atoms: C_19  and  N_20 
REMARK    9  A    between atoms: N_20  and  C_21 
REMARK   10  A    between atoms: C_24  and  N_25 
ROOT
HETATM    1  C   UNL     1      42.298 -11.326   7.405  1.00  0.00     0.103 A 
HETATM    2  C   UNL     1      41.678 -10.143   6.969  1.00  0.00     0.120 A 
HETATM    3  C   UNL     1      41.042 -10.097   5.724  1.00  0.00     0.047 A 
HETATM    4 BR   UNL     1      40.279  -8.500   5.043  1.00  0.00    -0.048 Br
HETATM    5  C   UNL     1      40.960 -11.249   4.940  1.00  0.00     0.031 A 
HETATM    6  C   UNL     1      41.532 -12.452   5.381  1.00  0.00    -0.036 A 
HETATM    7  C   UNL     1      42.202 -12.478   6.617  1.00  0.00     0.048 A 
ENDROOT
BRANCH   6   8
HETATM    8  C   UNL     1      41.415 -13.706   4.545  1.00  0.00     0.158 C 
BRANCH   8   9
HETATM    9  N   UNL     1      42.702 -13.999   3.923  1.00  0.00    -0.386 N 
HETATM   10  H   UNL     1      43.438 -13.369   4.241  1.00  0.00     0.160 HD
BRANCH   9  11
HETATM   11  C   UNL     1      43.133 -15.316   3.784  1.00  0.00     0.028 A 
HETATM   12  C   UNL     1      43.129 -16.249   4.828  1.00  0.00     0.031 A 
HETATM   13  C   UNL     1      43.527 -17.576   4.621  1.00  0.00     0.039 A 
HETATM   14  C   UNL     1      43.906 -17.998   3.347  1.00  0.00     0.134 A 
HETATM   15  C   UNL     1      43.864 -17.103   2.281  1.00  0.00     0.039 A 
HETATM   16  C   UNL     1      43.465 -15.780   2.502  1.00  0.00     0.031 A 
BRANCH  14  17
HETATM   17  N   UNL     1      44.360 -19.391   3.168  1.00  0.00    -0.041 N 
HETATM   18  H   UNL     1      45.311 -19.332   2.781  1.00  0.00     0.286 HD
HETATM   19  C   UNL     1      44.478 -20.118   4.483  1.00  0.00     0.241 C 
HETATM   20  C   UNL     1      45.093 -21.490   4.226  1.00  0.00     0.028 C 
HETATM   21  C   UNL     1      44.305 -22.278   3.182  1.00  0.00     0.003 C 
HETATM   22  C   UNL     1      44.137 -21.484   1.890  1.00  0.00     0.028 C 
HETATM   23  C   UNL     1      43.520 -20.114   2.146  1.00  0.00     0.241 C 
ENDBRANCH  14  17
ENDBRANCH   9  11
ENDBRANCH   8   9
ENDBRANCH   6   8
BRANCH   1  24
HETATM   24  O   UNL     1      42.915 -11.270   8.626  1.00  0.00    -0.349 OA
BRANCH  24  25
HETATM   25  C   UNL     1      44.235 -11.802   8.737  1.00  0.00     0.171 C 
HETATM   26  C   UNL     1      45.024 -11.026   9.776  1.00  0.00     0.034 C 
ENDBRANCH  24  25
ENDBRANCH   1  24
BRANCH   2  27
HETATM   27  O   UNL     1      41.761  -9.020   7.757  1.00  0.00    -0.338 OA
BRANCH  27  28
HETATM   28  C   UNL     1      40.559  -8.868   8.522  1.00  0.00     0.278 C 
BRANCH  28  29
HETATM   29  C   UNL     1      40.850  -8.341   9.925  1.00  0.00     0.242 C 
HETATM   30  N   UNL     1      41.650  -9.171  10.682  1.00  0.00    -0.351 N 
HETATM   31  H   UNL     1      42.086  -9.933  10.170  1.00  0.00     0.163 HD
HETATM   32  O   UNL     1      40.347  -7.299  10.335  1.00  0.00    -0.271 OA
BRANCH  30  33
HETATM   33  C   UNL     1      42.100  -8.898  12.053  1.00  0.00     0.022 C 
HETATM   34  C   UNL     1      42.571  -7.442  12.201  1.00  0.00     0.037 C 
HETATM   35  C   UNL     1      40.907  -9.116  13.000  1.00  0.00     0.037 C 
HETATM   36  C   UNL     1      43.228  -9.859  12.457  1.00  0.00     0.037 C 
ENDBRANCH  30  33
ENDBRANCH  28  29
ENDBRANCH  27  28
ENDBRANCH   2  27
TORSDOF 10
ENDMDL
MODEL 10
REMARK VINA RESULT:      -6.9      6.043      9.471
REMARK  10 active torsions:
REMARK  status: ('A' for Active; 'I' for Inactive)
REMARK    1  A    between atoms: C_2  and  O_3 
REMARK    2  A    between atoms: O_3  and  C_4 
REMARK    3  A    between atoms: C_5  and  O_6 
REMARK    4  A    between atoms: O_6  and  C_7 
REMARK    5  A    between atoms: C_7  and  C_8 
REMARK       I    between atoms: C_8  and  N_9 
REMARK    6  A    between atoms: N_9  and  C_10 
REMARK    7  A    between atoms: C_18  and  C_19 
REMARK    8  A    between atoms: C_19  and  N_20 
REMARK    9  A    between atoms: N_20  and  C_21 
REMARK   10  A    between atoms: C_24  and  N_25 
ROOT
HETATM    1  C   UNL     1      40.884 -12.904  -1.511  1.00  0.00     0.103 A 
HETATM    2  C   UNL     1      39.528 -13.092  -1.194  1.00  0.00     0.120 A 
HETATM    3  C   UNL     1      39.154 -13.503   0.089  1.00  0.00     0.047 A 
HETATM    4 BR   UNL     1      37.349 -13.870   0.541  1.00  0.00    -0.048 Br
HETATM    5  C   UNL     1      40.123 -13.661   1.082  1.00  0.00     0.031 A 
HETATM    6  C   UNL     1      41.477 -13.432   0.796  1.00  0.00    -0.036 A 
HETATM    7  C   UNL     1      41.847 -13.055  -0.507  1.00  0.00     0.048 A 
ENDROOT
BRANCH   6   8
HETATM    8  C   UNL     1      42.521 -13.572   1.880  1.00  0.00     0.158 C 
BRANCH   8   9
HETATM    9  N   UNL     1      42.069 -14.548   2.868  1.00  0.00    -0.386 N 
HETATM   10  H   UNL     1      41.057 -14.541   2.984  1.00  0.00     0.160 HD
BRANCH   9  11
HETATM   11  C   UNL     1      42.613 -15.830   2.889  1.00  0.00     0.028 A 
HETATM   12  C   UNL     1      43.057 -16.505   1.746  1.00  0.00     0.031 A 
HETATM   13  C   UNL     1      43.642 -17.775   1.830  1.00  0.00     0.039 A 
HETATM   14  C   UNL     1      43.821 -18.377   3.074  1.00  0.00     0.134 A 
HETATM   15  C   UNL     1      43.440 -17.701   4.231  1.00  0.00     0.039 A 
HETATM   16  C   UNL     1      42.856 -16.433   4.133  1.00  0.00     0.031 A 
BRANCH  14  17
HETATM   17  N   UNL     1      44.402 -19.733   3.128  1.00  0.00    -0.041 N 
HETATM   18  H   UNL     1      45.383 -19.634   2.837  1.00  0.00     0.286 HD
HETATM   19  C   UNL     1      44.426 -20.279   4.532  1.00  0.00     0.241 C 
HETATM   20  C   UNL     1      45.173 -21.609   4.524  1.00  0.00     0.028 C 
HETATM   21  C   UNL     1      44.576 -22.589   3.517  1.00  0.00     0.003 C 
HETATM   22  C   UNL     1      44.494 -21.979   2.121  1.00  0.00     0.028 C 
HETATM   23  C   UNL     1      43.745 -20.651   2.129  1.00  0.00     0.241 C 
ENDBRANCH  14  17
ENDBRANCH   9  11
ENDBRANCH   8   9
ENDBRANCH   6   8
BRANCH   1  24
HETATM   24  O   UNL     1      41.157 -12.523  -2.798  1.00  0.00    -0.349 OA
BRANCH  24  25
HETATM   25  C   UNL     1      42.224 -11.599  -3.014  1.00  0.00     0.171 C 
HETATM   26  C   UNL     1      42.323 -11.255  -4.489  1.00  0.00     0.034 C 
ENDBRANCH  24  25
ENDBRANCH   1  24
BRANCH   2  27
HETATM   27  O   UNL     1      38.586 -12.924  -2.182  1.00  0.00    -0.338 OA
BRANCH  27  28
HETATM   28  C   UNL     1      38.525 -14.096  -3.003  1.00  0.00     0.278 C 
BRANCH  28  29
HETATM   29  C   UNL     1      37.266 -14.111  -3.868  1.00  0.00     0.242 C 
HETATM   30  N   UNL     1      36.963 -12.893  -4.438  1.00  0.00    -0.351 N 
HETATM   31  H   UNL     1      37.692 -12.188  -4.361  1.00  0.00     0.163 HD
HETATM   32  O   UNL     1      36.573 -15.119  -3.973  1.00  0.00    -0.271 OA
BRANCH  30  33
HETATM   33  C   UNL     1      35.825 -12.632  -5.329  1.00  0.00     0.022 C 
HETATM   34  C   UNL     1      35.668 -13.754  -6.370  1.00  0.00     0.037 C 
HETATM   35  C   UNL     1      34.548 -12.590  -4.472  1.00  0.00     0.037 C 
HETATM   36  C   UNL     1      35.986 -11.278  -6.036  1.00  0.00     0.037 C 
ENDBRANCH  30  33
ENDBRANCH  28  29
ENDBRANCH  27  28
ENDBRANCH   2  27
TORSDOF 10
ENDMDL
