MODEL 1
REMARK VINA RESULT:      -6.6      0.000      0.000
REMARK  10 active torsions:
REMARK  status: ('A' for Active; 'I' for Inactive)
REMARK    1  A    between atoms: C_1  and  C_8 
REMARK    2  A    between atoms: C_1  and  S_9 
REMARK    3  A    between atoms: C_3  and  C_24 
REMARK    4  A    between atoms: C_7  and  C_8 
REMARK    5  A    between atoms: S_9  and  C_10 
REMARK    6  A    between atoms: C_10  and  S_11 
REMARK    7  A    between atoms: S_11  and  C_12 
REMARK    8  A    between atoms: C_12  and  C_13 
REMARK    9  A    between atoms: C_13  and  C_14 
REMARK   10  A    between atoms: C_18  and  C_19 
ROOT
HETATM    1  C           1      41.409 -17.157   4.258  0.00  0.00     0.092 C 
HETATM    2  C           1      42.033 -15.111   3.173  0.00  0.00     0.156 C 
HETATM    3  N           1      41.326 -16.471   3.149  0.00  0.00    -0.350 N 
HETATM    4  N           1      40.943 -18.324   4.415  0.00  0.00    -0.388 N 
HETATM    5  C           1      42.178 -16.374   5.289  0.00  0.00     0.127 C 
HETATM    6  C           1      42.165 -14.922   4.729  0.00  0.00     0.136 C 
HETATM    7  C           1      40.966 -14.206   5.265  0.00  0.00     0.079 C 
HETATM    8  N           1      40.056 -13.711   5.786  0.00  0.00    -0.196 NA
HETATM    9  C           1      43.657 -16.829   5.636  0.00  0.00     0.248 C 
HETATM   10  N           1      44.293 -15.925   6.729  0.00  0.00    -0.040 N 
HETATM   11  C           1      44.253 -14.573   6.201  0.00  0.00     0.105 C 
HETATM   12  C           1      45.348 -13.661   6.696  0.00  0.00     0.075 C 
HETATM   13  C           1      43.349 -14.146   5.291  0.00  0.00     0.036 C 
HETATM   14  H           1      40.848 -16.833   2.313  0.00  0.00     0.163 HD
HETATM   15  H           1      41.109 -18.847   5.311  0.00  0.00     0.157 HD
HETATM   16  H           1      40.416 -18.800   3.642  0.00  0.00     0.157 HD
HETATM   17  H           1      45.295 -16.209   6.830  0.00  0.00     0.284 HD
HETATM   18  H           1      43.847 -15.991   7.665  0.00  0.00     0.284 HD
ENDROOT
BRANCH   2  19
HETATM   19  S           1      40.924 -13.901   2.381  0.00  0.00    -0.125 SA
BRANCH  19  20
HETATM   20  C           1      39.903 -14.932   1.285  0.00  0.00     0.077 C 
BRANCH  20  21
HETATM   21  C           1      38.421 -14.694   1.618  0.00  0.00     0.010 C 
BRANCH  21  22
HETATM   22  C           1      37.676 -14.044   0.440  0.00  0.00    -0.004 C 
HETATM   23  C           1      38.622 -13.711  -0.721  0.00  0.00     0.005 C 
ENDBRANCH  21  22
ENDBRANCH  20  21
ENDBRANCH  19  20
ENDBRANCH   2  19
BRANCH   2  24
HETATM   24  S           1      43.698 -15.303   2.449  0.00  0.00    -0.125 SA
BRANCH  24  25
HETATM   25  C           1      43.388 -16.625   1.237  0.00  0.00     0.077 C 
BRANCH  25  26
HETATM   26  C           1      44.083 -17.908   1.720  0.00  0.00     0.010 C 
BRANCH  26  27
HETATM   27  C           1      43.132 -19.116   1.686  0.00  0.00    -0.004 C 
HETATM   28  C           1      43.893 -20.447   1.749  0.00  0.00     0.005 C 
ENDBRANCH  26  27
ENDBRANCH  25  26
ENDBRANCH  24  25
ENDBRANCH   2  24
BRANCH   5  29
HETATM   29  C           1      41.665 -16.372   6.679  0.00  0.00     0.105 C 
HETATM   30  N           1      40.728 -16.770   7.233  0.00  0.00    -0.151 N 
ENDBRANCH   5  29
BRANCH   9  31
HETATM   31  C           1      43.754 -18.302   6.008  0.00  0.00    -0.026 A 
HETATM   32  C           1      44.205 -19.189   5.099  0.00  0.00     0.009 A 
HETATM   33  C           1      44.300 -20.497   5.382  0.00  0.00     0.001 A 
HETATM   34  C           1      43.948 -20.946   6.596  0.00  0.00     0.000 A 
HETATM   35  C           1      43.511 -20.077   7.518  0.00  0.00     0.001 A 
HETATM   36  C           1      43.419 -18.770   7.225  0.00  0.00     0.009 A 
ENDBRANCH   9  31
TORSDOF 10
ENDMDL
MODEL 2
REMARK VINA RESULT:      -6.3      1.925      3.302
REMARK  10 active torsions:
REMARK  status: ('A' for Active; 'I' for Inactive)
REMARK    1  A    between atoms: C_1  and  C_8 
REMARK    2  A    between atoms: C_1  and  S_9 
REMARK    3  A    between atoms: C_3  and  C_24 
REMARK    4  A    between atoms: C_7  and  C_8 
REMARK    5  A    between atoms: S_9  and  C_10 
REMARK    6  A    between atoms: C_10  and  S_11 
REMARK    7  A    between atoms: S_11  and  C_12 
REMARK    8  A    between atoms: C_12  and  C_13 
REMARK    9  A    between atoms: C_13  and  C_14 
REMARK   10  A    between atoms: C_18  and  C_19 
ROOT
HETATM    1  C           1      40.680 -15.899   2.945  0.00  0.00     0.092 C 
HETATM    2  C           1      40.945 -13.524   3.141  0.00  0.00     0.156 C 
HETATM    3  N           1      40.352 -14.746   2.429  0.00  0.00    -0.350 N 
HETATM    4  N           1      40.341 -17.021   2.465  0.00  0.00    -0.388 N 
HETATM    5  C           1      41.556 -15.691   4.152  0.00  0.00     0.127 C 
HETATM    6  C           1      41.332 -14.193   4.510  0.00  0.00     0.136 C 
HETATM    7  C           1      40.195 -14.090   5.476  0.00  0.00     0.079 C 
HETATM    8  N           1      39.355 -14.113   6.274  0.00  0.00    -0.196 NA
HETATM    9  C           1      43.104 -16.014   4.029  0.00  0.00     0.248 C 
HETATM   10  N           1      43.850 -15.762   5.369  0.00  0.00    -0.040 N 
HETATM   11  C           1      43.614 -14.367   5.700  0.00  0.00     0.105 C 
HETATM   12  C           1      44.704 -13.708   6.507  0.00  0.00     0.075 C 
HETATM   13  C           1      42.534 -13.668   5.286  0.00  0.00     0.036 C 
HETATM   14  H           1      39.763 -14.667   1.588  0.00  0.00     0.163 HD
HETATM   15  H           1      40.702 -17.913   2.889  0.00  0.00     0.157 HD
HETATM   16  H           1      39.726 -17.079   1.617  0.00  0.00     0.157 HD
HETATM   17  H           1      44.873 -15.887   5.190  0.00  0.00     0.284 HD
HETATM   18  H           1      43.582 -16.397   6.146  0.00  0.00     0.284 HD
ENDROOT
BRANCH   2  19
HETATM   19  S           1      39.623 -12.277   3.284  0.00  0.00    -0.125 SA
BRANCH  19  20
HETATM   20  C           1      38.489 -12.721   1.935  0.00  0.00     0.077 C 
BRANCH  20  21
HETATM   21  C           1      38.563 -11.637   0.847  0.00  0.00     0.010 C 
BRANCH  21  22
HETATM   22  C           1      38.375 -12.233  -0.559  0.00  0.00    -0.004 C 
HETATM   23  C           1      38.418 -13.767  -0.538  0.00  0.00     0.005 C 
ENDBRANCH  21  22
ENDBRANCH  20  21
ENDBRANCH  19  20
ENDBRANCH   2  19
BRANCH   2  24
HETATM   24  S           1      42.466 -13.018   2.268  0.00  0.00    -0.125 SA
BRANCH  24  25
HETATM   25  C           1      41.929 -13.175   0.536  0.00  0.00     0.077 C 
BRANCH  25  26
HETATM   26  C           1      42.147 -11.827  -0.171  0.00  0.00     0.010 C 
BRANCH  26  27
HETATM   27  C           1      42.681 -12.017  -1.601  0.00  0.00    -0.004 C 
HETATM   28  C           1      42.065 -13.247  -2.282  0.00  0.00     0.005 C 
ENDBRANCH  26  27
ENDBRANCH  25  26
ENDBRANCH  24  25
ENDBRANCH   2  24
BRANCH   5  29
HETATM   29  C           1      41.296 -16.528   5.346  0.00  0.00     0.105 C 
HETATM   30  N           1      40.594 -17.407   5.624  0.00  0.00    -0.151 N 
ENDBRANCH   5  29
BRANCH   9  31
HETATM   31  C           1      43.379 -17.414   3.497  0.00  0.00    -0.026 A 
HETATM   32  C           1      43.426 -17.621   2.166  0.00  0.00     0.009 A 
HETATM   33  C           1      43.657 -18.839   1.654  0.00  0.00     0.001 A 
HETATM   34  C           1      43.856 -19.883   2.472  0.00  0.00     0.000 A 
HETATM   35  C           1      43.828 -19.694   3.798  0.00  0.00     0.001 A 
HETATM   36  C           1      43.594 -18.471   4.302  0.00  0.00     0.009 A 
ENDBRANCH   9  31
TORSDOF 10
ENDMDL
MODEL 3
REMARK VINA RESULT:      -6.3      2.129      3.817
REMARK  10 active torsions:
REMARK  status: ('A' for Active; 'I' for Inactive)
REMARK    1  A    between atoms: C_1  and  C_8 
REMARK    2  A    between atoms: C_1  and  S_9 
REMARK    3  A    between atoms: C_3  and  C_24 
REMARK    4  A    between atoms: C_7  and  C_8 
REMARK    5  A    between atoms: S_9  and  C_10 
REMARK    6  A    between atoms: C_10  and  S_11 
REMARK    7  A    between atoms: S_11  and  C_12 
REMARK    8  A    between atoms: C_12  and  C_13 
REMARK    9  A    between atoms: C_13  and  C_14 
REMARK   10  A    between atoms: C_18  and  C_19 
ROOT
HETATM    1  C           1      40.627 -15.854   3.153  0.00  0.00     0.092 C 
HETATM    2  C           1      40.889 -13.476   3.326  0.00  0.00     0.156 C 
HETATM    3  N           1      40.259 -14.704   2.657  0.00  0.00    -0.350 N 
HETATM    4  N           1      40.265 -16.979   2.700  0.00  0.00    -0.388 N 
HETATM    5  C           1      41.578 -15.637   4.301  0.00  0.00     0.127 C 
HETATM    6  C           1      41.368 -14.139   4.669  0.00  0.00     0.136 C 
HETATM    7  C           1      40.295 -14.040   5.706  0.00  0.00     0.079 C 
HETATM    8  N           1      39.509 -14.066   6.557  0.00  0.00    -0.196 NA
HETATM    9  C           1      43.117 -15.951   4.079  0.00  0.00     0.248 C 
HETATM   10  N           1      43.947 -15.690   5.367  0.00  0.00    -0.040 N 
HETATM   11  C           1      43.723 -14.297   5.709  0.00  0.00     0.105 C 
HETATM   12  C           1      44.860 -13.628   6.442  0.00  0.00     0.075 C 
HETATM   13  C           1      42.614 -13.604   5.364  0.00  0.00     0.036 C 
HETATM   14  H           1      39.617 -14.631   1.856  0.00  0.00     0.163 HD
HETATM   15  H           1      40.658 -17.867   3.102  0.00  0.00     0.157 HD
HETATM   16  H           1      39.596 -17.043   1.893  0.00  0.00     0.157 HD
HETATM   17  H           1      44.956 -15.810   5.122  0.00  0.00     0.284 HD
HETATM   18  H           1      43.733 -16.325   6.162  0.00  0.00     0.284 HD
ENDROOT
BRANCH   2  19
HETATM   19  S           1      39.572 -12.237   3.551  0.00  0.00    -0.125 SA
BRANCH  19  20
HETATM   20  C           1      40.488 -10.742   4.032  0.00  0.00     0.077 C 
BRANCH  20  21
HETATM   21  C           1      40.135 -10.389   5.486  0.00  0.00     0.010 C 
BRANCH  21  22
HETATM   22  C           1      41.361  -9.866   6.253  0.00  0.00    -0.004 C 
HETATM   23  C           1      41.682 -10.735   7.477  0.00  0.00     0.005 C 
ENDBRANCH  21  22
ENDBRANCH  20  21
ENDBRANCH  19  20
ENDBRANCH   2  19
BRANCH   2  24
HETATM   24  S           1      42.347 -12.964   2.355  0.00  0.00    -0.125 SA
BRANCH  24  25
HETATM   25  C           1      41.555 -12.465   0.794  0.00  0.00     0.077 C 
BRANCH  25  26
HETATM   26  C           1      42.052 -13.391  -0.328  0.00  0.00     0.010 C 
BRANCH  26  27
HETATM   27  C           1      40.951 -14.361  -0.791  0.00  0.00    -0.004 C 
HETATM   28  C           1      41.357 -15.827  -0.586  0.00  0.00     0.005 C 
ENDBRANCH  26  27
ENDBRANCH  25  26
ENDBRANCH  24  25
ENDBRANCH   2  24
BRANCH   5  29
HETATM   29  C           1      41.401 -16.472   5.512  0.00  0.00     0.105 C 
HETATM   30  N           1      40.665 -17.291   5.871  0.00  0.00    -0.151 N 
ENDBRANCH   5  29
BRANCH   9  31
HETATM   31  C           1      43.365 -17.351   3.533  0.00  0.00    -0.026 A 
HETATM   32  C           1      43.363 -17.555   2.201  0.00  0.00     0.009 A 
HETATM   33  C           1      43.570 -18.772   1.678  0.00  0.00     0.001 A 
HETATM   34  C           1      43.793 -19.819   2.486  0.00  0.00     0.000 A 
HETATM   35  C           1      43.813 -19.634   3.813  0.00  0.00     0.001 A 
HETATM   36  C           1      43.603 -18.411   4.327  0.00  0.00     0.009 A 
ENDBRANCH   9  31
TORSDOF 10
ENDMDL
MODEL 4
REMARK VINA RESULT:      -6.3      3.251      5.639
REMARK  10 active torsions:
REMARK  status: ('A' for Active; 'I' for Inactive)
REMARK    1  A    between atoms: C_1  and  C_8 
REMARK    2  A    between atoms: C_1  and  S_9 
REMARK    3  A    between atoms: C_3  and  C_24 
REMARK    4  A    between atoms: C_7  and  C_8 
REMARK    5  A    between atoms: S_9  and  C_10 
REMARK    6  A    between atoms: C_10  and  S_11 
REMARK    7  A    between atoms: S_11  and  C_12 
REMARK    8  A    between atoms: C_12  and  C_13 
REMARK    9  A    between atoms: C_13  and  C_14 
REMARK   10  A    between atoms: C_18  and  C_19 
ROOT
HETATM    1  C           1      40.909 -15.335  -0.195  0.00  0.00     0.092 C 
HETATM    2  C           1      40.694 -12.981  -0.601  0.00  0.00     0.156 C 
HETATM    3  N           1      40.872 -14.414  -1.119  0.00  0.00    -0.350 N 
HETATM    4  N           1      41.108 -16.566  -0.418  0.00  0.00    -0.388 N 
HETATM    5  C           1      40.732 -14.708   1.163  0.00  0.00     0.127 C 
HETATM    6  C           1      40.152 -13.300   0.841  0.00  0.00     0.136 C 
HETATM    7  C           1      38.659 -13.382   0.825  0.00  0.00     0.079 C 
HETATM    8  N           1      37.511 -13.524   0.906  0.00  0.00    -0.196 NA
HETATM    9  C           1      41.997 -14.591   2.113  0.00  0.00     0.248 C 
HETATM   10  N           1      41.631 -13.940   3.476  0.00  0.00    -0.040 N 
HETATM   11  C           1      41.071 -12.638   3.158  0.00  0.00     0.105 C 
HETATM   12  C           1      41.266 -11.582   4.217  0.00  0.00     0.075 C 
HETATM   13  C           1      40.465 -12.344   1.986  0.00  0.00     0.036 C 
HETATM   14  H           1      40.984 -14.632  -2.119  0.00  0.00     0.163 HD
HETATM   15  H           1      41.200 -17.244   0.380  0.00  0.00     0.157 HD
HETATM   16  H           1      41.222 -16.922  -1.398  0.00  0.00     0.157 HD
HETATM   17  H           1      42.521 -13.794   4.006  0.00  0.00     0.284 HD
HETATM   18  H           1      40.993 -14.501   4.073  0.00  0.00     0.284 HD
ENDROOT
BRANCH   2  19
HETATM   19  S           1      39.474 -12.156  -1.674  0.00  0.00    -0.125 SA
BRANCH  19  20
HETATM   20  C           1      39.246 -13.345  -3.030  0.00  0.00     0.077 C 
BRANCH  20  21
HETATM   21  C           1      37.818 -13.911  -2.960  0.00  0.00     0.010 C 
BRANCH  21  22
HETATM   22  C           1      37.718 -15.280  -3.654  0.00  0.00    -0.004 C 
HETATM   23  C           1      39.099 -15.830  -4.033  0.00  0.00     0.005 C 
ENDBRANCH  21  22
ENDBRANCH  20  21
ENDBRANCH  19  20
ENDBRANCH   2  19
BRANCH   2  24
HETATM   24  S           1      42.338 -12.200  -0.465  0.00  0.00    -0.125 SA
BRANCH  24  25
HETATM   25  C           1      42.704 -11.878  -2.219  0.00  0.00     0.077 C 
BRANCH  25  26
HETATM   26  C           1      42.943 -10.370  -2.403  0.00  0.00     0.010 C 
BRANCH  26  27
HETATM   27  C           1      42.439  -9.880  -3.772  0.00  0.00    -0.004 C 
HETATM   28  C           1      42.353 -11.023  -4.792  0.00  0.00     0.005 C 
ENDBRANCH  26  27
ENDBRANCH  25  26
ENDBRANCH  24  25
ENDBRANCH   2  24
BRANCH   5  29
HETATM   29  C           1      39.847 -15.397   2.131  0.00  0.00     0.105 C 
HETATM   30  N           1      39.315 -16.423   2.206  0.00  0.00    -0.151 N 
ENDBRANCH   5  29
BRANCH   9  31
HETATM   31  C           1      42.718 -15.918   2.309  0.00  0.00    -0.026 A 
HETATM   32  C           1      42.525 -16.618   3.444  0.00  0.00     0.009 A 
HETATM   33  C           1      43.146 -17.787   3.661  0.00  0.00     0.001 A 
HETATM   34  C           1      43.974 -18.288   2.733  0.00  0.00     0.000 A 
HETATM   35  C           1      44.167 -17.613   1.591  0.00  0.00     0.001 A 
HETATM   36  C           1      43.542 -16.443   1.383  0.00  0.00     0.009 A 
ENDBRANCH   9  31
TORSDOF 10
ENDMDL
MODEL 5
REMARK VINA RESULT:      -6.2      3.189      8.052
REMARK  10 active torsions:
REMARK  status: ('A' for Active; 'I' for Inactive)
REMARK    1  A    between atoms: C_1  and  C_8 
REMARK    2  A    between atoms: C_1  and  S_9 
REMARK    3  A    between atoms: C_3  and  C_24 
REMARK    4  A    between atoms: C_7  and  C_8 
REMARK    5  A    between atoms: S_9  and  C_10 
REMARK    6  A    between atoms: C_10  and  S_11 
REMARK    7  A    between atoms: S_11  and  C_12 
REMARK    8  A    between atoms: C_12  and  C_13 
REMARK    9  A    between atoms: C_13  and  C_14 
REMARK   10  A    between atoms: C_18  and  C_19 
ROOT
HETATM    1  C           1      38.843 -14.531   0.696  0.00  0.00     0.092 C 
HETATM    2  C           1      41.131 -15.192   0.981  0.00  0.00     0.156 C 
HETATM    3  N           1      39.644 -15.355   1.317  0.00  0.00    -0.350 N 
HETATM    4  N           1      37.593 -14.470   0.884  0.00  0.00    -0.388 N 
HETATM    5  C           1      39.636 -13.644  -0.228  0.00  0.00     0.127 C 
HETATM    6  C           1      40.999 -14.382  -0.361  0.00  0.00     0.136 C 
HETATM    7  C           1      40.932 -15.319  -1.525  0.00  0.00     0.079 C 
HETATM    8  N           1      40.814 -15.960  -2.484  0.00  0.00    -0.196 NA
HETATM    9  C           1      39.855 -12.128   0.183  0.00  0.00     0.248 C 
HETATM   10  N           1      40.675 -11.357  -0.889  0.00  0.00    -0.040 N 
HETATM   11  C           1      41.934 -12.070  -1.018  0.00  0.00     0.105 C 
HETATM   12  C           1      43.110 -11.221  -1.430  0.00  0.00     0.075 C 
HETATM   13  C           1      42.086 -13.385  -0.742  0.00  0.00     0.036 C 
HETATM   14  H           1      39.302 -16.041   2.004  0.00  0.00     0.163 HD
HETATM   15  H           1      37.018 -13.732   0.404  0.00  0.00     0.157 HD
HETATM   16  H           1      37.116 -15.128   1.548  0.00  0.00     0.157 HD
HETATM   17  H           1      40.875 -10.403  -0.508  0.00  0.00     0.284 HD
HETATM   18  H           1      40.199 -11.241  -1.805  0.00  0.00     0.284 HD
ENDROOT
BRANCH   2  19
HETATM   19  S           1      41.830 -16.861   0.762  0.00  0.00    -0.125 SA
BRANCH  19  20
HETATM   20  C           1      43.539 -16.675   1.356  0.00  0.00     0.077 C 
BRANCH  20  21
HETATM   21  C           1      44.018 -18.022   1.920  0.00  0.00     0.010 C 
BRANCH  21  22
HETATM   22  C           1      42.929 -19.102   1.805  0.00  0.00    -0.004 C 
HETATM   23  C           1      43.512 -20.516   1.932  0.00  0.00     0.005 C 
ENDBRANCH  21  22
ENDBRANCH  20  21
ENDBRANCH  19  20
ENDBRANCH   2  19
BRANCH   2  24
HETATM   24  S           1      41.906 -14.132   2.248  0.00  0.00    -0.125 SA
BRANCH  24  25
HETATM   25  C           1      41.025 -14.691   3.740  0.00  0.00     0.077 C 
BRANCH  25  26
HETATM   26  C           1      41.917 -15.691   4.493  0.00  0.00     0.010 C 
BRANCH  26  27
HETATM   27  C           1      41.290 -17.095   4.528  0.00  0.00    -0.004 C 
HETATM   28  C           1      42.187 -18.104   5.260  0.00  0.00     0.005 C 
ENDBRANCH  26  27
ENDBRANCH  25  26
ENDBRANCH  24  25
ENDBRANCH   2  24
BRANCH   5  29
HETATM   29  C           1      39.082 -13.382  -1.577  0.00  0.00     0.105 C 
HETATM   30  N           1      38.186 -13.756  -2.208  0.00  0.00    -0.151 N 
ENDBRANCH   5  29
BRANCH   9  31
HETATM   31  C           1      38.555 -11.407   0.512  0.00  0.00    -0.026 A 
HETATM   32  C           1      38.229 -11.179   1.800  0.00  0.00     0.009 A 
HETATM   33  C           1      37.091 -10.554   2.135  0.00  0.00     0.001 A 
HETATM   34  C           1      36.251 -10.134   1.178  0.00  0.00     0.000 A 
HETATM   35  C           1      36.565 -10.338  -0.109  0.00  0.00     0.001 A 
HETATM   36  C           1      37.707 -10.966  -0.435  0.00  0.00     0.009 A 
ENDBRANCH   9  31
TORSDOF 10
ENDMDL
MODEL 6
REMARK VINA RESULT:      -6.2      2.748      6.576
REMARK  10 active torsions:
REMARK  status: ('A' for Active; 'I' for Inactive)
REMARK    1  A    between atoms: C_1  and  C_8 
REMARK    2  A    between atoms: C_1  and  S_9 
REMARK    3  A    between atoms: C_3  and  C_24 
REMARK    4  A    between atoms: C_7  and  C_8 
REMARK    5  A    between atoms: S_9  and  C_10 
REMARK    6  A    between atoms: C_10  and  S_11 
REMARK    7  A    between atoms: S_11  and  C_12 
REMARK    8  A    between atoms: C_12  and  C_13 
REMARK    9  A    between atoms: C_13  and  C_14 
REMARK   10  A    between atoms: C_18  and  C_19 
ROOT
HETATM    1  C           1      40.158 -14.072   4.825  0.00  0.00     0.092 C 
HETATM    2  C           1      41.203 -15.364   3.095  0.00  0.00     0.156 C 
HETATM    3  N           1      40.610 -15.255   4.505  0.00  0.00    -0.350 N 
HETATM    4  N           1      39.687 -13.768   5.960  0.00  0.00    -0.388 N 
HETATM    5  C           1      40.329 -13.127   3.665  0.00  0.00     0.127 C 
HETATM    6  C           1      40.570 -14.075   2.455  0.00  0.00     0.136 C 
HETATM    7  C           1      39.253 -14.404   1.827  0.00  0.00     0.079 C 
HETATM    8  N           1      38.199 -14.544   1.364  0.00  0.00    -0.196 NA
HETATM    9  C           1      41.465 -12.023   3.750  0.00  0.00     0.248 C 
HETATM   10  N           1      41.488 -11.126   2.481  0.00  0.00    -0.040 N 
HETATM   11  C           1      41.691 -12.027   1.359  0.00  0.00     0.105 C 
HETATM   12  C           1      42.404 -11.423   0.175  0.00  0.00     0.075 C 
HETATM   13  C           1      41.330 -13.330   1.365  0.00  0.00     0.036 C 
HETATM   14  H           1      40.595 -16.046   5.164  0.00  0.00     0.163 HD
HETATM   15  H           1      39.408 -12.777   6.173  0.00  0.00     0.157 HD
HETATM   16  H           1      39.601 -14.490   6.717  0.00  0.00     0.157 HD
HETATM   17  H           1      42.322 -10.498   2.552  0.00  0.00     0.284 HD
HETATM   18  H           1      40.648 -10.528   2.352  0.00  0.00     0.284 HD
ENDROOT
BRANCH   2  19
HETATM   19  S           1      40.597 -16.918   2.363  0.00  0.00    -0.125 SA
BRANCH  19  20
HETATM   20  C           1      42.086 -17.622   1.594  0.00  0.00     0.077 C 
BRANCH  20  21
HETATM   21  C           1      42.745 -18.594   2.587  0.00  0.00     0.010 C 
BRANCH  21  22
HETATM   22  C           1      43.243 -19.868   1.883  0.00  0.00    -0.004 C 
HETATM   23  C           1      44.258 -20.635   2.741  0.00  0.00     0.005 C 
ENDBRANCH  21  22
ENDBRANCH  20  21
ENDBRANCH  19  20
ENDBRANCH   2  19
BRANCH   2  24
HETATM   24  S           1      43.013 -15.152   3.204  0.00  0.00    -0.125 SA
BRANCH  24  25
HETATM   25  C           1      43.292 -15.536   4.961  0.00  0.00     0.077 C 
BRANCH  25  26
HETATM   26  C           1      43.983 -14.332   5.624  0.00  0.00     0.010 C 
BRANCH  26  27
HETATM   27  C           1      44.392 -14.642   7.074  0.00  0.00    -0.004 C 
HETATM   28  C           1      44.947 -13.402   7.788  0.00  0.00     0.005 C 
ENDBRANCH  26  27
ENDBRANCH  25  26
ENDBRANCH  24  25
ENDBRANCH   2  24
BRANCH   5  29
HETATM   29  C           1      39.211 -12.204   3.355  0.00  0.00     0.105 C 
HETATM   30  N           1      38.370 -11.671   3.946  0.00  0.00    -0.151 N 
ENDBRANCH   5  29
BRANCH   9  31
HETATM   31  C           1      41.388 -11.186   5.019  0.00  0.00    -0.026 A 
HETATM   32  C           1      41.801 -11.714   6.189  0.00  0.00     0.009 A 
HETATM   33  C           1      41.744 -11.015   7.332  0.00  0.00     0.001 A 
HETATM   34  C           1      41.274  -9.759   7.326  0.00  0.00     0.000 A 
HETATM   35  C           1      40.872  -9.212   6.171  0.00  0.00     0.001 A 
HETATM   36  C           1      40.933  -9.920   5.031  0.00  0.00     0.009 A 
ENDBRANCH   9  31
TORSDOF 10
ENDMDL
MODEL 7
REMARK VINA RESULT:      -6.0      3.467      8.470
REMARK  10 active torsions:
REMARK  status: ('A' for Active; 'I' for Inactive)
REMARK    1  A    between atoms: C_1  and  C_8 
REMARK    2  A    between atoms: C_1  and  S_9 
REMARK    3  A    between atoms: C_3  and  C_24 
REMARK    4  A    between atoms: C_7  and  C_8 
REMARK    5  A    between atoms: S_9  and  C_10 
REMARK    6  A    between atoms: C_10  and  S_11 
REMARK    7  A    between atoms: S_11  and  C_12 
REMARK    8  A    between atoms: C_12  and  C_13 
REMARK    9  A    between atoms: C_13  and  C_14 
REMARK   10  A    between atoms: C_18  and  C_19 
ROOT
HETATM    1  C           1      38.552 -14.474   0.545  0.00  0.00     0.092 C 
HETATM    2  C           1      40.802 -15.147   1.031  0.00  0.00     0.156 C 
HETATM    3  N           1      39.290 -15.301   1.235  0.00  0.00    -0.350 N 
HETATM    4  N           1      37.290 -14.405   0.621  0.00  0.00    -0.388 N 
HETATM    5  C           1      39.428 -13.592  -0.306  0.00  0.00     0.127 C 
HETATM    6  C           1      40.794 -14.338  -0.318  0.00  0.00     0.136 C 
HETATM    7  C           1      40.825 -15.276  -1.483  0.00  0.00     0.079 C 
HETATM    8  N           1      40.788 -15.917  -2.448  0.00  0.00    -0.196 NA
HETATM    9  C           1      39.618 -12.077   0.121  0.00  0.00     0.248 C 
HETATM   10  N           1      40.534 -11.311  -0.875  0.00  0.00    -0.040 N 
HETATM   11  C           1      41.795 -12.031  -0.891  0.00  0.00     0.105 C 
HETATM   12  C           1      43.008 -11.189  -1.198  0.00  0.00     0.075 C 
HETATM   13  C           1      41.915 -13.347  -0.602  0.00  0.00     0.036 C 
HETATM   14  H           1      38.885 -15.984   1.889  0.00  0.00     0.163 HD
HETATM   15  H           1      36.764 -13.665   0.091  0.00  0.00     0.157 HD
HETATM   16  H           1      36.753 -15.060   1.241  0.00  0.00     0.157 HD
HETATM   17  H           1      40.705 -10.358  -0.479  0.00  0.00     0.284 HD
HETATM   18  H           1      40.141 -11.194  -1.830  0.00  0.00     0.284 HD
ENDROOT
BRANCH   2  19
HETATM   19  S           1      41.509 -16.819   0.876  0.00  0.00    -0.125 SA
BRANCH  19  20
HETATM   20  C           1      43.237 -16.588   1.391  0.00  0.00     0.077 C 
BRANCH  20  21
HETATM   21  C           1      43.937 -17.956   1.413  0.00  0.00     0.010 C 
BRANCH  21  22
HETATM   22  C           1      43.033 -19.043   2.019  0.00  0.00    -0.004 C 
HETATM   23  C           1      43.734 -20.407   2.068  0.00  0.00     0.005 C 
ENDBRANCH  21  22
ENDBRANCH  20  21
ENDBRANCH  19  20
ENDBRANCH   2  19
BRANCH   2  24
HETATM   24  S           1      41.467 -14.089   2.361  0.00  0.00    -0.125 SA
BRANCH  24  25
HETATM   25  C           1      40.981 -15.048   3.830  0.00  0.00     0.077 C 
BRANCH  25  26
HETATM   26  C           1      39.955 -14.233   4.633  0.00  0.00     0.010 C 
BRANCH  26  27
HETATM   27  C           1      39.763 -12.825   4.044  0.00  0.00    -0.004 C 
HETATM   28  C           1      39.006 -11.901   5.006  0.00  0.00     0.005 C 
ENDBRANCH  26  27
ENDBRANCH  25  26
ENDBRANCH  24  25
ENDBRANCH   2  24
BRANCH   5  29
HETATM   29  C           1      38.997 -13.329  -1.699  0.00  0.00     0.105 C 
HETATM   30  N           1      38.176 -13.721  -2.417  0.00  0.00    -0.151 N 
ENDBRANCH   5  29
BRANCH   9  31
HETATM   31  C           1      38.298 -11.348   0.333  0.00  0.00    -0.026 A 
HETATM   32  C           1      37.870 -11.101   1.587  0.00  0.00     0.009 A 
HETATM   33  C           1      36.710 -10.469   1.820  0.00  0.00     0.001 A 
HETATM   34  C           1      35.952 -10.061   0.791  0.00  0.00     0.000 A 
HETATM   35  C           1      36.368 -10.284  -0.463  0.00  0.00     0.001 A 
HETATM   36  C           1      37.531 -10.919  -0.685  0.00  0.00     0.009 A 
ENDBRANCH   9  31
TORSDOF 10
ENDMDL
MODEL 8
REMARK VINA RESULT:      -5.8      3.712      7.931
REMARK  10 active torsions:
REMARK  status: ('A' for Active; 'I' for Inactive)
REMARK    1  A    between atoms: C_1  and  C_8 
REMARK    2  A    between atoms: C_1  and  S_9 
REMARK    3  A    between atoms: C_3  and  C_24 
REMARK    4  A    between atoms: C_7  and  C_8 
REMARK    5  A    between atoms: S_9  and  C_10 
REMARK    6  A    between atoms: C_10  and  S_11 
REMARK    7  A    between atoms: S_11  and  C_12 
REMARK    8  A    between atoms: C_12  and  C_13 
REMARK    9  A    between atoms: C_13  and  C_14 
REMARK   10  A    between atoms: C_18  and  C_19 
ROOT
HETATM    1  C           1      41.128 -12.015   1.353  0.00  0.00     0.092 C 
HETATM    2  C           1      41.147 -14.375   1.779  0.00  0.00     0.156 C 
HETATM    3  N           1      41.349 -12.931   2.256  0.00  0.00    -0.350 N 
HETATM    4  N           1      41.298 -10.773   1.535  0.00  0.00    -0.388 N 
HETATM    5  C           1      40.694 -12.660   0.063  0.00  0.00     0.127 C 
HETATM    6  C           1      40.284 -14.097   0.495  0.00  0.00     0.136 C 
HETATM    7  C           1      38.829 -14.104   0.839  0.00  0.00     0.079 C 
HETATM    8  N           1      37.685 -14.032   1.014  0.00  0.00    -0.196 NA
HETATM    9  C           1      41.723 -12.707  -1.143  0.00  0.00     0.248 C 
HETATM   10  N           1      41.106 -13.388  -2.397  0.00  0.00    -0.040 N 
HETATM   11  C           1      40.709 -14.719  -1.972  0.00  0.00     0.105 C 
HETATM   12  C           1      40.728 -15.768  -3.056  0.00  0.00     0.075 C 
HETATM   13  C           1      40.393 -15.040  -0.697  0.00  0.00     0.036 C 
HETATM   14  H           1      41.666 -12.700   3.208  0.00  0.00     0.163 HD
HETATM   15  H           1      41.171 -10.096   0.741  0.00  0.00     0.157 HD
HETATM   16  H           1      41.603 -10.404   2.469  0.00  0.00     0.157 HD
HETATM   17  H           1      41.864 -13.484  -3.110  0.00  0.00     0.284 HD
HETATM   18  H           1      40.320 -12.869  -2.835  0.00  0.00     0.284 HD
ENDROOT
BRANCH   2  19
HETATM   19  S           1      40.245 -15.264   3.089  0.00  0.00    -0.125 SA
BRANCH  19  20
HETATM   20  C           1      40.480 -14.203   4.547  0.00  0.00     0.077 C 
BRANCH  20  21
HETATM   21  C           1      41.155 -15.026   5.656  0.00  0.00     0.010 C 
BRANCH  21  22
HETATM   22  C           1      42.596 -15.408   5.279  0.00  0.00    -0.004 C 
HETATM   23  C           1      43.458 -14.171   4.990  0.00  0.00     0.005 C 
ENDBRANCH  21  22
ENDBRANCH  20  21
ENDBRANCH  19  20
ENDBRANCH   2  19
BRANCH   2  24
HETATM   24  S           1      42.764 -15.058   1.280  0.00  0.00    -0.125 SA
BRANCH  24  25
HETATM   25  C           1      42.567 -16.796   1.786  0.00  0.00     0.077 C 
BRANCH  25  26
HETATM   26  C           1      43.877 -17.545   1.495  0.00  0.00     0.010 C 
BRANCH  26  27
HETATM   27  C           1      43.967 -18.859   2.289  0.00  0.00    -0.004 C 
HETATM   28  C           1      43.284 -18.747   3.659  0.00  0.00     0.005 C 
ENDBRANCH  26  27
ENDBRANCH  25  26
ENDBRANCH  24  25
ENDBRANCH   2  24
BRANCH   5  29
HETATM   29  C           1      39.578 -12.031  -0.683  0.00  0.00     0.105 C 
HETATM   30  N           1      38.858 -11.137  -0.528  0.00  0.00    -0.151 N 
ENDBRANCH   5  29
BRANCH   9  31
HETATM   31  C           1      42.303 -11.341  -1.483  0.00  0.00    -0.026 A 
HETATM   32  C           1      41.674 -10.557  -2.381  0.00  0.00     0.009 A 
HETATM   33  C           1      42.154  -9.350  -2.715  0.00  0.00     0.001 A 
HETATM   34  C           1      43.281  -8.896  -2.147  0.00  0.00     0.000 A 
HETATM   35  C           1      43.913  -9.655  -1.241  0.00  0.00     0.001 A 
HETATM   36  C           1      43.425 -10.863  -0.913  0.00  0.00     0.009 A 
ENDBRANCH   9  31
TORSDOF 10
ENDMDL
MODEL 9
REMARK VINA RESULT:      -5.8      4.242      8.266
REMARK  10 active torsions:
REMARK  status: ('A' for Active; 'I' for Inactive)
REMARK    1  A    between atoms: C_1  and  C_8 
REMARK    2  A    between atoms: C_1  and  S_9 
REMARK    3  A    between atoms: C_3  and  C_24 
REMARK    4  A    between atoms: C_7  and  C_8 
REMARK    5  A    between atoms: S_9  and  C_10 
REMARK    6  A    between atoms: C_10  and  S_11 
REMARK    7  A    between atoms: S_11  and  C_12 
REMARK    8  A    between atoms: C_12  and  C_13 
REMARK    9  A    between atoms: C_13  and  C_14 
REMARK   10  A    between atoms: C_18  and  C_19 
ROOT
HETATM    1  C           1      39.439 -13.758   0.970  0.00  0.00     0.092 C 
HETATM    2  C           1      40.044 -11.619   1.872  0.00  0.00     0.156 C 
HETATM    3  N           1      39.135 -12.855   1.862  0.00  0.00    -0.350 N 
HETATM    4  N           1      38.775 -14.816   0.766  0.00  0.00    -0.388 N 
HETATM    5  C           1      40.657 -13.325   0.196  0.00  0.00     0.127 C 
HETATM    6  C           1      41.272 -12.204   1.083  0.00  0.00     0.136 C 
HETATM    7  C           1      42.251 -12.818   2.033  0.00  0.00     0.079 C 
HETATM    8  N           1      43.040 -13.370   2.678  0.00  0.00    -0.196 NA
HETATM    9  C           1      40.467 -12.821  -1.295  0.00  0.00     0.248 C 
HETATM   10  N           1      41.824 -12.434  -1.947  0.00  0.00    -0.040 N 
HETATM   11  C           1      42.395 -11.404  -1.097  0.00  0.00     0.105 C 
HETATM   12  C           1      43.294 -10.419  -1.801  0.00  0.00     0.075 C 
HETATM   13  C           1      42.118 -11.275   0.220  0.00  0.00     0.036 C 
HETATM   14  H           1      38.326 -12.953   2.491  0.00  0.00     0.163 HD
HETATM   15  H           1      39.034 -15.465  -0.019  0.00  0.00     0.157 HD
HETATM   16  H           1      37.935 -15.044   1.352  0.00  0.00     0.157 HD
HETATM   17  H           1      41.617 -12.011  -2.881  0.00  0.00     0.284 HD
HETATM   18  H           1      42.481 -13.225  -2.094  0.00  0.00     0.284 HD
ENDROOT
BRANCH   2  19
HETATM   19  S           1      40.413 -11.223   3.612  0.00  0.00    -0.125 SA
BRANCH  19  20
HETATM   20  C           1      39.453 -12.463   4.531  0.00  0.00     0.077 C 
BRANCH  20  21
HETATM   21  C           1      40.406 -13.253   5.444  0.00  0.00     0.010 C 
BRANCH  21  22
HETATM   22  C           1      40.103 -14.760   5.407  0.00  0.00    -0.004 C 
HETATM   23  C           1      40.649 -15.422   4.135  0.00  0.00     0.005 C 
ENDBRANCH  21  22
ENDBRANCH  20  21
ENDBRANCH  19  20
ENDBRANCH   2  19
BRANCH   2  24
HETATM   24  S           1      39.259 -10.307   0.875  0.00  0.00    -0.125 SA
BRANCH  24  25
HETATM   25  C           1      37.509 -10.553   1.311  0.00  0.00     0.077 C 
BRANCH  25  26
HETATM   26  C           1      36.762 -11.074   0.073  0.00  0.00     0.010 C 
BRANCH  26  27
HETATM   27  C           1      35.281 -11.353   0.381  0.00  0.00    -0.004 C 
HETATM   28  C           1      34.346 -10.579  -0.558  0.00  0.00     0.005 C 
ENDBRANCH  26  27
ENDBRANCH  25  26
ENDBRANCH  24  25
ENDBRANCH   2  24
BRANCH   5  29
HETATM   29  C           1      41.690 -14.347  -0.094  0.00  0.00     0.105 C 
HETATM   30  N           1      41.875 -15.459   0.174  0.00  0.00    -0.151 N 
ENDBRANCH   5  29
BRANCH   9  31
HETATM   31  C           1      39.697 -13.807  -2.163  0.00  0.00    -0.026 A 
HETATM   32  C           1      38.358 -13.692  -2.271  0.00  0.00     0.009 A 
HETATM   33  C           1      37.640 -14.543  -3.018  0.00  0.00     0.001 A 
HETATM   34  C           1      38.254 -15.532  -3.684  0.00  0.00     0.000 A 
HETATM   35  C           1      39.586 -15.654  -3.600  0.00  0.00     0.001 A 
HETATM   36  C           1      40.296 -14.797  -2.849  0.00  0.00     0.009 A 
ENDBRANCH   9  31
TORSDOF 10
ENDMDL
MODEL 10
REMARK VINA RESULT:      -5.7      1.994      6.190
REMARK  10 active torsions:
REMARK  status: ('A' for Active; 'I' for Inactive)
REMARK    1  A    between atoms: C_1  and  C_8 
REMARK    2  A    between atoms: C_1  and  S_9 
REMARK    3  A    between atoms: C_3  and  C_24 
REMARK    4  A    between atoms: C_7  and  C_8 
REMARK    5  A    between atoms: S_9  and  C_10 
REMARK    6  A    between atoms: C_10  and  S_11 
REMARK    7  A    between atoms: S_11  and  C_12 
REMARK    8  A    between atoms: C_12  and  C_13 
REMARK    9  A    between atoms: C_13  and  C_14 
REMARK   10  A    between atoms: C_18  and  C_19 
ROOT
HETATM    1  C           1      43.255 -14.545   3.422  0.00  0.00     0.092 C 
HETATM    2  C           1      42.822 -16.831   2.837  0.00  0.00     0.156 C 
HETATM    3  N           1      43.382 -15.446   2.486  0.00  0.00    -0.350 N 
HETATM    4  N           1      43.600 -13.333   3.301  0.00  0.00    -0.388 N 
HETATM    5  C           1      42.598 -15.153   4.634  0.00  0.00     0.127 C 
HETATM    6  C           1      42.750 -16.684   4.401  0.00  0.00     0.136 C 
HETATM    7  C           1      44.030 -17.145   5.022  0.00  0.00     0.079 C 
HETATM    8  N           1      44.999 -17.423   5.594  0.00  0.00    -0.196 NA
HETATM    9  C           1      41.088 -14.778   4.943  0.00  0.00     0.248 C 
HETATM   10  N           1      40.578 -15.476   6.235  0.00  0.00    -0.040 N 
HETATM   11  C           1      40.747 -16.901   6.011  0.00  0.00     0.105 C 
HETATM   12  C           1      39.766 -17.784   6.742  0.00  0.00     0.075 C 
HETATM   13  C           1      41.667 -17.429   5.173  0.00  0.00     0.036 C 
HETATM   14  H           1      43.798 -15.233   1.569  0.00  0.00     0.163 HD
HETATM   15  H           1      43.402 -12.644   4.069  0.00  0.00     0.157 HD
HETATM   16  H           1      44.054 -12.989   2.420  0.00  0.00     0.157 HD
HETATM   17  H           1      39.555 -15.276   6.319  0.00  0.00     0.284 HD
HETATM   18  H           1      41.037 -15.164   7.113  0.00  0.00     0.284 HD
ENDROOT
BRANCH   2  19
HETATM   19  S           1      44.032 -18.071   2.274  0.00  0.00    -0.125 SA
BRANCH  19  20
HETATM   20  C           1      43.239 -19.649   2.707  0.00  0.00     0.077 C 
BRANCH  20  21
HETATM   21  C           1      44.247 -20.515   3.480  0.00  0.00     0.010 C 
BRANCH  21  22
HETATM   22  C           1      44.413 -21.901   2.834  0.00  0.00    -0.004 C 
HETATM   23  C           1      43.978 -21.900   1.362  0.00  0.00     0.005 C 
ENDBRANCH  21  22
ENDBRANCH  20  21
ENDBRANCH  19  20
ENDBRANCH   2  19
BRANCH   2  24
HETATM   24  S           1      41.129 -16.965   2.168  0.00  0.00    -0.125 SA
BRANCH  24  25
HETATM   25  C           1      41.308 -16.040   0.610  0.00  0.00     0.077 C 
BRANCH  25  26
HETATM   26  C           1      40.373 -14.820   0.651  0.00  0.00     0.010 C 
BRANCH  26  27
HETATM   27  C           1      39.182 -15.051   1.597  0.00  0.00    -0.004 C 
HETATM   28  C           1      37.907 -14.366   1.088  0.00  0.00     0.005 C 
ENDBRANCH  26  27
ENDBRANCH  25  26
ENDBRANCH  24  25
ENDBRANCH   2  24
BRANCH   5  29
HETATM   29  C           1      43.143 -14.799   5.965  0.00  0.00     0.105 C 
HETATM   30  N           1      44.017 -14.160   6.376  0.00  0.00    -0.151 N 
ENDBRANCH   5  29
BRANCH   9  31
HETATM   31  C           1      40.846 -13.276   4.992  0.00  0.00    -0.026 A 
HETATM   32  C           1      40.404 -12.638   3.891  0.00  0.00     0.009 A 
HETATM   33  C           1      40.185 -11.314   3.887  0.00  0.00     0.001 A 
HETATM   34  C           1      40.399 -10.597   5.000  0.00  0.00     0.000 A 
HETATM   35  C           1      40.825 -11.216   6.110  0.00  0.00     0.001 A 
HETATM   36  C           1      41.042 -12.542   6.103  0.00  0.00     0.009 A 
ENDBRANCH   9  31
TORSDOF 10
ENDMDL
