MODEL 1
REMARK VINA RESULT:      -9.1      0.000      0.000
REMARK  8 active torsions:
REMARK  status: ('A' for Active; 'I' for Inactive)
REMARK    1  A    between atoms: O_2  and  C_3 
REMARK    2  A    between atoms: C_4  and  O_5 
REMARK    3  A    between atoms: C_8  and  C_9 
REMARK    4  A    between atoms: C_13  and  C_14 
REMARK       I    between atoms: C_14  and  N_15 
REMARK    5  A    between atoms: N_15  and  C_16 
REMARK    6  A    between atoms: C_20  and  C_21 
REMARK    7  A    between atoms: C_21  and  C_22 
REMARK    8  A    between atoms: C_22  and  C_23 
ROOT
HETATM    1  C   UNL     1      44.784 -13.246   7.518  1.00  0.00     0.290 C 
HETATM    2  N   UNL     1      43.572 -13.599   6.968  1.00  0.00    -0.149 N 
HETATM    3  O   UNL     1      45.884 -13.507   7.040  1.00  0.00    -0.265 OA
HETATM    4  H   UNL     1      42.713 -13.487   7.476  1.00  0.00     0.188 HD
ENDROOT
BRANCH   1   5
HETATM    5  C   UNL     1      44.656 -12.497   8.794  1.00  0.00     0.147 A 
HETATM    6  N   UNL     1      45.613 -12.553   9.736  1.00  0.00    -0.169 NA
HETATM    7  N   UNL     1      45.209 -11.708  10.690  1.00  0.00    -0.277 N 
HETATM    8  C   UNL     1      44.001 -11.110  10.447  1.00  0.00     0.063 A 
HETATM    9  H   UNL     1      45.827 -11.562  11.480  1.00  0.00     0.189 HD
HETATM   10  C   UNL     1      43.617 -11.615   9.216  1.00  0.00     0.071 A 
BRANCH   8  11
HETATM   11  C   UNL     1      43.393 -10.110  11.329  1.00  0.00    -0.005 A 
HETATM   12  C   UNL     1      42.464  -9.173  10.846  1.00  0.00     0.053 A 
HETATM   13  C   UNL     1      41.847  -8.253  11.706  1.00  0.00     0.102 A 
HETATM   14  C   UNL     1      42.165  -8.264  13.075  1.00  0.00     0.101 A 
HETATM   15  C   UNL     1      43.113  -9.168  13.557  1.00  0.00     0.040 A 
HETATM   16  C   UNL     1      43.718 -10.085  12.691  1.00  0.00     0.017 A 
BRANCH  13  17
HETATM   17  O   UNL     1      40.920  -7.320  11.313  1.00  0.00    -0.353 OA
HETATM   18  C   UNL     1      40.348  -7.452  10.020  1.00  0.00     0.210 C 
ENDBRANCH  13  17
BRANCH  14  19
HETATM   19  O   UNL     1      41.529  -7.336  13.864  1.00  0.00    -0.353 OA
HETATM   20  C   UNL     1      40.781  -7.848  14.959  1.00  0.00     0.210 C 
ENDBRANCH  14  19
ENDBRANCH   8  11
ENDBRANCH   1   5
BRANCH   2  21
HETATM   21  C   UNL     1      43.407 -14.147   5.731  1.00  0.00     0.747 A 
HETATM   22  N   UNL     1      43.057 -13.536   4.602  1.00  0.00     0.020 NA
HETATM   23  N   UNL     1      42.993 -14.549   3.736  1.00  0.00    -0.248 N 
HETATM   24  H   UNL     1      42.732 -14.362   2.774  1.00  0.00     0.191 HD
HETATM   25  C   UNL     1      43.306 -15.735   4.338  1.00  0.00     0.140 A 
HETATM   26  N   UNL     1      43.563 -15.504   5.610  1.00  0.00    -0.046 NA
BRANCH  25  27
HETATM   27  C   UNL     1      43.289 -17.042   3.627  1.00  0.00     0.085 C 
BRANCH  27  28
HETATM   28  C   UNL     1      43.800 -18.188   4.505  1.00  0.00     0.046 C 
BRANCH  28  29
HETATM   29  C   UNL     1      43.953 -19.471   3.727  1.00  0.00    -0.058 A 
HETATM   30  C   UNL     1      43.429 -19.585   2.431  1.00  0.00     0.007 A 
HETATM   31  C   UNL     1      43.560 -20.777   1.717  1.00  0.00     0.001 A 
HETATM   32  C   UNL     1      44.214 -21.865   2.290  1.00  0.00     0.000 A 
HETATM   33  C   UNL     1      44.737 -21.763   3.578  1.00  0.00     0.001 A 
HETATM   34  C   UNL     1      44.604 -20.573   4.295  1.00  0.00     0.007 A 
ENDBRANCH  28  29
ENDBRANCH  27  28
ENDBRANCH  25  27
ENDBRANCH   2  21
TORSDOF 8
ENDMDL
MODEL 2
REMARK VINA RESULT:      -8.8      2.533     12.020
REMARK  8 active torsions:
REMARK  status: ('A' for Active; 'I' for Inactive)
REMARK    1  A    between atoms: O_2  and  C_3 
REMARK    2  A    between atoms: C_4  and  O_5 
REMARK    3  A    between atoms: C_8  and  C_9 
REMARK    4  A    between atoms: C_13  and  C_14 
REMARK       I    between atoms: C_14  and  N_15 
REMARK    5  A    between atoms: N_15  and  C_16 
REMARK    6  A    between atoms: C_20  and  C_21 
REMARK    7  A    between atoms: C_21  and  C_22 
REMARK    8  A    between atoms: C_22  and  C_23 
ROOT
HETATM    1  C   UNL     1      43.377 -13.275   6.778  1.00  0.00     0.290 C 
HETATM    2  N   UNL     1      44.375 -13.456   7.710  1.00  0.00    -0.149 N 
HETATM    3  O   UNL     1      42.668 -12.278   6.680  1.00  0.00    -0.265 OA
HETATM    4  H   UNL     1      44.820 -14.347   7.836  1.00  0.00     0.188 HD
ENDROOT
BRANCH   1   5
HETATM    5  C   UNL     1      43.209 -14.433   5.863  1.00  0.00     0.147 A 
HETATM    6  N   UNL     1      42.444 -14.348   4.762  1.00  0.00    -0.169 NA
HETATM    7  N   UNL     1      42.589 -15.527   4.148  1.00  0.00    -0.277 N 
HETATM    8  C   UNL     1      43.395 -16.418   4.808  1.00  0.00     0.063 A 
HETATM    9  H   UNL     1      42.128 -15.651   3.254  1.00  0.00     0.189 HD
HETATM   10  C   UNL     1      43.805 -15.727   5.936  1.00  0.00     0.071 A 
BRANCH   8  11
HETATM   11  C   UNL     1      43.736 -17.746   4.292  1.00  0.00    -0.005 A 
HETATM   12  C   UNL     1      44.149 -18.781   5.149  1.00  0.00     0.053 A 
HETATM   13  C   UNL     1      44.424 -20.065   4.655  1.00  0.00     0.102 A 
HETATM   14  C   UNL     1      44.290 -20.322   3.280  1.00  0.00     0.101 A 
HETATM   15  C   UNL     1      43.915 -19.289   2.418  1.00  0.00     0.040 A 
HETATM   16  C   UNL     1      43.637 -18.015   2.922  1.00  0.00     0.017 A 
BRANCH  13  17
HETATM   17  O   UNL     1      44.816 -21.130   5.428  1.00  0.00    -0.353 OA
HETATM   18  C   UNL     1      43.993 -21.494   6.527  1.00  0.00     0.210 C 
ENDBRANCH  13  17
BRANCH  14  19
HETATM   19  O   UNL     1      44.577 -21.598   2.859  1.00  0.00    -0.353 OA
HETATM   20  C   UNL     1      44.154 -21.937   1.545  1.00  0.00     0.210 C 
ENDBRANCH  14  19
ENDBRANCH   8  11
ENDBRANCH   1   5
BRANCH   2  21
HETATM   21  C   UNL     1      44.835 -12.491   8.556  1.00  0.00     0.747 A 
HETATM   22  N   UNL     1      46.019 -11.885   8.543  1.00  0.00     0.020 NA
HETATM   23  N   UNL     1      45.945 -11.091   9.614  1.00  0.00    -0.248 N 
HETATM   24  H   UNL     1      46.738 -10.505   9.851  1.00  0.00     0.191 HD
HETATM   25  C   UNL     1      44.739 -11.220  10.243  1.00  0.00     0.140 A 
HETATM   26  N   UNL     1      44.021 -12.113   9.592  1.00  0.00    -0.046 NA
BRANCH  25  27
HETATM   27  C   UNL     1      44.382 -10.480  11.483  1.00  0.00     0.085 C 
BRANCH  27  28
HETATM   28  C   UNL     1      42.867 -10.334  11.658  1.00  0.00     0.046 C 
BRANCH  28  29
HETATM   29  C   UNL     1      42.511  -9.652  12.955  1.00  0.00    -0.058 A 
HETATM   30  C   UNL     1      42.250  -8.274  12.987  1.00  0.00     0.007 A 
HETATM   31  C   UNL     1      41.932  -7.642  14.190  1.00  0.00     0.001 A 
HETATM   32  C   UNL     1      41.872  -8.380  15.371  1.00  0.00     0.000 A 
HETATM   33  C   UNL     1      42.131  -9.749  15.350  1.00  0.00     0.001 A 
HETATM   34  C   UNL     1      42.452 -10.382  14.149  1.00  0.00     0.007 A 
ENDBRANCH  28  29
ENDBRANCH  27  28
ENDBRANCH  25  27
ENDBRANCH   2  21
TORSDOF 8
ENDMDL
MODEL 3
REMARK VINA RESULT:      -8.6      3.468     11.765
REMARK  8 active torsions:
REMARK  status: ('A' for Active; 'I' for Inactive)
REMARK    1  A    between atoms: O_2  and  C_3 
REMARK    2  A    between atoms: C_4  and  O_5 
REMARK    3  A    between atoms: C_8  and  C_9 
REMARK    4  A    between atoms: C_13  and  C_14 
REMARK       I    between atoms: C_14  and  N_15 
REMARK    5  A    between atoms: N_15  and  C_16 
REMARK    6  A    between atoms: C_20  and  C_21 
REMARK    7  A    between atoms: C_21  and  C_22 
REMARK    8  A    between atoms: C_22  and  C_23 
ROOT
HETATM    1  C   UNL     1      41.051 -12.924   5.686  1.00  0.00     0.290 C 
HETATM    2  N   UNL     1      40.091 -12.696   6.647  1.00  0.00    -0.149 N 
HETATM    3  O   UNL     1      41.707 -12.056   5.118  1.00  0.00    -0.265 OA
HETATM    4  H   UNL     1      39.486 -13.430   6.967  1.00  0.00     0.188 HD
ENDROOT
BRANCH   1   5
HETATM    5  C   UNL     1      41.238 -14.362   5.369  1.00  0.00     0.147 A 
HETATM    6  N   UNL     1      40.252 -15.254   5.561  1.00  0.00    -0.169 NA
HETATM    7  N   UNL     1      40.736 -16.411   5.098  1.00  0.00    -0.277 N 
HETATM    8  C   UNL     1      42.023 -16.344   4.632  1.00  0.00     0.063 A 
HETATM    9  H   UNL     1      40.118 -17.214   5.103  1.00  0.00     0.189 HD
HETATM   10  C   UNL     1      42.374 -15.016   4.806  1.00  0.00     0.071 A 
BRANCH   8  11
HETATM   11  C   UNL     1      42.732 -17.476   4.030  1.00  0.00    -0.005 A 
HETATM   12  C   UNL     1      43.589 -18.291   4.789  1.00  0.00     0.053 A 
HETATM   13  C   UNL     1      44.225 -19.405   4.220  1.00  0.00     0.102 A 
HETATM   14  C   UNL     1      44.005 -19.710   2.865  1.00  0.00     0.101 A 
HETATM   15  C   UNL     1      43.183 -18.884   2.096  1.00  0.00     0.040 A 
HETATM   16  C   UNL     1      42.550 -17.781   2.676  1.00  0.00     0.017 A 
BRANCH  13  17
HETATM   17  O   UNL     1      45.061 -20.256   4.898  1.00  0.00    -0.353 OA
HETATM   18  C   UNL     1      44.473 -21.256   5.717  1.00  0.00     0.210 C 
ENDBRANCH  13  17
BRANCH  14  19
HETATM   19  O   UNL     1      44.659 -20.811   2.367  1.00  0.00    -0.353 OA
HETATM   20  C   UNL     1      43.842 -21.814   1.778  1.00  0.00     0.210 C 
ENDBRANCH  14  19
ENDBRANCH   8  11
ENDBRANCH   1   5
BRANCH   2  21
HETATM   21  C   UNL     1      39.840 -11.489   7.227  1.00  0.00     0.747 A 
HETATM   22  N   UNL     1      39.134 -10.473   6.737  1.00  0.00     0.020 NA
HETATM   23  N   UNL     1      39.268  -9.547   7.688  1.00  0.00    -0.248 N 
HETATM   24  H   UNL     1      38.824  -8.643   7.565  1.00  0.00     0.191 HD
HETATM   25  C   UNL     1      40.032 -10.007   8.723  1.00  0.00     0.140 A 
HETATM   26  N   UNL     1      40.415 -11.237   8.446  1.00  0.00    -0.046 NA
BRANCH  25  27
HETATM   27  C   UNL     1      40.378  -9.183   9.913  1.00  0.00     0.085 C 
BRANCH  27  28
HETATM   28  C   UNL     1      41.858  -9.299  10.291  1.00  0.00     0.046 C 
BRANCH  28  29
HETATM   29  C   UNL     1      42.045  -9.600  11.757  1.00  0.00    -0.058 A 
HETATM   30  C   UNL     1      41.119 -10.400  12.443  1.00  0.00     0.007 A 
HETATM   31  C   UNL     1      41.287 -10.667  13.803  1.00  0.00     0.001 A 
HETATM   32  C   UNL     1      42.380 -10.139  14.488  1.00  0.00     0.000 A 
HETATM   33  C   UNL     1      43.304  -9.342  13.815  1.00  0.00     0.001 A 
HETATM   34  C   UNL     1      43.136  -9.071  12.457  1.00  0.00     0.007 A 
ENDBRANCH  28  29
ENDBRANCH  27  28
ENDBRANCH  25  27
ENDBRANCH   2  21
TORSDOF 8
ENDMDL
MODEL 4
REMARK VINA RESULT:      -8.4      3.478     11.501
REMARK  8 active torsions:
REMARK  status: ('A' for Active; 'I' for Inactive)
REMARK    1  A    between atoms: O_2  and  C_3 
REMARK    2  A    between atoms: C_4  and  O_5 
REMARK    3  A    between atoms: C_8  and  C_9 
REMARK    4  A    between atoms: C_13  and  C_14 
REMARK       I    between atoms: C_14  and  N_15 
REMARK    5  A    between atoms: N_15  and  C_16 
REMARK    6  A    between atoms: C_20  and  C_21 
REMARK    7  A    between atoms: C_21  and  C_22 
REMARK    8  A    between atoms: C_22  and  C_23 
ROOT
HETATM    1  C   UNL     1      41.012 -12.937   5.920  1.00  0.00     0.290 C 
HETATM    2  N   UNL     1      39.979 -12.685   6.795  1.00  0.00    -0.149 N 
HETATM    3  O   UNL     1      41.718 -12.085   5.389  1.00  0.00    -0.265 OA
HETATM    4  H   UNL     1      39.345 -13.409   7.080  1.00  0.00     0.188 HD
ENDROOT
BRANCH   1   5
HETATM    5  C   UNL     1      41.214 -14.383   5.649  1.00  0.00     0.147 A 
HETATM    6  N   UNL     1      40.234 -15.140   5.127  1.00  0.00    -0.169 NA
HETATM    7  N   UNL     1      40.787 -16.344   4.944  1.00  0.00    -0.277 N 
HETATM    8  C   UNL     1      42.091 -16.440   5.353  1.00  0.00     0.063 A 
HETATM    9  H   UNL     1      40.219 -17.058   4.503  1.00  0.00     0.189 HD
HETATM   10  C   UNL     1      42.390 -15.172   5.824  1.00  0.00     0.071 A 
BRANCH   8  11
HETATM   11  C   UNL     1      42.908 -17.647   5.198  1.00  0.00    -0.005 A 
HETATM   12  C   UNL     1      43.249 -18.142   3.928  1.00  0.00     0.053 A 
HETATM   13  C   UNL     1      44.074 -19.268   3.786  1.00  0.00     0.102 A 
HETATM   14  C   UNL     1      44.566 -19.915   4.933  1.00  0.00     0.101 A 
HETATM   15  C   UNL     1      44.203 -19.450   6.198  1.00  0.00     0.040 A 
HETATM   16  C   UNL     1      43.384 -18.323   6.327  1.00  0.00     0.017 A 
BRANCH  13  17
HETATM   17  O   UNL     1      44.464 -19.801   2.583  1.00  0.00    -0.353 OA
HETATM   18  C   UNL     1      43.534 -20.614   1.882  1.00  0.00     0.210 C 
ENDBRANCH  13  17
BRANCH  14  19
HETATM   19  O   UNL     1      45.366 -21.012   4.726  1.00  0.00    -0.353 OA
HETATM   20  C   UNL     1      44.890 -22.245   5.250  1.00  0.00     0.210 C 
ENDBRANCH  14  19
ENDBRANCH   8  11
ENDBRANCH   1   5
BRANCH   2  21
HETATM   21  C   UNL     1      39.689 -11.465   7.329  1.00  0.00     0.747 A 
HETATM   22  N   UNL     1      39.115 -10.423   6.732  1.00  0.00     0.020 NA
HETATM   23  N   UNL     1      39.135  -9.497   7.693  1.00  0.00    -0.248 N 
HETATM   24  H   UNL     1      38.756  -8.576   7.500  1.00  0.00     0.191 HD
HETATM   25  C   UNL     1      39.702  -9.983   8.837  1.00  0.00     0.140 A 
HETATM   26  N   UNL     1      40.071 -11.229   8.624  1.00  0.00    -0.046 NA
BRANCH  25  27
HETATM   27  C   UNL     1      39.887  -9.167  10.068  1.00  0.00     0.085 C 
BRANCH  27  28
HETATM   28  C   UNL     1      41.363  -8.887  10.364  1.00  0.00     0.046 C 
BRANCH  28  29
HETATM   29  C   UNL     1      41.761  -9.353  11.742  1.00  0.00    -0.058 A 
HETATM   30  C   UNL     1      40.985 -10.301  12.425  1.00  0.00     0.007 A 
HETATM   31  C   UNL     1      41.348 -10.721  13.706  1.00  0.00     0.001 A 
HETATM   32  C   UNL     1      42.488 -10.200  14.315  1.00  0.00     0.000 A 
HETATM   33  C   UNL     1      43.265  -9.257  13.644  1.00  0.00     0.001 A 
HETATM   34  C   UNL     1      42.903  -8.833  12.366  1.00  0.00     0.007 A 
ENDBRANCH  28  29
ENDBRANCH  27  28
ENDBRANCH  25  27
ENDBRANCH   2  21
TORSDOF 8
ENDMDL
MODEL 5
REMARK VINA RESULT:      -8.3      8.846     12.870
REMARK  8 active torsions:
REMARK  status: ('A' for Active; 'I' for Inactive)
REMARK    1  A    between atoms: O_2  and  C_3 
REMARK    2  A    between atoms: C_4  and  O_5 
REMARK    3  A    between atoms: C_8  and  C_9 
REMARK    4  A    between atoms: C_13  and  C_14 
REMARK       I    between atoms: C_14  and  N_15 
REMARK    5  A    between atoms: N_15  and  C_16 
REMARK    6  A    between atoms: C_20  and  C_21 
REMARK    7  A    between atoms: C_21  and  C_22 
REMARK    8  A    between atoms: C_22  and  C_23 
ROOT
HETATM    1  C   UNL     1      40.375 -14.562  -0.321  1.00  0.00     0.290 C 
HETATM    2  N   UNL     1      39.616 -15.129   0.678  1.00  0.00    -0.149 N 
HETATM    3  O   UNL     1      41.557 -14.245  -0.222  1.00  0.00    -0.265 OA
HETATM    4  H   UNL     1      38.621 -15.229   0.587  1.00  0.00     0.188 HD
ENDROOT
BRANCH   1   5
HETATM    5  C   UNL     1      39.622 -14.344  -1.582  1.00  0.00     0.147 A 
HETATM    6  N   UNL     1      39.980 -14.955  -2.724  1.00  0.00    -0.169 NA
HETATM    7  N   UNL     1      39.048 -14.599  -3.614  1.00  0.00    -0.277 N 
HETATM    8  C   UNL     1      38.095 -13.743  -3.129  1.00  0.00     0.063 A 
HETATM    9  H   UNL     1      39.106 -15.003  -4.542  1.00  0.00     0.189 HD
HETATM   10  C   UNL     1      38.453 -13.556  -1.804  1.00  0.00     0.071 A 
BRANCH   8  11
HETATM   11  C   UNL     1      36.951 -13.267  -3.912  1.00  0.00    -0.005 A 
HETATM   12  C   UNL     1      36.432 -14.016  -4.981  1.00  0.00     0.053 A 
HETATM   13  C   UNL     1      35.305 -13.580  -5.693  1.00  0.00     0.102 A 
HETATM   14  C   UNL     1      34.684 -12.370  -5.335  1.00  0.00     0.101 A 
HETATM   15  C   UNL     1      35.216 -11.603  -4.297  1.00  0.00     0.040 A 
HETATM   16  C   UNL     1      36.336 -12.051  -3.590  1.00  0.00     0.017 A 
BRANCH  13  17
HETATM   17  O   UNL     1      34.731 -14.262  -6.737  1.00  0.00    -0.353 OA
HETATM   18  C   UNL     1      35.433 -14.305  -7.971  1.00  0.00     0.210 C 
ENDBRANCH  13  17
BRANCH  14  19
HETATM   19  O   UNL     1      33.588 -11.997  -6.073  1.00  0.00    -0.353 OA
HETATM   20  C   UNL     1      32.409 -11.692  -5.338  1.00  0.00     0.210 C 
ENDBRANCH  14  19
ENDBRANCH   8  11
ENDBRANCH   1   5
BRANCH   2  21
HETATM   21  C   UNL     1      40.103 -15.575   1.870  1.00  0.00     0.747 A 
HETATM   22  N   UNL     1      39.977 -15.012   3.070  1.00  0.00     0.020 NA
HETATM   23  N   UNL     1      40.688 -15.833   3.845  1.00  0.00    -0.248 N 
HETATM   24  H   UNL     1      40.769 -15.630   4.836  1.00  0.00     0.191 HD
HETATM   25  C   UNL     1      41.218 -16.863   3.122  1.00  0.00     0.140 A 
HETATM   26  N   UNL     1      40.866 -16.713   1.861  1.00  0.00    -0.046 NA
BRANCH  25  27
HETATM   27  C   UNL     1      42.083 -17.919   3.715  1.00  0.00     0.085 C 
BRANCH  27  28
HETATM   28  C   UNL     1      43.352 -18.161   2.893  1.00  0.00     0.046 C 
BRANCH  28  29
HETATM   29  C   UNL     1      43.776 -19.608   2.921  1.00  0.00    -0.058 A 
HETATM   30  C   UNL     1      43.476 -20.459   1.848  1.00  0.00     0.007 A 
HETATM   31  C   UNL     1      43.858 -21.802   1.881  1.00  0.00     0.001 A 
HETATM   32  C   UNL     1      44.543 -22.305   2.985  1.00  0.00     0.000 A 
HETATM   33  C   UNL     1      44.845 -21.467   4.058  1.00  0.00     0.001 A 
HETATM   34  C   UNL     1      44.461 -20.126   4.028  1.00  0.00     0.007 A 
ENDBRANCH  28  29
ENDBRANCH  27  28
ENDBRANCH  25  27
ENDBRANCH   2  21
TORSDOF 8
ENDMDL
MODEL 6
REMARK VINA RESULT:      -8.2      2.803      3.638
REMARK  8 active torsions:
REMARK  status: ('A' for Active; 'I' for Inactive)
REMARK    1  A    between atoms: O_2  and  C_3 
REMARK    2  A    between atoms: C_4  and  O_5 
REMARK    3  A    between atoms: C_8  and  C_9 
REMARK    4  A    between atoms: C_13  and  C_14 
REMARK       I    between atoms: C_14  and  N_15 
REMARK    5  A    between atoms: N_15  and  C_16 
REMARK    6  A    between atoms: C_20  and  C_21 
REMARK    7  A    between atoms: C_21  and  C_22 
REMARK    8  A    between atoms: C_22  and  C_23 
ROOT
HETATM    1  C   UNL     1      41.001 -13.333   4.604  1.00  0.00     0.290 C 
HETATM    2  N   UNL     1      40.425 -14.578   4.473  1.00  0.00    -0.149 N 
HETATM    3  O   UNL     1      41.800 -12.834   3.819  1.00  0.00    -0.265 OA
HETATM    4  H   UNL     1      39.895 -14.992   5.218  1.00  0.00     0.188 HD
ENDROOT
BRANCH   1   5
HETATM    5  C   UNL     1      40.568 -12.611   5.827  1.00  0.00     0.147 A 
HETATM    6  N   UNL     1      39.390 -12.876   6.416  1.00  0.00    -0.169 NA
HETATM    7  N   UNL     1      39.372 -12.113   7.514  1.00  0.00    -0.277 N 
HETATM    8  C   UNL     1      40.476 -11.317   7.672  1.00  0.00     0.063 A 
HETATM    9  H   UNL     1      38.578 -12.205   8.137  1.00  0.00     0.189 HD
HETATM   10  C   UNL     1      41.269 -11.620   6.578  1.00  0.00     0.071 A 
BRANCH   8  11
HETATM   11  C   UNL     1      40.692 -10.443   8.829  1.00  0.00    -0.005 A 
HETATM   12  C   UNL     1      39.629  -9.752   9.434  1.00  0.00     0.053 A 
HETATM   13  C   UNL     1      39.834  -8.958  10.573  1.00  0.00     0.102 A 
HETATM   14  C   UNL     1      41.126  -8.847  11.116  1.00  0.00     0.101 A 
HETATM   15  C   UNL     1      42.193  -9.502  10.499  1.00  0.00     0.040 A 
HETATM   16  C   UNL     1      41.976 -10.296   9.368  1.00  0.00     0.017 A 
BRANCH  13  17
HETATM   17  O   UNL     1      38.846  -8.267  11.229  1.00  0.00    -0.353 OA
HETATM   18  C   UNL     1      37.924  -9.008  12.014  1.00  0.00     0.210 C 
ENDBRANCH  13  17
BRANCH  14  19
HETATM   19  O   UNL     1      41.260  -8.053  12.229  1.00  0.00    -0.353 OA
HETATM   20  C   UNL     1      41.936  -8.632  13.338  1.00  0.00     0.210 C 
ENDBRANCH  14  19
ENDBRANCH   8  11
ENDBRANCH   1   5
BRANCH   2  21
HETATM   21  C   UNL     1      40.530 -15.372   3.371  1.00  0.00     0.747 A 
HETATM   22  N   UNL     1      39.736 -15.404   2.303  1.00  0.00     0.020 NA
HETATM   23  N   UNL     1      40.268 -16.393   1.581  1.00  0.00    -0.248 N 
HETATM   24  H   UNL     1      39.841 -16.643   0.695  1.00  0.00     0.191 HD
HETATM   25  C   UNL     1      41.358 -16.930   2.204  1.00  0.00     0.140 A 
HETATM   26  N   UNL     1      41.537 -16.302   3.349  1.00  0.00    -0.046 NA
BRANCH  25  27
HETATM   27  C   UNL     1      42.139 -18.068   1.649  1.00  0.00     0.085 C 
BRANCH  27  28
HETATM   28  C   UNL     1      43.541 -18.164   2.258  1.00  0.00     0.046 C 
BRANCH  28  29
HETATM   29  C   UNL     1      43.897 -19.580   2.636  1.00  0.00    -0.058 A 
HETATM   30  C   UNL     1      44.464 -19.862   3.887  1.00  0.00     0.007 A 
HETATM   31  C   UNL     1      44.805 -21.172   4.230  1.00  0.00     0.001 A 
HETATM   32  C   UNL     1      44.582 -22.210   3.328  1.00  0.00     0.000 A 
HETATM   33  C   UNL     1      44.021 -21.940   2.081  1.00  0.00     0.001 A 
HETATM   34  C   UNL     1      43.682 -20.631   1.735  1.00  0.00     0.007 A 
ENDBRANCH  28  29
ENDBRANCH  27  28
ENDBRANCH  25  27
ENDBRANCH   2  21
TORSDOF 8
ENDMDL
MODEL 7
REMARK VINA RESULT:      -8.1      8.963     12.655
REMARK  8 active torsions:
REMARK  status: ('A' for Active; 'I' for Inactive)
REMARK    1  A    between atoms: O_2  and  C_3 
REMARK    2  A    between atoms: C_4  and  O_5 
REMARK    3  A    between atoms: C_8  and  C_9 
REMARK    4  A    between atoms: C_13  and  C_14 
REMARK       I    between atoms: C_14  and  N_15 
REMARK    5  A    between atoms: N_15  and  C_16 
REMARK    6  A    between atoms: C_20  and  C_21 
REMARK    7  A    between atoms: C_21  and  C_22 
REMARK    8  A    between atoms: C_22  and  C_23 
ROOT
HETATM    1  C   UNL     1      40.929 -14.476  -0.777  1.00  0.00     0.290 C 
HETATM    2  N   UNL     1      40.512 -15.456   0.096  1.00  0.00    -0.149 N 
HETATM    3  O   UNL     1      41.947 -13.802  -0.656  1.00  0.00    -0.265 OA
HETATM    4  H   UNL     1      39.599 -15.869   0.024  1.00  0.00     0.188 HD
ENDROOT
BRANCH   1   5
HETATM    5  C   UNL     1      40.008 -14.280  -1.926  1.00  0.00     0.147 A 
HETATM    6  N   UNL     1      40.311 -14.739  -3.152  1.00  0.00    -0.169 NA
HETATM    7  N   UNL     1      39.239 -14.462  -3.901  1.00  0.00    -0.277 N 
HETATM    8  C   UNL     1      38.237 -13.803  -3.239  1.00  0.00     0.063 A 
HETATM    9  H   UNL     1      39.244 -14.781  -4.863  1.00  0.00     0.189 HD
HETATM   10  C   UNL     1      38.720 -13.666  -1.948  1.00  0.00     0.071 A 
BRANCH   8  11
HETATM   11  C   UNL     1      36.952 -13.449  -3.848  1.00  0.00    -0.005 A 
HETATM   12  C   UNL     1      36.401 -12.165  -3.702  1.00  0.00     0.053 A 
HETATM   13  C   UNL     1      35.196 -11.816  -4.331  1.00  0.00     0.102 A 
HETATM   14  C   UNL     1      34.526 -12.768  -5.119  1.00  0.00     0.101 A 
HETATM   15  C   UNL     1      35.049 -14.057  -5.240  1.00  0.00     0.040 A 
HETATM   16  C   UNL     1      36.254 -14.391  -4.613  1.00  0.00     0.017 A 
BRANCH  13  17
HETATM   17  O   UNL     1      34.603 -10.581  -4.250  1.00  0.00    -0.353 OA
HETATM   18  C   UNL     1      35.389  -9.442  -4.572  1.00  0.00     0.210 C 
ENDBRANCH  13  17
BRANCH  14  19
HETATM   19  O   UNL     1      33.350 -12.366  -5.705  1.00  0.00    -0.353 OA
HETATM   20  C   UNL     1      33.425 -11.997  -7.076  1.00  0.00     0.210 C 
ENDBRANCH  14  19
ENDBRANCH   8  11
ENDBRANCH   1   5
BRANCH   2  21
HETATM   21  C   UNL     1      41.249 -15.938   1.136  1.00  0.00     0.747 A 
HETATM   22  N   UNL     1      41.143 -15.633   2.427  1.00  0.00     0.020 NA
HETATM   23  N   UNL     1      42.135 -16.342   2.970  1.00  0.00    -0.248 N 
HETATM   24  H   UNL     1      42.292 -16.288   3.971  1.00  0.00     0.191 HD
HETATM   25  C   UNL     1      42.809 -17.057   2.021  1.00  0.00     0.140 A 
HETATM   26  N   UNL     1      42.268 -16.807   0.846  1.00  0.00    -0.046 NA
BRANCH  25  27
HETATM   27  C   UNL     1      43.984 -17.917   2.327  1.00  0.00     0.085 C 
BRANCH  27  28
HETATM   28  C   UNL     1      43.809 -19.347   1.808  1.00  0.00     0.046 C 
BRANCH  28  29
HETATM   29  C   UNL     1      44.173 -20.375   2.850  1.00  0.00    -0.058 A 
HETATM   30  C   UNL     1      44.441 -19.987   4.171  1.00  0.00     0.007 A 
HETATM   31  C   UNL     1      44.791 -20.938   5.131  1.00  0.00     0.001 A 
HETATM   32  C   UNL     1      44.875 -22.284   4.781  1.00  0.00     0.000 A 
HETATM   33  C   UNL     1      44.612 -22.680   3.471  1.00  0.00     0.001 A 
HETATM   34  C   UNL     1      44.266 -21.731   2.509  1.00  0.00     0.007 A 
ENDBRANCH  28  29
ENDBRANCH  27  28
ENDBRANCH  25  27
ENDBRANCH   2  21
TORSDOF 8
ENDMDL
MODEL 8
REMARK VINA RESULT:      -8.0      8.164     12.203
REMARK  8 active torsions:
REMARK  status: ('A' for Active; 'I' for Inactive)
REMARK    1  A    between atoms: O_2  and  C_3 
REMARK    2  A    between atoms: C_4  and  O_5 
REMARK    3  A    between atoms: C_8  and  C_9 
REMARK    4  A    between atoms: C_13  and  C_14 
REMARK       I    between atoms: C_14  and  N_15 
REMARK    5  A    between atoms: N_15  and  C_16 
REMARK    6  A    between atoms: C_20  and  C_21 
REMARK    7  A    between atoms: C_21  and  C_22 
REMARK    8  A    between atoms: C_22  and  C_23 
ROOT
HETATM    1  C   UNL     1      40.460 -14.593   0.176  1.00  0.00     0.290 C 
HETATM    2  N   UNL     1      40.179 -15.112  -1.068  1.00  0.00    -0.149 N 
HETATM    3  O   UNL     1      40.403 -13.405   0.480  1.00  0.00    -0.265 OA
HETATM    4  H   UNL     1      40.385 -16.068  -1.297  1.00  0.00     0.188 HD
ENDROOT
BRANCH   1   5
HETATM    5  C   UNL     1      40.863 -15.623   1.166  1.00  0.00     0.147 A 
HETATM    6  N   UNL     1      39.985 -16.121   2.054  1.00  0.00    -0.169 NA
HETATM    7  N   UNL     1      40.661 -17.066   2.716  1.00  0.00    -0.277 N 
HETATM    8  C   UNL     1      41.970 -17.202   2.336  1.00  0.00     0.063 A 
HETATM    9  H   UNL     1      40.154 -17.608   3.406  1.00  0.00     0.189 HD
HETATM   10  C   UNL     1      42.127 -16.265   1.329  1.00  0.00     0.071 A 
BRANCH   8  11
HETATM   11  C   UNL     1      42.879 -18.210   2.889  1.00  0.00    -0.005 A 
HETATM   12  C   UNL     1      43.363 -18.117   4.205  1.00  0.00     0.053 A 
HETATM   13  C   UNL     1      44.191 -19.112   4.745  1.00  0.00     0.102 A 
HETATM   14  C   UNL     1      44.548 -20.220   3.957  1.00  0.00     0.101 A 
HETATM   15  C   UNL     1      44.100 -20.301   2.637  1.00  0.00     0.040 A 
HETATM   16  C   UNL     1      43.270 -19.306   2.111  1.00  0.00     0.017 A 
BRANCH  13  17
HETATM   17  O   UNL     1      44.690 -19.101   6.024  1.00  0.00    -0.353 OA
HETATM   18  C   UNL     1      43.774 -19.255   7.098  1.00  0.00     0.210 C 
ENDBRANCH  13  17
BRANCH  14  19
HETATM   19  O   UNL     1      45.363 -21.158   4.543  1.00  0.00    -0.353 OA
HETATM   20  C   UNL     1      44.773 -22.423   4.814  1.00  0.00     0.210 C 
ENDBRANCH  14  19
ENDBRANCH   8  11
ENDBRANCH   1   5
BRANCH   2  21
HETATM   21  C   UNL     1      39.638 -14.407  -2.103  1.00  0.00     0.747 A 
HETATM   22  N   UNL     1      40.245 -13.967  -3.202  1.00  0.00     0.020 NA
HETATM   23  N   UNL     1      39.267 -13.305  -3.822  1.00  0.00    -0.248 N 
HETATM   24  H   UNL     1      39.463 -12.848  -4.707  1.00  0.00     0.191 HD
HETATM   25  C   UNL     1      38.103 -13.357  -3.109  1.00  0.00     0.140 A 
HETATM   26  N   UNL     1      38.319 -14.046  -2.007  1.00  0.00    -0.046 NA
BRANCH  25  27
HETATM   27  C   UNL     1      36.849 -12.683  -3.540  1.00  0.00     0.085 C 
BRANCH  27  28
HETATM   28  C   UNL     1      36.777 -11.230  -3.064  1.00  0.00     0.046 C 
BRANCH  28  29
HETATM   29  C   UNL     1      35.933 -11.083  -1.822  1.00  0.00    -0.058 A 
HETATM   30  C   UNL     1      36.488 -11.303  -0.553  1.00  0.00     0.007 A 
HETATM   31  C   UNL     1      35.702 -11.179   0.594  1.00  0.00     0.001 A 
HETATM   32  C   UNL     1      34.356 -10.835   0.484  1.00  0.00     0.000 A 
HETATM   33  C   UNL     1      33.794 -10.616  -0.773  1.00  0.00     0.001 A 
HETATM   34  C   UNL     1      34.577 -10.743  -1.921  1.00  0.00     0.007 A 
ENDBRANCH  28  29
ENDBRANCH  27  28
ENDBRANCH  25  27
ENDBRANCH   2  21
TORSDOF 8
ENDMDL
MODEL 9
REMARK VINA RESULT:      -8.0      2.878      4.096
REMARK  8 active torsions:
REMARK  status: ('A' for Active; 'I' for Inactive)
REMARK    1  A    between atoms: O_2  and  C_3 
REMARK    2  A    between atoms: C_4  and  O_5 
REMARK    3  A    between atoms: C_8  and  C_9 
REMARK    4  A    between atoms: C_13  and  C_14 
REMARK       I    between atoms: C_14  and  N_15 
REMARK    5  A    between atoms: N_15  and  C_16 
REMARK    6  A    between atoms: C_20  and  C_21 
REMARK    7  A    between atoms: C_21  and  C_22 
REMARK    8  A    between atoms: C_22  and  C_23 
ROOT
HETATM    1  C   UNL     1      40.806 -12.374   3.723  1.00  0.00     0.290 C 
HETATM    2  N   UNL     1      40.994 -13.711   3.994  1.00  0.00    -0.149 N 
HETATM    3  O   UNL     1      40.395 -11.916   2.661  1.00  0.00    -0.265 OA
HETATM    4  H   UNL     1      41.471 -14.016   4.824  1.00  0.00     0.188 HD
ENDROOT
BRANCH   1   5
HETATM    5  C   UNL     1      41.161 -11.486   4.859  1.00  0.00     0.147 A 
HETATM    6  N   UNL     1      41.260 -10.155   4.702  1.00  0.00    -0.169 NA
HETATM    7  N   UNL     1      41.508  -9.680   5.926  1.00  0.00    -0.277 N 
HETATM    8  C   UNL     1      41.615 -10.639   6.899  1.00  0.00     0.063 A 
HETATM    9  H   UNL     1      41.566  -8.674   6.036  1.00  0.00     0.189 HD
HETATM   10  C   UNL     1      41.399 -11.828   6.224  1.00  0.00     0.071 A 
BRANCH   8  11
HETATM   11  C   UNL     1      41.829 -10.341   8.318  1.00  0.00    -0.005 A 
HETATM   12  C   UNL     1      42.893 -10.914   9.034  1.00  0.00     0.053 A 
HETATM   13  C   UNL     1      43.124 -10.585  10.379  1.00  0.00     0.102 A 
HETATM   14  C   UNL     1      42.274  -9.669  11.023  1.00  0.00     0.101 A 
HETATM   15  C   UNL     1      41.194  -9.123  10.328  1.00  0.00     0.040 A 
HETATM   16  C   UNL     1      40.977  -9.454   8.986  1.00  0.00     0.017 A 
BRANCH  13  17
HETATM   17  O   UNL     1      44.149 -11.089  11.140  1.00  0.00    -0.353 OA
HETATM   18  C   UNL     1      45.454 -11.094  10.580  1.00  0.00     0.210 C 
ENDBRANCH  13  17
BRANCH  14  19
HETATM   19  O   UNL     1      42.551  -9.391  12.339  1.00  0.00    -0.353 OA
HETATM   20  C   UNL     1      42.577  -8.016  12.700  1.00  0.00     0.210 C 
ENDBRANCH  14  19
ENDBRANCH   8  11
ENDBRANCH   1   5
BRANCH   2  21
HETATM   21  C   UNL     1      40.598 -14.734   3.186  1.00  0.00     0.747 A 
HETATM   22  N   UNL     1      39.387 -14.963   2.685  1.00  0.00     0.020 NA
HETATM   23  N   UNL     1      39.562 -16.111   2.028  1.00  0.00    -0.248 N 
HETATM   24  H   UNL     1      38.773 -16.530   1.545  1.00  0.00     0.191 HD
HETATM   25  C   UNL     1      40.851 -16.549   2.131  1.00  0.00     0.140 A 
HETATM   26  N   UNL     1      41.526 -15.694   2.872  1.00  0.00    -0.046 NA
BRANCH  25  27
HETATM   27  C   UNL     1      41.334 -17.820   1.524  1.00  0.00     0.085 C 
BRANCH  27  28
HETATM   28  C   UNL     1      42.858 -17.852   1.378  1.00  0.00     0.046 C 
BRANCH  28  29
HETATM   29  C   UNL     1      43.487 -18.908   2.251  1.00  0.00    -0.058 A 
HETATM   30  C   UNL     1      43.912 -18.597   3.551  1.00  0.00     0.007 A 
HETATM   31  C   UNL     1      44.506 -19.573   4.354  1.00  0.00     0.001 A 
HETATM   32  C   UNL     1      44.680 -20.867   3.866  1.00  0.00     0.000 A 
HETATM   33  C   UNL     1      44.262 -21.185   2.575  1.00  0.00     0.001 A 
HETATM   34  C   UNL     1      43.672 -20.211   1.770  1.00  0.00     0.007 A 
ENDBRANCH  28  29
ENDBRANCH  27  28
ENDBRANCH  25  27
ENDBRANCH   2  21
TORSDOF 8
ENDMDL
MODEL 10
REMARK VINA RESULT:      -7.9      7.705     10.720
REMARK  8 active torsions:
REMARK  status: ('A' for Active; 'I' for Inactive)
REMARK    1  A    between atoms: O_2  and  C_3 
REMARK    2  A    between atoms: C_4  and  O_5 
REMARK    3  A    between atoms: C_8  and  C_9 
REMARK    4  A    between atoms: C_13  and  C_14 
REMARK       I    between atoms: C_14  and  N_15 
REMARK    5  A    between atoms: N_15  and  C_16 
REMARK    6  A    between atoms: C_20  and  C_21 
REMARK    7  A    between atoms: C_21  and  C_22 
REMARK    8  A    between atoms: C_22  and  C_23 
ROOT
HETATM    1  C   UNL     1      40.537 -16.149   2.192  1.00  0.00     0.290 C 
HETATM    2  N   UNL     1      41.293 -15.675   3.241  1.00  0.00    -0.149 N 
HETATM    3  O   UNL     1      40.088 -17.287   2.096  1.00  0.00    -0.265 OA
HETATM    4  H   UNL     1      41.755 -14.784   3.195  1.00  0.00     0.188 HD
ENDROOT
BRANCH   1   5
HETATM    5  C   UNL     1      40.300 -15.136   1.132  1.00  0.00     0.147 A 
HETATM    6  N   UNL     1      39.310 -14.233   1.236  1.00  0.00    -0.169 NA
HETATM    7  N   UNL     1      39.444 -13.446   0.164  1.00  0.00    -0.277 N 
HETATM    8  C   UNL     1      40.464 -13.802  -0.679  1.00  0.00     0.063 A 
HETATM    9  H   UNL     1      38.816 -12.655   0.081  1.00  0.00     0.189 HD
HETATM   10  C   UNL     1      41.033 -14.908  -0.071  1.00  0.00     0.071 A 
BRANCH   8  11
HETATM   11  C   UNL     1      40.827 -13.049  -1.883  1.00  0.00    -0.005 A 
HETATM   12  C   UNL     1      39.849 -12.457  -2.699  1.00  0.00     0.053 A 
HETATM   13  C   UNL     1      40.205 -11.694  -3.822  1.00  0.00     0.102 A 
HETATM   14  C   UNL     1      41.563 -11.521  -4.139  1.00  0.00     0.101 A 
HETATM   15  C   UNL     1      42.540 -12.137  -3.354  1.00  0.00     0.040 A 
HETATM   16  C   UNL     1      42.173 -12.890  -2.234  1.00  0.00     0.017 A 
BRANCH  13  17
HETATM   17  O   UNL     1      39.310 -11.072  -4.657  1.00  0.00    -0.353 OA
HETATM   18  C   UNL     1      38.193 -10.421  -4.070  1.00  0.00     0.210 C 
ENDBRANCH  13  17
BRANCH  14  19
HETATM   19  O   UNL     1      41.845 -10.767  -5.252  1.00  0.00    -0.353 OA
HETATM   20  C   UNL     1      42.524  -9.538  -5.023  1.00  0.00     0.210 C 
ENDBRANCH  14  19
ENDBRANCH   8  11
ENDBRANCH   1   5
BRANCH   2  21
HETATM   21  C   UNL     1      41.518 -16.347   4.405  1.00  0.00     0.747 A 
HETATM   22  N   UNL     1      40.916 -16.179   5.580  1.00  0.00     0.020 NA
HETATM   23  N   UNL     1      41.564 -17.048   6.359  1.00  0.00    -0.248 N 
HETATM   24  H   UNL     1      41.305 -17.123   7.337  1.00  0.00     0.191 HD
HETATM   25  C   UNL     1      42.525 -17.720   5.659  1.00  0.00     0.140 A 
HETATM   26  N   UNL     1      42.520 -17.283   4.416  1.00  0.00    -0.046 NA
BRANCH  25  27
HETATM   27  C   UNL     1      43.427 -18.731   6.274  1.00  0.00     0.085 C 
BRANCH  27  28
HETATM   28  C   UNL     1      44.712 -18.931   5.466  1.00  0.00     0.046 C 
BRANCH  28  29
HETATM   29  C   UNL     1      44.640 -20.152   4.583  1.00  0.00    -0.058 A 
HETATM   30  C   UNL     1      44.387 -20.023   3.210  1.00  0.00     0.007 A 
HETATM   31  C   UNL     1      44.308 -21.154   2.396  1.00  0.00     0.001 A 
HETATM   32  C   UNL     1      44.481 -22.423   2.945  1.00  0.00     0.000 A 
HETATM   33  C   UNL     1      44.732 -22.562   4.309  1.00  0.00     0.001 A 
HETATM   34  C   UNL     1      44.808 -21.432   5.126  1.00  0.00     0.007 A 
ENDBRANCH  28  29
ENDBRANCH  27  28
ENDBRANCH  25  27
ENDBRANCH   2  21
TORSDOF 8
ENDMDL
