MODEL 1
REMARK VINA RESULT:      -7.5      0.000      0.000
REMARK  5 active torsions:
REMARK  status: ('A' for Active; 'I' for Inactive)
REMARK    1  A    between atoms: S_2  and  C_3 
REMARK    2  A    between atoms: C_3  and  C_4 
REMARK    3  A    between atoms: C_7  and  C_8 
REMARK       I    between atoms: C_8  and  N_9 
REMARK    4  A    between atoms: N_9  and  C_10 
REMARK    5  A    between atoms: C_12  and  C_13 
ROOT
HETATM    1  C   UNL     1      43.905 -14.479   6.375  1.00  0.00     0.256 C 
HETATM    2  N   UNL     1      44.959 -14.241   7.240  1.00  0.00    -0.323 N 
HETATM    3  O   UNL     1      43.001 -13.694   6.107  1.00  0.00    -0.267 OA
HETATM    4  H   UNL     1      45.656 -14.964   7.344  1.00  0.00     0.169 HD
ENDROOT
BRANCH   2   5
HETATM    5  C   UNL     1      45.137 -13.118   8.080  1.00  0.00     0.035 A 
HETATM    6  C   UNL     1      44.205 -12.703   9.037  1.00  0.00     0.042 A 
HETATM    7  C   UNL     1      44.469 -11.618   9.891  1.00  0.00    -0.021 A 
HETATM    8  C   UNL     1      45.681 -10.932   9.750  1.00  0.00     0.012 A 
HETATM    9  C   UNL     1      46.612 -11.327   8.789  1.00  0.00     0.003 A 
HETATM   10  C   UNL     1      46.345 -12.421   7.965  1.00  0.00     0.029 A 
BRANCH   7  11
HETATM   11  C   UNL     1      43.506 -11.255  10.922  1.00  0.00     0.010 A 
HETATM   12  C   UNL     1      43.342 -11.740  12.243  1.00  0.00     0.152 A 
HETATM   13  N   UNL     1      42.342 -11.142  12.897  1.00  0.00    -0.187 NA
HETATM   14  N   UNL     1      41.852 -10.279  11.996  1.00  0.00    -0.289 N 
HETATM   15  H   UNL     1      41.064  -9.700  12.265  1.00  0.00     0.188 HD
HETATM   16  C   UNL     1      42.512 -10.305  10.801  1.00  0.00     0.123 A 
ENDBRANCH   7  11
ENDBRANCH   2   5
BRANCH   1  17
HETATM   17  C   UNL     1      43.857 -15.838   5.750  1.00  0.00     0.032 A 
HETATM   18  C   UNL     1      43.237 -16.106   4.524  1.00  0.00     0.017 A 
HETATM   19  C   UNL     1      43.302 -17.388   3.969  1.00  0.00     0.009 A 
HETATM   20  C   UNL     1      43.970 -18.427   4.635  1.00  0.00    -0.049 A 
HETATM   21  C   UNL     1      44.547 -18.166   5.884  1.00  0.00     0.009 A 
HETATM   22  C   UNL     1      44.491 -16.885   6.435  1.00  0.00     0.017 A 
BRANCH  20  23
HETATM   23  C   UNL     1      44.087 -19.795   4.011  1.00  0.00     0.112 C 
BRANCH  23  24
HETATM   24  S   UNL     1      43.607 -19.824   2.254  1.00  0.00    -0.169 SA
HETATM   25  C   UNL     1      43.981 -21.553   1.864  1.00  0.00     0.090 C 
ENDBRANCH  23  24
ENDBRANCH  20  23
ENDBRANCH   1  17
TORSDOF 5
ENDMDL
MODEL 2
REMARK VINA RESULT:      -7.5      6.341      9.319
REMARK  5 active torsions:
REMARK  status: ('A' for Active; 'I' for Inactive)
REMARK    1  A    between atoms: S_2  and  C_3 
REMARK    2  A    between atoms: C_3  and  C_4 
REMARK    3  A    between atoms: C_7  and  C_8 
REMARK       I    between atoms: C_8  and  N_9 
REMARK    4  A    between atoms: N_9  and  C_10 
REMARK    5  A    between atoms: C_12  and  C_13 
ROOT
HETATM    1  C   UNL     1      41.305 -16.125   2.539  1.00  0.00     0.256 C 
HETATM    2  N   UNL     1      42.541 -16.743   2.465  1.00  0.00    -0.323 N 
HETATM    3  O   UNL     1      40.596 -16.047   3.537  1.00  0.00    -0.267 OA
HETATM    4  H   UNL     1      43.036 -16.705   1.586  1.00  0.00     0.169 HD
ENDROOT
BRANCH   2   5
HETATM    5  C   UNL     1      43.172 -17.513   3.469  1.00  0.00     0.035 A 
HETATM    6  C   UNL     1      43.441 -18.881   3.351  1.00  0.00     0.042 A 
HETATM    7  C   UNL     1      44.133 -19.578   4.356  1.00  0.00    -0.021 A 
HETATM    8  C   UNL     1      44.530 -18.882   5.505  1.00  0.00     0.012 A 
HETATM    9  C   UNL     1      44.254 -17.521   5.640  1.00  0.00     0.003 A 
HETATM   10  C   UNL     1      43.587 -16.839   4.623  1.00  0.00     0.029 A 
BRANCH   7  11
HETATM   11  C   UNL     1      44.458 -20.986   4.171  1.00  0.00     0.010 A 
HETATM   12  C   UNL     1      44.461 -21.787   3.002  1.00  0.00     0.152 A 
HETATM   13  N   UNL     1      44.836 -23.048   3.236  1.00  0.00    -0.187 NA
HETATM   14  N   UNL     1      45.062 -23.066   4.557  1.00  0.00    -0.289 N 
HETATM   15  H   UNL     1      45.360 -23.938   4.981  1.00  0.00     0.188 HD
HETATM   16  C   UNL     1      44.853 -21.861   5.163  1.00  0.00     0.123 A 
ENDBRANCH   7  11
ENDBRANCH   2   5
BRANCH   1  17
HETATM   17  C   UNL     1      40.781 -15.541   1.263  1.00  0.00     0.032 A 
HETATM   18  C   UNL     1      39.715 -14.635   1.207  1.00  0.00     0.017 A 
HETATM   19  C   UNL     1      39.335 -14.074  -0.017  1.00  0.00     0.009 A 
HETATM   20  C   UNL     1      39.998 -14.419  -1.204  1.00  0.00    -0.049 A 
HETATM   21  C   UNL     1      41.032 -15.362  -1.149  1.00  0.00     0.009 A 
HETATM   22  C   UNL     1      41.419 -15.917   0.073  1.00  0.00     0.017 A 
BRANCH  20  23
HETATM   23  C   UNL     1      39.625 -13.773  -2.514  1.00  0.00     0.112 C 
BRANCH  23  24
HETATM   24  S   UNL     1      38.142 -14.506  -3.278  1.00  0.00    -0.169 SA
HETATM   25  C   UNL     1      38.906 -15.892  -4.158  1.00  0.00     0.090 C 
ENDBRANCH  23  24
ENDBRANCH  20  23
ENDBRANCH   1  17
TORSDOF 5
ENDMDL
MODEL 3
REMARK VINA RESULT:      -7.5      5.245      8.244
REMARK  5 active torsions:
REMARK  status: ('A' for Active; 'I' for Inactive)
REMARK    1  A    between atoms: S_2  and  C_3 
REMARK    2  A    between atoms: C_3  and  C_4 
REMARK    3  A    between atoms: C_7  and  C_8 
REMARK       I    between atoms: C_8  and  N_9 
REMARK    4  A    between atoms: N_9  and  C_10 
REMARK    5  A    between atoms: C_12  and  C_13 
ROOT
HETATM    1  C   UNL     1      41.207 -16.502   1.566  1.00  0.00     0.256 C 
HETATM    2  N   UNL     1      42.558 -16.667   1.821  1.00  0.00    -0.323 N 
HETATM    3  O   UNL     1      40.287 -17.005   2.203  1.00  0.00    -0.267 OA
HETATM    4  H   UNL     1      43.212 -16.167   1.238  1.00  0.00     0.169 HD
ENDROOT
BRANCH   2   5
HETATM    5  C   UNL     1      43.148 -17.537   2.766  1.00  0.00     0.035 A 
HETATM    6  C   UNL     1      43.193 -17.283   4.140  1.00  0.00     0.042 A 
HETATM    7  C   UNL     1      43.732 -18.220   5.039  1.00  0.00    -0.021 A 
HETATM    8  C   UNL     1      44.257 -19.414   4.530  1.00  0.00     0.012 A 
HETATM    9  C   UNL     1      44.232 -19.672   3.159  1.00  0.00     0.003 A 
HETATM   10  C   UNL     1      43.671 -18.742   2.283  1.00  0.00     0.029 A 
BRANCH   7  11
HETATM   11  C   UNL     1      43.700 -17.954   6.471  1.00  0.00     0.010 A 
HETATM   12  C   UNL     1      43.476 -16.749   7.181  1.00  0.00     0.152 A 
HETATM   13  N   UNL     1      43.510 -16.912   8.507  1.00  0.00    -0.187 NA
HETATM   14  N   UNL     1      43.770 -18.219   8.654  1.00  0.00    -0.289 N 
HETATM   15  H   UNL     1      43.851 -18.589   9.595  1.00  0.00     0.188 HD
HETATM   16  C   UNL     1      43.891 -18.887   7.470  1.00  0.00     0.123 A 
ENDBRANCH   7  11
ENDBRANCH   2   5
BRANCH   1  17
HETATM   17  C   UNL     1      40.857 -15.665   0.376  1.00  0.00     0.032 A 
HETATM   18  C   UNL     1      41.364 -15.894  -0.908  1.00  0.00     0.017 A 
HETATM   19  C   UNL     1      40.928 -15.115  -1.986  1.00  0.00     0.009 A 
HETATM   20  C   UNL     1      39.995 -14.085  -1.796  1.00  0.00    -0.049 A 
HETATM   21  C   UNL     1      39.527 -13.828  -0.502  1.00  0.00     0.009 A 
HETATM   22  C   UNL     1      39.953 -14.610   0.573  1.00  0.00     0.017 A 
BRANCH  20  23
HETATM   23  C   UNL     1      39.484 -13.281  -2.965  1.00  0.00     0.112 C 
BRANCH  23  24
HETATM   24  S   UNL     1      37.683 -13.428  -3.204  1.00  0.00    -0.169 SA
HETATM   25  C   UNL     1      37.566 -15.198  -3.564  1.00  0.00     0.090 C 
ENDBRANCH  23  24
ENDBRANCH  20  23
ENDBRANCH   1  17
TORSDOF 5
ENDMDL
MODEL 4
REMARK VINA RESULT:      -7.4      7.222     10.545
REMARK  5 active torsions:
REMARK  status: ('A' for Active; 'I' for Inactive)
REMARK    1  A    between atoms: S_2  and  C_3 
REMARK    2  A    between atoms: C_3  and  C_4 
REMARK    3  A    between atoms: C_7  and  C_8 
REMARK       I    between atoms: C_8  and  N_9 
REMARK    4  A    between atoms: N_9  and  C_10 
REMARK    5  A    between atoms: C_12  and  C_13 
ROOT
HETATM    1  C   UNL     1      41.271 -16.134   1.010  1.00  0.00     0.256 C 
HETATM    2  N   UNL     1      41.753 -15.735  -0.225  1.00  0.00    -0.323 N 
HETATM    3  O   UNL     1      40.243 -15.734   1.545  1.00  0.00    -0.267 OA
HETATM    4  H   UNL     1      42.598 -16.170  -0.565  1.00  0.00     0.169 HD
ENDROOT
BRANCH   2   5
HETATM    5  C   UNL     1      41.242 -14.707  -1.049  1.00  0.00     0.035 A 
HETATM    6  C   UNL     1      40.120 -14.851  -1.873  1.00  0.00     0.042 A 
HETATM    7  C   UNL     1      39.617 -13.771  -2.618  1.00  0.00    -0.021 A 
HETATM    8  C   UNL     1      40.279 -12.539  -2.545  1.00  0.00     0.012 A 
HETATM    9  C   UNL     1      41.408 -12.387  -1.739  1.00  0.00     0.003 A 
HETATM   10  C   UNL     1      41.880 -13.463  -0.988  1.00  0.00     0.029 A 
BRANCH   7  11
HETATM   11  C   UNL     1      38.407 -13.937  -3.412  1.00  0.00     0.010 A 
HETATM   12  C   UNL     1      37.794 -15.106  -3.926  1.00  0.00     0.152 A 
HETATM   13  N   UNL     1      36.670 -14.850  -4.602  1.00  0.00    -0.187 NA
HETATM   14  N   UNL     1      36.564 -13.515  -4.537  1.00  0.00    -0.289 N 
HETATM   15  H   UNL     1      35.773 -13.074  -4.994  1.00  0.00     0.188 HD
HETATM   16  C   UNL     1      37.574 -12.921  -3.836  1.00  0.00     0.123 A 
ENDBRANCH   7  11
ENDBRANCH   2   5
BRANCH   1  17
HETATM   17  C   UNL     1      42.118 -17.112   1.764  1.00  0.00     0.032 A 
HETATM   18  C   UNL     1      43.274 -17.700   1.241  1.00  0.00     0.017 A 
HETATM   19  C   UNL     1      44.055 -18.545   2.037  1.00  0.00     0.009 A 
HETATM   20  C   UNL     1      43.684 -18.831   3.360  1.00  0.00    -0.049 A 
HETATM   21  C   UNL     1      42.501 -18.278   3.863  1.00  0.00     0.009 A 
HETATM   22  C   UNL     1      41.726 -17.427   3.073  1.00  0.00     0.017 A 
BRANCH  20  23
HETATM   23  C   UNL     1      44.554 -19.698   4.235  1.00  0.00     0.112 C 
BRANCH  23  24
HETATM   24  S   UNL     1      44.136 -19.578   6.004  1.00  0.00    -0.169 SA
HETATM   25  C   UNL     1      45.162 -18.158   6.465  1.00  0.00     0.090 C 
ENDBRANCH  23  24
ENDBRANCH  20  23
ENDBRANCH   1  17
TORSDOF 5
ENDMDL
MODEL 5
REMARK VINA RESULT:      -7.4      4.778      9.488
REMARK  5 active torsions:
REMARK  status: ('A' for Active; 'I' for Inactive)
REMARK    1  A    between atoms: S_2  and  C_3 
REMARK    2  A    between atoms: C_3  and  C_4 
REMARK    3  A    between atoms: C_7  and  C_8 
REMARK       I    between atoms: C_8  and  N_9 
REMARK    4  A    between atoms: N_9  and  C_10 
REMARK    5  A    between atoms: C_12  and  C_13 
ROOT
HETATM    1  C   UNL     1      41.658 -15.762   4.699  1.00  0.00     0.256 C 
HETATM    2  N   UNL     1      42.947 -15.961   4.234  1.00  0.00    -0.323 N 
HETATM    3  O   UNL     1      40.725 -16.551   4.596  1.00  0.00    -0.267 OA
HETATM    4  H   UNL     1      43.630 -15.241   4.416  1.00  0.00     0.169 HD
ENDROOT
BRANCH   2   5
HETATM    5  C   UNL     1      43.412 -17.036   3.443  1.00  0.00     0.035 A 
HETATM    6  C   UNL     1      43.769 -18.287   3.958  1.00  0.00     0.042 A 
HETATM    7  C   UNL     1      44.159 -19.341   3.112  1.00  0.00    -0.021 A 
HETATM    8  C   UNL     1      44.213 -19.109   1.732  1.00  0.00     0.012 A 
HETATM    9  C   UNL     1      43.874 -17.861   1.209  1.00  0.00     0.003 A 
HETATM   10  C   UNL     1      43.467 -16.834   2.060  1.00  0.00     0.029 A 
BRANCH   7  11
HETATM   11  C   UNL     1      44.457 -20.651   3.675  1.00  0.00     0.010 A 
HETATM   12  C   UNL     1      44.828 -21.028   4.989  1.00  0.00     0.152 A 
HETATM   13  N   UNL     1      45.006 -22.346   5.122  1.00  0.00    -0.187 NA
HETATM   14  N   UNL     1      44.763 -22.819   3.891  1.00  0.00    -0.289 N 
HETATM   15  H   UNL     1      44.842 -23.818   3.737  1.00  0.00     0.188 HD
HETATM   16  C   UNL     1      44.429 -21.849   2.990  1.00  0.00     0.123 A 
ENDBRANCH   7  11
ENDBRANCH   2   5
BRANCH   1  17
HETATM   17  C   UNL     1      41.386 -14.440   5.346  1.00  0.00     0.032 A 
HETATM   18  C   UNL     1      42.377 -13.484   5.600  1.00  0.00     0.017 A 
HETATM   19  C   UNL     1      42.031 -12.239   6.137  1.00  0.00     0.009 A 
HETATM   20  C   UNL     1      40.697 -11.936   6.447  1.00  0.00    -0.049 A 
HETATM   21  C   UNL     1      39.716 -12.913   6.237  1.00  0.00     0.009 A 
HETATM   22  C   UNL     1      40.058 -14.152   5.692  1.00  0.00     0.017 A 
BRANCH  20  23
HETATM   23  C   UNL     1      40.317 -10.576   6.975  1.00  0.00     0.112 C 
BRANCH  23  24
HETATM   24  S   UNL     1      41.586  -9.847   8.060  1.00  0.00    -0.169 SA
HETATM   25  C   UNL     1      41.125 -10.620   9.631  1.00  0.00     0.090 C 
ENDBRANCH  23  24
ENDBRANCH  20  23
ENDBRANCH   1  17
TORSDOF 5
ENDMDL
MODEL 6
REMARK VINA RESULT:      -7.1      6.807     10.071
REMARK  5 active torsions:
REMARK  status: ('A' for Active; 'I' for Inactive)
REMARK    1  A    between atoms: S_2  and  C_3 
REMARK    2  A    between atoms: C_3  and  C_4 
REMARK    3  A    between atoms: C_7  and  C_8 
REMARK       I    between atoms: C_8  and  N_9 
REMARK    4  A    between atoms: N_9  and  C_10 
REMARK    5  A    between atoms: C_12  and  C_13 
ROOT
HETATM    1  C   UNL     1      41.411 -16.169   0.629  1.00  0.00     0.256 C 
HETATM    2  N   UNL     1      41.890 -15.985  -0.657  1.00  0.00    -0.323 N 
HETATM    3  O   UNL     1      40.440 -15.608   1.124  1.00  0.00    -0.267 OA
HETATM    4  H   UNL     1      42.682 -16.537  -0.950  1.00  0.00     0.169 HD
ENDROOT
BRANCH   2   5
HETATM    5  C   UNL     1      41.447 -15.033  -1.604  1.00  0.00     0.035 A 
HETATM    6  C   UNL     1      41.922 -13.718  -1.670  1.00  0.00     0.042 A 
HETATM    7  C   UNL     1      41.494 -12.837  -2.678  1.00  0.00    -0.021 A 
HETATM    8  C   UNL     1      40.552 -13.290  -3.610  1.00  0.00     0.012 A 
HETATM    9  C   UNL     1      40.060 -14.594  -3.545  1.00  0.00     0.003 A 
HETATM   10  C   UNL     1      40.513 -15.462  -2.552  1.00  0.00     0.029 A 
BRANCH   7  11
HETATM   11  C   UNL     1      42.060 -11.497  -2.760  1.00  0.00     0.010 A 
HETATM   12  C   UNL     1      41.995 -10.530  -3.793  1.00  0.00     0.152 A 
HETATM   13  N   UNL     1      42.637  -9.398  -3.487  1.00  0.00    -0.187 NA
HETATM   14  N   UNL     1      43.127  -9.638  -2.263  1.00  0.00    -0.289 N 
HETATM   15  H   UNL     1      43.670  -8.910  -1.812  1.00  0.00     0.188 HD
HETATM   16  C   UNL     1      42.810 -10.876  -1.782  1.00  0.00     0.123 A 
ENDBRANCH   7  11
ENDBRANCH   2   5
BRANCH   1  17
HETATM   17  C   UNL     1      42.189 -17.111   1.494  1.00  0.00     0.032 A 
HETATM   18  C   UNL     1      43.361 -17.755   1.079  1.00  0.00     0.017 A 
HETATM   19  C   UNL     1      44.074 -18.561   1.973  1.00  0.00     0.009 A 
HETATM   20  C   UNL     1      43.621 -18.752   3.287  1.00  0.00    -0.049 A 
HETATM   21  C   UNL     1      42.422 -18.146   3.682  1.00  0.00     0.009 A 
HETATM   22  C   UNL     1      41.714 -17.333   2.794  1.00  0.00     0.017 A 
BRANCH  20  23
HETATM   23  C   UNL     1      44.418 -19.577   4.266  1.00  0.00     0.112 C 
BRANCH  23  24
HETATM   24  S   UNL     1      43.928 -19.302   5.999  1.00  0.00    -0.169 SA
HETATM   25  C   UNL     1      45.168 -18.071   6.476  1.00  0.00     0.090 C 
ENDBRANCH  23  24
ENDBRANCH  20  23
ENDBRANCH   1  17
TORSDOF 5
ENDMDL
MODEL 7
REMARK VINA RESULT:      -7.0      5.301      9.156
REMARK  5 active torsions:
REMARK  status: ('A' for Active; 'I' for Inactive)
REMARK    1  A    between atoms: S_2  and  C_3 
REMARK    2  A    between atoms: C_3  and  C_4 
REMARK    3  A    between atoms: C_7  and  C_8 
REMARK       I    between atoms: C_8  and  N_9 
REMARK    4  A    between atoms: N_9  and  C_10 
REMARK    5  A    between atoms: C_12  and  C_13 
ROOT
HETATM    1  C   UNL     1      41.166 -15.472   5.507  1.00  0.00     0.256 C 
HETATM    2  N   UNL     1      42.477 -15.637   5.094  1.00  0.00    -0.323 N 
HETATM    3  O   UNL     1      40.520 -16.261   6.188  1.00  0.00    -0.267 OA
HETATM    4  H   UNL     1      42.902 -14.892   4.564  1.00  0.00     0.169 HD
ENDROOT
BRANCH   2   5
HETATM    5  C   UNL     1      43.283 -16.787   5.255  1.00  0.00     0.035 A 
HETATM    6  C   UNL     1      43.270 -17.879   4.380  1.00  0.00     0.042 A 
HETATM    7  C   UNL     1      44.146 -18.965   4.553  1.00  0.00    -0.021 A 
HETATM    8  C   UNL     1      45.023 -18.952   5.645  1.00  0.00     0.012 A 
HETATM    9  C   UNL     1      45.034 -17.876   6.533  1.00  0.00     0.003 A 
HETATM   10  C   UNL     1      44.175 -16.796   6.332  1.00  0.00     0.029 A 
BRANCH   7  11
HETATM   11  C   UNL     1      44.154 -20.053   3.585  1.00  0.00     0.010 A 
HETATM   12  C   UNL     1      43.661 -20.111   2.258  1.00  0.00     0.152 A 
HETATM   13  N   UNL     1      43.870 -21.296   1.676  1.00  0.00    -0.187 NA
HETATM   14  N   UNL     1      44.488 -22.007   2.631  1.00  0.00    -0.289 N 
HETATM   15  H   UNL     1      44.749 -22.965   2.422  1.00  0.00     0.188 HD
HETATM   16  C   UNL     1      44.683 -21.312   3.789  1.00  0.00     0.123 A 
ENDBRANCH   7  11
ENDBRANCH   2   5
BRANCH   1  17
HETATM   17  C   UNL     1      40.477 -14.229   5.035  1.00  0.00     0.032 A 
HETATM   18  C   UNL     1      40.220 -13.951   3.688  1.00  0.00     0.017 A 
HETATM   19  C   UNL     1      39.501 -12.804   3.332  1.00  0.00     0.009 A 
HETATM   20  C   UNL     1      39.044 -11.910   4.312  1.00  0.00    -0.049 A 
HETATM   21  C   UNL     1      39.345 -12.168   5.654  1.00  0.00     0.009 A 
HETATM   22  C   UNL     1      40.054 -13.316   6.012  1.00  0.00     0.017 A 
BRANCH  20  23
HETATM   23  C   UNL     1      38.222 -10.704   3.933  1.00  0.00     0.112 C 
BRANCH  23  24
HETATM   24  S   UNL     1      39.041  -9.637   2.703  1.00  0.00    -0.169 SA
HETATM   25  C   UNL     1      40.519  -9.169   3.639  1.00  0.00     0.090 C 
ENDBRANCH  23  24
ENDBRANCH  20  23
ENDBRANCH   1  17
TORSDOF 5
ENDMDL
MODEL 8
REMARK VINA RESULT:      -7.0      6.497      9.408
REMARK  5 active torsions:
REMARK  status: ('A' for Active; 'I' for Inactive)
REMARK    1  A    between atoms: S_2  and  C_3 
REMARK    2  A    between atoms: C_3  and  C_4 
REMARK    3  A    between atoms: C_7  and  C_8 
REMARK       I    between atoms: C_8  and  N_9 
REMARK    4  A    between atoms: N_9  and  C_10 
REMARK    5  A    between atoms: C_12  and  C_13 
ROOT
HETATM    1  C   UNL     1      41.855 -16.212   2.882  1.00  0.00     0.256 C 
HETATM    2  N   UNL     1      40.921 -16.451   1.889  1.00  0.00    -0.323 N 
HETATM    3  O   UNL     1      42.076 -15.132   3.419  1.00  0.00    -0.267 OA
HETATM    4  H   UNL     1      40.818 -17.398   1.557  1.00  0.00     0.169 HD
ENDROOT
BRANCH   2   5
HETATM    5  C   UNL     1      40.137 -15.493   1.206  1.00  0.00     0.035 A 
HETATM    6  C   UNL     1      40.501 -14.910  -0.012  1.00  0.00     0.042 A 
HETATM    7  C   UNL     1      39.647 -14.014  -0.678  1.00  0.00    -0.021 A 
HETATM    8  C   UNL     1      38.423 -13.686  -0.082  1.00  0.00     0.012 A 
HETATM    9  C   UNL     1      38.056 -14.249   1.140  1.00  0.00     0.003 A 
HETATM   10  C   UNL     1      38.905 -15.155   1.775  1.00  0.00     0.029 A 
BRANCH   7  11
HETATM   11  C   UNL     1      40.027 -13.479  -1.978  1.00  0.00     0.010 A 
HETATM   12  C   UNL     1      41.257 -13.542  -2.679  1.00  0.00     0.152 A 
HETATM   13  N   UNL     1      41.209 -12.935  -3.869  1.00  0.00    -0.187 NA
HETATM   14  N   UNL     1      39.954 -12.469  -3.932  1.00  0.00    -0.289 N 
HETATM   15  H   UNL     1      39.674 -11.955  -4.760  1.00  0.00     0.188 HD
HETATM   16  C   UNL     1      39.205 -12.768  -2.830  1.00  0.00     0.123 A 
ENDBRANCH   7  11
ENDBRANCH   2   5
BRANCH   1  17
HETATM   17  C   UNL     1      42.692 -17.382   3.297  1.00  0.00     0.032 A 
HETATM   18  C   UNL     1      42.814 -18.554   2.541  1.00  0.00     0.017 A 
HETATM   19  C   UNL     1      43.678 -19.573   2.958  1.00  0.00     0.009 A 
HETATM   20  C   UNL     1      44.418 -19.447   4.143  1.00  0.00    -0.049 A 
HETATM   21  C   UNL     1      44.257 -18.293   4.920  1.00  0.00     0.009 A 
HETATM   22  C   UNL     1      43.402 -17.272   4.501  1.00  0.00     0.017 A 
BRANCH  20  23
HETATM   23  C   UNL     1      45.390 -20.520   4.564  1.00  0.00     0.112 C 
BRANCH  23  24
HETATM   24  S   UNL     1      44.576 -21.974   5.302  1.00  0.00    -0.169 SA
HETATM   25  C   UNL     1      43.803 -21.193   6.741  1.00  0.00     0.090 C 
ENDBRANCH  23  24
ENDBRANCH  20  23
ENDBRANCH   1  17
TORSDOF 5
ENDMDL
MODEL 9
REMARK VINA RESULT:      -6.9      5.998      9.204
REMARK  5 active torsions:
REMARK  status: ('A' for Active; 'I' for Inactive)
REMARK    1  A    between atoms: S_2  and  C_3 
REMARK    2  A    between atoms: C_3  and  C_4 
REMARK    3  A    between atoms: C_7  and  C_8 
REMARK       I    between atoms: C_8  and  N_9 
REMARK    4  A    between atoms: N_9  and  C_10 
REMARK    5  A    between atoms: C_12  and  C_13 
ROOT
HETATM    1  C   UNL     1      41.344 -15.872   4.005  1.00  0.00     0.256 C 
HETATM    2  N   UNL     1      42.550 -16.443   3.634  1.00  0.00    -0.323 N 
HETATM    3  O   UNL     1      40.780 -16.016   5.084  1.00  0.00    -0.267 OA
HETATM    4  H   UNL     1      42.920 -16.213   2.724  1.00  0.00     0.169 HD
ENDROOT
BRANCH   2   5
HETATM    5  C   UNL     1      43.300 -17.398   4.357  1.00  0.00     0.035 A 
HETATM    6  C   UNL     1      43.476 -18.724   3.950  1.00  0.00     0.042 A 
HETATM    7  C   UNL     1      44.291 -19.610   4.677  1.00  0.00    -0.021 A 
HETATM    8  C   UNL     1      44.910 -19.148   5.845  1.00  0.00     0.012 A 
HETATM    9  C   UNL     1      44.729 -17.831   6.269  1.00  0.00     0.003 A 
HETATM   10  C   UNL     1      43.937 -16.959   5.523  1.00  0.00     0.029 A 
BRANCH   7  11
HETATM   11  C   UNL     1      44.508 -20.965   4.188  1.00  0.00     0.010 A 
HETATM   12  C   UNL     1      44.412 -21.500   2.879  1.00  0.00     0.152 A 
HETATM   13  N   UNL     1      44.705 -22.803   2.827  1.00  0.00    -0.187 NA
HETATM   14  N   UNL     1      44.976 -23.113   4.103  1.00  0.00    -0.289 N 
HETATM   15  H   UNL     1      45.226 -24.071   4.321  1.00  0.00     0.188 HD
HETATM   16  C   UNL     1      44.875 -22.051   4.956  1.00  0.00     0.123 A 
ENDBRANCH   7  11
ENDBRANCH   2   5
BRANCH   1  17
HETATM   17  C   UNL     1      40.660 -15.040   2.965  1.00  0.00     0.032 A 
HETATM   18  C   UNL     1      40.673 -15.344   1.599  1.00  0.00     0.017 A 
HETATM   19  C   UNL     1      39.944 -14.559   0.698  1.00  0.00     0.009 A 
HETATM   20  C   UNL     1      39.208 -13.450   1.143  1.00  0.00    -0.049 A 
HETATM   21  C   UNL     1      39.238 -13.122   2.504  1.00  0.00     0.009 A 
HETATM   22  C   UNL     1      39.957 -13.909   3.405  1.00  0.00     0.017 A 
BRANCH  20  23
HETATM   23  C   UNL     1      38.379 -12.638   0.180  1.00  0.00     0.112 C 
BRANCH  23  24
HETATM   24  S   UNL     1      38.855 -10.880   0.131  1.00  0.00    -0.169 SA
HETATM   25  C   UNL     1      40.588 -11.047  -0.369  1.00  0.00     0.090 C 
ENDBRANCH  23  24
ENDBRANCH  20  23
ENDBRANCH   1  17
TORSDOF 5
ENDMDL
MODEL 10
REMARK VINA RESULT:      -6.7      5.818      8.816
REMARK  5 active torsions:
REMARK  status: ('A' for Active; 'I' for Inactive)
REMARK    1  A    between atoms: S_2  and  C_3 
REMARK    2  A    between atoms: C_3  and  C_4 
REMARK    3  A    between atoms: C_7  and  C_8 
REMARK       I    between atoms: C_8  and  N_9 
REMARK    4  A    between atoms: N_9  and  C_10 
REMARK    5  A    between atoms: C_12  and  C_13 
ROOT
HETATM    1  C   UNL     1      41.425 -15.470   1.470  1.00  0.00     0.256 C 
HETATM    2  N   UNL     1      41.221 -16.787   1.844  1.00  0.00    -0.323 N 
HETATM    3  O   UNL     1      42.474 -14.844   1.577  1.00  0.00    -0.267 OA
HETATM    4  H   UNL     1      40.314 -17.192   1.669  1.00  0.00     0.169 HD
ENDROOT
BRANCH   2   5
HETATM    5  C   UNL     1      42.124 -17.626   2.537  1.00  0.00     0.035 A 
HETATM    6  C   UNL     1      42.345 -17.564   3.917  1.00  0.00     0.042 A 
HETATM    7  C   UNL     1      43.204 -18.472   4.561  1.00  0.00    -0.021 A 
HETATM    8  C   UNL     1      43.866 -19.433   3.787  1.00  0.00     0.012 A 
HETATM    9  C   UNL     1      43.665 -19.494   2.408  1.00  0.00     0.003 A 
HETATM   10  C   UNL     1      42.791 -18.601   1.789  1.00  0.00     0.029 A 
BRANCH   7  11
HETATM   11  C   UNL     1      43.359 -18.425   6.008  1.00  0.00     0.010 A 
HETATM   12  C   UNL     1      44.049 -19.291   6.892  1.00  0.00     0.152 A 
HETATM   13  N   UNL     1      43.973 -18.902   8.168  1.00  0.00    -0.187 NA
HETATM   14  N   UNL     1      43.224 -17.792   8.111  1.00  0.00    -0.289 N 
HETATM   15  H   UNL     1      43.019 -17.307   8.978  1.00  0.00     0.188 HD
HETATM   16  C   UNL     1      42.832 -17.462   6.846  1.00  0.00     0.123 A 
ENDBRANCH   7  11
ENDBRANCH   2   5
BRANCH   1  17
HETATM   17  C   UNL     1      40.233 -14.746   0.924  1.00  0.00     0.032 A 
HETATM   18  C   UNL     1      38.968 -14.780   1.522  1.00  0.00     0.017 A 
HETATM   19  C   UNL     1      37.922 -14.014   0.995  1.00  0.00     0.009 A 
HETATM   20  C   UNL     1      38.117 -13.218  -0.144  1.00  0.00    -0.049 A 
HETATM   21  C   UNL     1      39.371 -13.226  -0.766  1.00  0.00     0.009 A 
HETATM   22  C   UNL     1      40.418 -13.982  -0.237  1.00  0.00     0.017 A 
BRANCH  20  23
HETATM   23  C   UNL     1      37.005 -12.351  -0.679  1.00  0.00     0.112 C 
BRANCH  23  24
HETATM   24  S   UNL     1      36.160 -11.389   0.616  1.00  0.00    -0.169 SA
HETATM   25  C   UNL     1      37.515 -10.299   1.122  1.00  0.00     0.090 C 
ENDBRANCH  23  24
ENDBRANCH  20  23
ENDBRANCH   1  17
TORSDOF 5
ENDMDL
