MODEL 1
REMARK VINA RESULT:      -7.4      0.000      0.000
REMARK  6 active torsions:
REMARK  status: ('A' for Active; 'I' for Inactive)
REMARK    1  A    between atoms: C_2  and  O_3 
REMARK    2  A    between atoms: O_3  and  C_4 
REMARK    3  A    between atoms: C_4  and  C_5 
REMARK    4  A    between atoms: C_10  and  C_11 
REMARK    5  A    between atoms: C_11  and  N_12 
REMARK    6  A    between atoms: C_11  and  C_16 
ROOT
HETATM    1  C   UNL     1      43.523 -18.071   5.671  1.00  0.00     0.118 A 
HETATM    2  N   UNL     1      44.492 -19.027   5.487  1.00  0.00    -0.350 N 
HETATM    3  H   UNL     1      45.224 -19.231   6.157  1.00  0.00     0.166 HD
HETATM    4  C   UNL     1      44.349 -19.641   4.272  1.00  0.00     0.043 A 
HETATM    5  C   UNL     1      43.223 -19.096   3.653  1.00  0.00     0.002 A 
HETATM    6  C   UNL     1      42.681 -18.100   4.552  1.00  0.00     0.022 A 
HETATM    7  C   UNL     1      45.138 -20.641   3.691  1.00  0.00     0.030 A 
HETATM    8  C   UNL     1      44.772 -21.110   2.431  1.00  0.00     0.002 A 
HETATM    9  C   UNL     1      43.654 -20.600   1.782  1.00  0.00     0.001 A 
HETATM   10  C   UNL     1      42.874 -19.601   2.379  1.00  0.00     0.014 A 
ENDROOT
BRANCH   6  11
HETATM   11  C   UNL     1      41.481 -17.209   4.365  1.00  0.00     0.252 C 
BRANCH  11  12
HETATM   12  N   UNL     1      40.474 -17.287   5.441  1.00  0.00    -0.067 N 
HETATM   13  H   UNL     1      40.869 -16.961   6.325  1.00  0.00     0.275 HD
HETATM   14  H   UNL     1      39.682 -16.677   5.214  1.00  0.00     0.275 HD
HETATM   15  H   UNL     1      40.139 -18.249   5.547  1.00  0.00     0.275 HD
ENDBRANCH  11  12
BRANCH  11  16
HETATM   16  C   UNL     1      41.974 -15.788   4.183  1.00  0.00    -0.024 A 
HETATM   17  C   UNL     1      41.313 -14.742   4.854  1.00  0.00     0.009 A 
HETATM   18  C   UNL     1      41.770 -13.426   4.761  1.00  0.00     0.001 A 
HETATM   19  C   UNL     1      42.895 -13.131   3.999  1.00  0.00     0.000 A 
HETATM   20  C   UNL     1      43.564 -14.148   3.325  1.00  0.00     0.001 A 
HETATM   21  C   UNL     1      43.112 -15.467   3.418  1.00  0.00     0.009 A 
ENDBRANCH  11  16
ENDBRANCH   6  11
BRANCH   1  22
HETATM   22  C   UNL     1      43.455 -17.222   6.843  1.00  0.00     0.310 C 
HETATM   23  O   UNL     1      42.606 -17.326   7.716  1.00  0.00    -0.258 OA
BRANCH  22  24
HETATM   24  O   UNL     1      44.443 -16.291   6.792  1.00  0.00    -0.317 OA
BRANCH  24  25
HETATM   25  C   UNL     1      44.091 -14.975   7.250  1.00  0.00     0.175 C 
HETATM   26  C   UNL     1      45.164 -13.981   6.846  1.00  0.00     0.034 C 
ENDBRANCH  24  25
ENDBRANCH  22  24
ENDBRANCH   1  22
TORSDOF 6
ENDMDL
MODEL 2
REMARK VINA RESULT:      -7.3      1.975      4.760
REMARK  6 active torsions:
REMARK  status: ('A' for Active; 'I' for Inactive)
REMARK    1  A    between atoms: C_2  and  O_3 
REMARK    2  A    between atoms: O_3  and  C_4 
REMARK    3  A    between atoms: C_4  and  C_5 
REMARK    4  A    between atoms: C_10  and  C_11 
REMARK    5  A    between atoms: C_11  and  N_12 
REMARK    6  A    between atoms: C_11  and  C_16 
ROOT
HETATM    1  C   UNL     1      43.955 -18.126   6.066  1.00  0.00     0.118 A 
HETATM    2  N   UNL     1      44.756 -17.211   6.703  1.00  0.00    -0.350 N 
HETATM    3  H   UNL     1      45.589 -17.451   7.228  1.00  0.00     0.166 HD
HETATM    4  C   UNL     1      44.264 -15.942   6.554  1.00  0.00     0.043 A 
HETATM    5  C   UNL     1      43.121 -16.023   5.759  1.00  0.00     0.002 A 
HETATM    6  C   UNL     1      42.926 -17.419   5.430  1.00  0.00     0.022 A 
HETATM    7  C   UNL     1      44.761 -14.737   7.067  1.00  0.00     0.030 A 
HETATM    8  C   UNL     1      44.072 -13.565   6.761  1.00  0.00     0.002 A 
HETATM    9  C   UNL     1      42.934 -13.599   5.967  1.00  0.00     0.001 A 
HETATM   10  C   UNL     1      42.450 -14.813   5.460  1.00  0.00     0.014 A 
ENDROOT
BRANCH   6  11
HETATM   11  C   UNL     1      41.835 -18.055   4.610  1.00  0.00     0.252 C 
BRANCH  11  12
HETATM   12  N   UNL     1      40.461 -17.726   5.040  1.00  0.00    -0.067 N 
HETATM   13  H   UNL     1      39.848 -18.535   4.924  1.00  0.00     0.275 HD
HETATM   14  H   UNL     1      40.463 -17.481   6.035  1.00  0.00     0.275 HD
HETATM   15  H   UNL     1      40.098 -16.937   4.499  1.00  0.00     0.275 HD
ENDBRANCH  11  12
BRANCH  11  16
HETATM   16  C   UNL     1      42.057 -17.680   3.159  1.00  0.00    -0.024 A 
HETATM   17  C   UNL     1      41.013 -17.063   2.444  1.00  0.00     0.009 A 
HETATM   18  C   UNL     1      41.194 -16.648   1.124  1.00  0.00     0.001 A 
HETATM   19  C   UNL     1      42.420 -16.839   0.494  1.00  0.00     0.000 A 
HETATM   20  C   UNL     1      43.465 -17.448   1.181  1.00  0.00     0.001 A 
HETATM   21  C   UNL     1      43.289 -17.863   2.504  1.00  0.00     0.009 A 
ENDBRANCH  11  16
ENDBRANCH   6  11
BRANCH   1  22
HETATM   22  C   UNL     1      44.197 -19.553   6.096  1.00  0.00     0.310 C 
HETATM   23  O   UNL     1      43.761 -20.304   6.957  1.00  0.00    -0.258 OA
BRANCH  22  24
HETATM   24  O   UNL     1      45.001 -19.904   5.060  1.00  0.00    -0.317 OA
BRANCH  24  25
HETATM   25  C   UNL     1      44.836 -21.241   4.559  1.00  0.00     0.175 C 
HETATM   26  C   UNL     1      44.572 -21.207   3.065  1.00  0.00     0.034 C 
ENDBRANCH  24  25
ENDBRANCH  22  24
ENDBRANCH   1  22
TORSDOF 6
ENDMDL
MODEL 3
REMARK VINA RESULT:      -7.1      2.920      4.305
REMARK  6 active torsions:
REMARK  status: ('A' for Active; 'I' for Inactive)
REMARK    1  A    between atoms: C_2  and  O_3 
REMARK    2  A    between atoms: O_3  and  C_4 
REMARK    3  A    between atoms: C_4  and  C_5 
REMARK    4  A    between atoms: C_10  and  C_11 
REMARK    5  A    between atoms: C_11  and  N_12 
REMARK    6  A    between atoms: C_11  and  C_16 
ROOT
HETATM    1  C   UNL     1      41.272 -16.722   2.325  1.00  0.00     0.118 A 
HETATM    2  N   UNL     1      41.961 -17.570   1.494  1.00  0.00    -0.350 N 
HETATM    3  H   UNL     1      41.864 -17.581   0.485  1.00  0.00     0.166 HD
HETATM    4  C   UNL     1      42.768 -18.411   2.211  1.00  0.00     0.043 A 
HETATM    5  C   UNL     1      42.634 -18.076   3.559  1.00  0.00     0.002 A 
HETATM    6  C   UNL     1      41.688 -16.984   3.637  1.00  0.00     0.022 A 
HETATM    7  C   UNL     1      43.606 -19.435   1.752  1.00  0.00     0.030 A 
HETATM    8  C   UNL     1      44.340 -20.149   2.698  1.00  0.00     0.002 A 
HETATM    9  C   UNL     1      44.242 -19.845   4.049  1.00  0.00     0.001 A 
HETATM   10  C   UNL     1      43.400 -18.815   4.492  1.00  0.00     0.014 A 
ENDROOT
BRANCH   6  11
HETATM   11  C   UNL     1      41.177 -16.259   4.854  1.00  0.00     0.252 C 
BRANCH  11  12
HETATM   12  N   UNL     1      40.393 -17.089   5.790  1.00  0.00    -0.067 N 
HETATM   13  H   UNL     1      40.068 -16.527   6.579  1.00  0.00     0.275 HD
HETATM   14  H   UNL     1      39.565 -17.456   5.311  1.00  0.00     0.275 HD
HETATM   15  H   UNL     1      40.959 -17.870   6.133  1.00  0.00     0.275 HD
ENDBRANCH  11  12
BRANCH  11  16
HETATM   16  C   UNL     1      42.359 -15.619   5.551  1.00  0.00    -0.024 A 
HETATM   17  C   UNL     1      42.837 -16.186   6.748  1.00  0.00     0.009 A 
HETATM   18  C   UNL     1      43.960 -15.664   7.392  1.00  0.00     0.001 A 
HETATM   19  C   UNL     1      44.629 -14.569   6.852  1.00  0.00     0.000 A 
HETATM   20  C   UNL     1      44.173 -13.992   5.671  1.00  0.00     0.001 A 
HETATM   21  C   UNL     1      43.050 -14.513   5.022  1.00  0.00     0.009 A 
ENDBRANCH  11  16
ENDBRANCH   6  11
BRANCH   1  22
HETATM   22  C   UNL     1      40.302 -15.757   1.851  1.00  0.00     0.310 C 
HETATM   23  O   UNL     1      39.095 -15.862   2.014  1.00  0.00    -0.258 OA
BRANCH  22  24
HETATM   24  O   UNL     1      40.936 -14.761   1.179  1.00  0.00    -0.317 OA
BRANCH  24  25
HETATM   25  C   UNL     1      40.388 -14.420  -0.104  1.00  0.00     0.175 C 
HETATM   26  C   UNL     1      41.033 -15.267  -1.186  1.00  0.00     0.034 C 
ENDBRANCH  24  25
ENDBRANCH  22  24
ENDBRANCH   1  22
TORSDOF 6
ENDMDL
MODEL 4
REMARK VINA RESULT:      -6.8      1.914      2.889
REMARK  6 active torsions:
REMARK  status: ('A' for Active; 'I' for Inactive)
REMARK    1  A    between atoms: C_2  and  O_3 
REMARK    2  A    between atoms: O_3  and  C_4 
REMARK    3  A    between atoms: C_4  and  C_5 
REMARK    4  A    between atoms: C_10  and  C_11 
REMARK    5  A    between atoms: C_11  and  N_12 
REMARK    6  A    between atoms: C_11  and  C_16 
ROOT
HETATM    1  C   UNL     1      43.617 -17.478   5.166  1.00  0.00     0.118 A 
HETATM    2  N   UNL     1      43.757 -18.643   5.879  1.00  0.00    -0.350 N 
HETATM    3  H   UNL     1      43.634 -18.714   6.883  1.00  0.00     0.166 HD
HETATM    4  C   UNL     1      44.108 -19.680   5.058  1.00  0.00     0.043 A 
HETATM    5  C   UNL     1      44.162 -19.187   3.754  1.00  0.00     0.002 A 
HETATM    6  C   UNL     1      43.834 -17.779   3.816  1.00  0.00     0.022 A 
HETATM    7  C   UNL     1      44.373 -21.015   5.388  1.00  0.00     0.030 A 
HETATM    8  C   UNL     1      44.706 -21.888   4.353  1.00  0.00     0.002 A 
HETATM    9  C   UNL     1      44.765 -21.440   3.040  1.00  0.00     0.001 A 
HETATM   10  C   UNL     1      44.495 -20.101   2.727  1.00  0.00     0.014 A 
ENDROOT
BRANCH   6  11
HETATM   11  C   UNL     1      43.763 -16.774   2.696  1.00  0.00     0.252 C 
BRANCH  11  12
HETATM   12  N   UNL     1      44.363 -17.217   1.423  1.00  0.00    -0.067 N 
HETATM   13  H   UNL     1      44.852 -18.105   1.548  1.00  0.00     0.275 HD
HETATM   14  H   UNL     1      43.624 -17.367   0.729  1.00  0.00     0.275 HD
HETATM   15  H   UNL     1      45.016 -16.511   1.071  1.00  0.00     0.275 HD
ENDBRANCH  11  12
BRANCH  11  16
HETATM   16  C   UNL     1      42.312 -16.381   2.508  1.00  0.00    -0.024 A 
HETATM   17  C   UNL     1      41.973 -15.015   2.463  1.00  0.00     0.009 A 
HETATM   18  C   UNL     1      40.658 -14.609   2.232  1.00  0.00     0.001 A 
HETATM   19  C   UNL     1      39.658 -15.557   2.039  1.00  0.00     0.000 A 
HETATM   20  C   UNL     1      39.970 -16.912   2.080  1.00  0.00     0.001 A 
HETATM   21  C   UNL     1      41.286 -17.324   2.309  1.00  0.00     0.009 A 
ENDBRANCH  11  16
ENDBRANCH   6  11
BRANCH   1  22
HETATM   22  C   UNL     1      43.302 -16.204   5.778  1.00  0.00     0.310 C 
HETATM   23  O   UNL     1      43.933 -15.175   5.581  1.00  0.00    -0.258 OA
BRANCH  22  24
HETATM   24  O   UNL     1      42.242 -16.345   6.614  1.00  0.00    -0.317 OA
BRANCH  24  25
HETATM   25  C   UNL     1      40.947 -16.365   5.992  1.00  0.00     0.175 C 
HETATM   26  C   UNL     1      40.413 -14.950   5.858  1.00  0.00     0.034 C 
ENDBRANCH  24  25
ENDBRANCH  22  24
ENDBRANCH   1  22
TORSDOF 6
ENDMDL
MODEL 5
REMARK VINA RESULT:      -6.7      1.319      1.593
REMARK  6 active torsions:
REMARK  status: ('A' for Active; 'I' for Inactive)
REMARK    1  A    between atoms: C_2  and  O_3 
REMARK    2  A    between atoms: O_3  and  C_4 
REMARK    3  A    between atoms: C_4  and  C_5 
REMARK    4  A    between atoms: C_10  and  C_11 
REMARK    5  A    between atoms: C_11  and  N_12 
REMARK    6  A    between atoms: C_11  and  C_16 
ROOT
HETATM    1  C   UNL     1      43.152 -17.850   5.659  1.00  0.00     0.118 A 
HETATM    2  N   UNL     1      44.212 -18.717   5.553  1.00  0.00    -0.350 N 
HETATM    3  H   UNL     1      44.920 -18.840   6.267  1.00  0.00     0.166 HD
HETATM    4  C   UNL     1      44.194 -19.366   4.348  1.00  0.00     0.043 A 
HETATM    5  C   UNL     1      43.061 -18.939   3.654  1.00  0.00     0.002 A 
HETATM    6  C   UNL     1      42.382 -17.978   4.497  1.00  0.00     0.022 A 
HETATM    7  C   UNL     1      45.102 -20.302   3.836  1.00  0.00     0.030 A 
HETATM    8  C   UNL     1      44.852 -20.828   2.570  1.00  0.00     0.002 A 
HETATM    9  C   UNL     1      43.732 -20.435   1.848  1.00  0.00     0.001 A 
HETATM   10  C   UNL     1      42.832 -19.499   2.376  1.00  0.00     0.014 A 
ENDROOT
BRANCH   6  11
HETATM   11  C   UNL     1      41.119 -17.204   4.221  1.00  0.00     0.252 C 
BRANCH  11  12
HETATM   12  N   UNL     1      40.569 -16.477   5.382  1.00  0.00    -0.067 N 
HETATM   13  H   UNL     1      39.569 -16.664   5.479  1.00  0.00     0.275 HD
HETATM   14  H   UNL     1      41.028 -16.802   6.239  1.00  0.00     0.275 HD
HETATM   15  H   UNL     1      40.724 -15.470   5.278  1.00  0.00     0.275 HD
ENDBRANCH  11  12
BRANCH  11  16
HETATM   16  C   UNL     1      41.387 -16.263   3.065  1.00  0.00    -0.024 A 
HETATM   17  C   UNL     1      40.684 -16.442   1.859  1.00  0.00     0.009 A 
HETATM   18  C   UNL     1      40.856 -15.562   0.790  1.00  0.00     0.001 A 
HETATM   19  C   UNL     1      41.731 -14.486   0.904  1.00  0.00     0.000 A 
HETATM   20  C   UNL     1      42.438 -14.291   2.087  1.00  0.00     0.001 A 
HETATM   21  C   UNL     1      42.267 -15.168   3.161  1.00  0.00     0.009 A 
ENDBRANCH  11  16
ENDBRANCH   6  11
BRANCH   1  22
HETATM   22  C   UNL     1      42.942 -16.988   6.803  1.00  0.00     0.310 C 
HETATM   23  O   UNL     1      42.497 -17.369   7.877  1.00  0.00    -0.258 OA
BRANCH  22  24
HETATM   24  O   UNL     1      43.274 -15.711   6.482  1.00  0.00    -0.317 OA
BRANCH  24  25
HETATM   25  C   UNL     1      44.305 -15.109   7.282  1.00  0.00     0.175 C 
HETATM   26  C   UNL     1      44.958 -13.972   6.518  1.00  0.00     0.034 C 
ENDBRANCH  24  25
ENDBRANCH  22  24
ENDBRANCH   1  22
TORSDOF 6
ENDMDL
MODEL 6
REMARK VINA RESULT:      -6.6      2.576      4.852
REMARK  6 active torsions:
REMARK  status: ('A' for Active; 'I' for Inactive)
REMARK    1  A    between atoms: C_2  and  O_3 
REMARK    2  A    between atoms: O_3  and  C_4 
REMARK    3  A    between atoms: C_4  and  C_5 
REMARK    4  A    between atoms: C_10  and  C_11 
REMARK    5  A    between atoms: C_11  and  N_12 
REMARK    6  A    between atoms: C_11  and  C_16 
ROOT
HETATM    1  C   UNL     1      43.687 -19.006   3.841  1.00  0.00     0.118 A 
HETATM    2  N   UNL     1      43.706 -19.530   5.110  1.00  0.00    -0.350 N 
HETATM    3  H   UNL     1      43.737 -20.521   5.316  1.00  0.00     0.166 HD
HETATM    4  C   UNL     1      43.650 -18.537   6.051  1.00  0.00     0.043 A 
HETATM    5  C   UNL     1      43.633 -17.316   5.375  1.00  0.00     0.002 A 
HETATM    6  C   UNL     1      43.671 -17.610   3.959  1.00  0.00     0.022 A 
HETATM    7  C   UNL     1      43.619 -18.645   7.447  1.00  0.00     0.030 A 
HETATM    8  C   UNL     1      43.570 -17.467   8.190  1.00  0.00     0.002 A 
HETATM    9  C   UNL     1      43.558 -16.230   7.559  1.00  0.00     0.001 A 
HETATM   10  C   UNL     1      43.591 -16.140   6.161  1.00  0.00     0.014 A 
ENDROOT
BRANCH   6  11
HETATM   11  C   UNL     1      43.657 -16.656   2.794  1.00  0.00     0.252 C 
BRANCH  11  12
HETATM   12  N   UNL     1      44.130 -17.226   1.517  1.00  0.00    -0.067 N 
HETATM   13  H   UNL     1      45.105 -17.519   1.595  1.00  0.00     0.275 HD
HETATM   14  H   UNL     1      43.576 -18.058   1.288  1.00  0.00     0.275 HD
HETATM   15  H   UNL     1      44.034 -16.540   0.763  1.00  0.00     0.275 HD
ENDBRANCH  11  12
BRANCH  11  16
HETATM   16  C   UNL     1      42.254 -16.101   2.657  1.00  0.00    -0.024 A 
HETATM   17  C   UNL     1      42.012 -14.759   3.007  1.00  0.00     0.009 A 
HETATM   18  C   UNL     1      40.748 -14.191   2.841  1.00  0.00     0.001 A 
HETATM   19  C   UNL     1      39.704 -14.949   2.320  1.00  0.00     0.000 A 
HETATM   20  C   UNL     1      39.921 -16.277   1.969  1.00  0.00     0.001 A 
HETATM   21  C   UNL     1      41.185 -16.850   2.131  1.00  0.00     0.009 A 
ENDBRANCH  11  16
ENDBRANCH   6  11
BRANCH   1  22
HETATM   22  C   UNL     1      43.682 -19.820   2.644  1.00  0.00     0.310 C 
HETATM   23  O   UNL     1      42.771 -19.835   1.829  1.00  0.00    -0.258 OA
BRANCH  22  24
HETATM   24  O   UNL     1      44.811 -20.574   2.598  1.00  0.00    -0.317 OA
BRANCH  24  25
HETATM   25  C   UNL     1      44.619 -21.981   2.380  1.00  0.00     0.175 C 
HETATM   26  C   UNL     1      44.628 -22.718   3.707  1.00  0.00     0.034 C 
ENDBRANCH  24  25
ENDBRANCH  22  24
ENDBRANCH   1  22
TORSDOF 6
ENDMDL
MODEL 7
REMARK VINA RESULT:      -6.6      2.703      5.610
REMARK  6 active torsions:
REMARK  status: ('A' for Active; 'I' for Inactive)
REMARK    1  A    between atoms: C_2  and  O_3 
REMARK    2  A    between atoms: O_3  and  C_4 
REMARK    3  A    between atoms: C_4  and  C_5 
REMARK    4  A    between atoms: C_10  and  C_11 
REMARK    5  A    between atoms: C_11  and  N_12 
REMARK    6  A    between atoms: C_11  and  C_16 
ROOT
HETATM    1  C   UNL     1      41.301 -16.816   3.615  1.00  0.00     0.118 A 
HETATM    2  N   UNL     1      41.015 -16.657   4.949  1.00  0.00    -0.350 N 
HETATM    3  H   UNL     1      40.156 -16.255   5.303  1.00  0.00     0.166 HD
HETATM    4  C   UNL     1      42.056 -17.088   5.727  1.00  0.00     0.043 A 
HETATM    5  C   UNL     1      43.043 -17.584   4.875  1.00  0.00     0.002 A 
HETATM    6  C   UNL     1      42.558 -17.426   3.521  1.00  0.00     0.022 A 
HETATM    7  C   UNL     1      42.179 -17.074   7.122  1.00  0.00     0.030 A 
HETATM    8  C   UNL     1      43.351 -17.585   7.678  1.00  0.00     0.002 A 
HETATM    9  C   UNL     1      44.356 -18.094   6.867  1.00  0.00     0.001 A 
HETATM   10  C   UNL     1      44.216 -18.103   5.472  1.00  0.00     0.014 A 
ENDROOT
BRANCH   6  11
HETATM   11  C   UNL     1      43.237 -17.785   2.225  1.00  0.00     0.252 C 
BRANCH  11  12
HETATM   12  N   UNL     1      44.399 -16.944   1.877  1.00  0.00    -0.067 N 
HETATM   13  H   UNL     1      44.144 -16.259   1.163  1.00  0.00     0.275 HD
HETATM   14  H   UNL     1      44.707 -16.425   2.705  1.00  0.00     0.275 HD
HETATM   15  H   UNL     1      45.170 -17.525   1.537  1.00  0.00     0.275 HD
ENDBRANCH  11  12
BRANCH  11  16
HETATM   16  C   UNL     1      43.621 -19.249   2.284  1.00  0.00    -0.024 A 
HETATM   17  C   UNL     1      42.734 -20.211   1.765  1.00  0.00     0.009 A 
HETATM   18  C   UNL     1      43.074 -21.565   1.746  1.00  0.00     0.001 A 
HETATM   19  C   UNL     1      44.305 -21.982   2.242  1.00  0.00     0.000 A 
HETATM   20  C   UNL     1      45.196 -21.049   2.761  1.00  0.00     0.001 A 
HETATM   21  C   UNL     1      44.861 -19.693   2.780  1.00  0.00     0.009 A 
ENDBRANCH  11  16
ENDBRANCH   6  11
BRANCH   1  22
HETATM   22  C   UNL     1      40.407 -16.399   2.555  1.00  0.00     0.310 C 
HETATM   23  O   UNL     1      39.819 -17.170   1.811  1.00  0.00    -0.258 OA
BRANCH  22  24
HETATM   24  O   UNL     1      40.362 -15.043   2.501  1.00  0.00    -0.317 OA
BRANCH  24  25
HETATM   25  C   UNL     1      41.545 -14.393   2.009  1.00  0.00     0.175 C 
HETATM   26  C   UNL     1      41.665 -14.598   0.510  1.00  0.00     0.034 C 
ENDBRANCH  24  25
ENDBRANCH  22  24
ENDBRANCH   1  22
TORSDOF 6
ENDMDL
MODEL 8
REMARK VINA RESULT:      -6.5      2.358      4.522
REMARK  6 active torsions:
REMARK  status: ('A' for Active; 'I' for Inactive)
REMARK    1  A    between atoms: C_2  and  O_3 
REMARK    2  A    between atoms: O_3  and  C_4 
REMARK    3  A    between atoms: C_4  and  C_5 
REMARK    4  A    between atoms: C_10  and  C_11 
REMARK    5  A    between atoms: C_11  and  N_12 
REMARK    6  A    between atoms: C_11  and  C_16 
ROOT
HETATM    1  C   UNL     1      43.439 -18.798   3.470  1.00  0.00     0.118 A 
HETATM    2  N   UNL     1      44.170 -19.330   4.504  1.00  0.00    -0.350 N 
HETATM    3  H   UNL     1      44.838 -20.084   4.399  1.00  0.00     0.166 HD
HETATM    4  C   UNL     1      43.853 -18.725   5.690  1.00  0.00     0.043 A 
HETATM    5  C   UNL     1      42.909 -17.734   5.419  1.00  0.00     0.002 A 
HETATM    6  C   UNL     1      42.652 -17.766   3.996  1.00  0.00     0.022 A 
HETATM    7  C   UNL     1      44.345 -18.990   6.974  1.00  0.00     0.030 A 
HETATM    8  C   UNL     1      43.861 -18.217   8.029  1.00  0.00     0.002 A 
HETATM    9  C   UNL     1      42.927 -17.215   7.803  1.00  0.00     0.001 A 
HETATM   10  C   UNL     1      42.446 -16.962   6.511  1.00  0.00     0.014 A 
ENDROOT
BRANCH   6  11
HETATM   11  C   UNL     1      41.708 -16.917   3.185  1.00  0.00     0.252 C 
BRANCH  11  12
HETATM   12  N   UNL     1      40.285 -17.299   3.284  1.00  0.00    -0.067 N 
HETATM   13  H   UNL     1      39.830 -17.222   2.373  1.00  0.00     0.275 HD
HETATM   14  H   UNL     1      40.213 -18.277   3.583  1.00  0.00     0.275 HD
HETATM   15  H   UNL     1      39.802 -16.703   3.963  1.00  0.00     0.275 HD
ENDBRANCH  11  12
BRANCH  11  16
HETATM   16  C   UNL     1      41.913 -15.471   3.586  1.00  0.00    -0.024 A 
HETATM   17  C   UNL     1      43.175 -14.878   3.390  1.00  0.00     0.009 A 
HETATM   18  C   UNL     1      43.390 -13.532   3.691  1.00  0.00     0.001 A 
HETATM   19  C   UNL     1      42.352 -12.753   4.190  1.00  0.00     0.000 A 
HETATM   20  C   UNL     1      41.097 -13.318   4.392  1.00  0.00     0.001 A 
HETATM   21  C   UNL     1      40.875 -14.664   4.091  1.00  0.00     0.009 A 
ENDBRANCH  11  16
ENDBRANCH   6  11
BRANCH   1  22
HETATM   22  C   UNL     1      43.524 -19.277   2.106  1.00  0.00     0.310 C 
HETATM   23  O   UNL     1      43.927 -18.606   1.167  1.00  0.00    -0.258 OA
BRANCH  22  24
HETATM   24  O   UNL     1      43.057 -20.551   2.038  1.00  0.00    -0.317 OA
BRANCH  24  25
HETATM   25  C   UNL     1      44.005 -21.547   1.625  1.00  0.00     0.175 C 
HETATM   26  C   UNL     1      44.482 -22.341   2.828  1.00  0.00     0.034 C 
ENDBRANCH  24  25
ENDBRANCH  22  24
ENDBRANCH   1  22
TORSDOF 6
ENDMDL
MODEL 9
REMARK VINA RESULT:      -6.4      2.684      5.837
REMARK  6 active torsions:
REMARK  status: ('A' for Active; 'I' for Inactive)
REMARK    1  A    between atoms: C_2  and  O_3 
REMARK    2  A    between atoms: O_3  and  C_4 
REMARK    3  A    between atoms: C_4  and  C_5 
REMARK    4  A    between atoms: C_10  and  C_11 
REMARK    5  A    between atoms: C_11  and  N_12 
REMARK    6  A    between atoms: C_11  and  C_16 
ROOT
HETATM    1  C   UNL     1      42.613 -15.157   3.097  1.00  0.00     0.118 A 
HETATM    2  N   UNL     1      43.321 -14.140   3.690  1.00  0.00    -0.350 N 
HETATM    3  H   UNL     1      43.579 -13.279   3.223  1.00  0.00     0.166 HD
HETATM    4  C   UNL     1      43.650 -14.460   4.980  1.00  0.00     0.043 A 
HETATM    5  C   UNL     1      43.106 -15.715   5.255  1.00  0.00     0.002 A 
HETATM    6  C   UNL     1      42.427 -16.159   4.057  1.00  0.00     0.022 A 
HETATM    7  C   UNL     1      44.386 -13.718   5.912  1.00  0.00     0.030 A 
HETATM    8  C   UNL     1      44.578 -14.270   7.178  1.00  0.00     0.002 A 
HETATM    9  C   UNL     1      44.048 -15.513   7.497  1.00  0.00     0.001 A 
HETATM   10  C   UNL     1      43.312 -16.241   6.552  1.00  0.00     0.014 A 
ENDROOT
BRANCH   6  11
HETATM   11  C   UNL     1      41.687 -17.448   3.812  1.00  0.00     0.252 C 
BRANCH  11  12
HETATM   12  N   UNL     1      40.580 -17.355   2.839  1.00  0.00    -0.067 N 
HETATM   13  H   UNL     1      40.924 -17.515   1.891  1.00  0.00     0.275 HD
HETATM   14  H   UNL     1      39.884 -18.079   3.042  1.00  0.00     0.275 HD
HETATM   15  H   UNL     1      40.134 -16.435   2.894  1.00  0.00     0.275 HD
ENDBRANCH  11  12
BRANCH  11  16
HETATM   16  C   UNL     1      42.696 -18.497   3.391  1.00  0.00    -0.024 A 
HETATM   17  C   UNL     1      43.621 -18.976   4.337  1.00  0.00     0.009 A 
HETATM   18  C   UNL     1      44.528 -19.984   4.008  1.00  0.00     0.001 A 
HETATM   19  C   UNL     1      44.527 -20.535   2.730  1.00  0.00     0.000 A 
HETATM   20  C   UNL     1      43.622 -20.076   1.778  1.00  0.00     0.001 A 
HETATM   21  C   UNL     1      42.711 -19.068   2.104  1.00  0.00     0.009 A 
ENDBRANCH  11  16
ENDBRANCH   6  11
BRANCH   1  22
HETATM   22  C   UNL     1      42.175 -15.122   1.717  1.00  0.00     0.310 C 
HETATM   23  O   UNL     1      42.548 -15.910   0.860  1.00  0.00    -0.258 OA
BRANCH  22  24
HETATM   24  O   UNL     1      41.334 -14.073   1.529  1.00  0.00    -0.317 OA
BRANCH  24  25
HETATM   25  C   UNL     1      40.149 -14.346   0.765  1.00  0.00     0.175 C 
HETATM   26  C   UNL     1      38.947 -14.444   1.687  1.00  0.00     0.034 C 
ENDBRANCH  24  25
ENDBRANCH  22  24
ENDBRANCH   1  22
TORSDOF 6
ENDMDL
MODEL 10
REMARK VINA RESULT:      -6.4      2.939      5.334
REMARK  6 active torsions:
REMARK  status: ('A' for Active; 'I' for Inactive)
REMARK    1  A    between atoms: C_2  and  O_3 
REMARK    2  A    between atoms: O_3  and  C_4 
REMARK    3  A    between atoms: C_4  and  C_5 
REMARK    4  A    between atoms: C_10  and  C_11 
REMARK    5  A    between atoms: C_11  and  N_12 
REMARK    6  A    between atoms: C_11  and  C_16 
ROOT
HETATM    1  C   UNL     1      41.973 -14.151   3.260  1.00  0.00     0.118 A 
HETATM    2  N   UNL     1      42.339 -13.082   2.478  1.00  0.00    -0.350 N 
HETATM    3  H   UNL     1      42.795 -12.249   2.831  1.00  0.00     0.166 HD
HETATM    4  C   UNL     1      41.982 -13.286   1.173  1.00  0.00     0.043 A 
HETATM    5  C   UNL     1      41.395 -14.549   1.087  1.00  0.00     0.002 A 
HETATM    6  C   UNL     1      41.400 -15.114   2.419  1.00  0.00     0.022 A 
HETATM    7  C   UNL     1      42.146 -12.437   0.071  1.00  0.00     0.030 A 
HETATM    8  C   UNL     1      41.698 -12.886  -1.170  1.00  0.00     0.002 A 
HETATM    9  C   UNL     1      41.115 -14.140  -1.302  1.00  0.00     0.001 A 
HETATM   10  C   UNL     1      40.960 -14.978  -0.189  1.00  0.00     0.014 A 
ENDROOT
BRANCH   6  11
HETATM   11  C   UNL     1      40.874 -16.446   2.885  1.00  0.00     0.252 C 
BRANCH  11  12
HETATM   12  N   UNL     1      39.718 -16.959   2.123  1.00  0.00    -0.067 N 
HETATM   13  H   UNL     1      38.844 -16.623   2.530  1.00  0.00     0.275 HD
HETATM   14  H   UNL     1      39.762 -16.613   1.159  1.00  0.00     0.275 HD
HETATM   15  H   UNL     1      39.723 -17.983   2.114  1.00  0.00     0.275 HD
ENDBRANCH  11  12
BRANCH  11  16
HETATM   16  C   UNL     1      42.020 -17.436   2.869  1.00  0.00    -0.024 A 
HETATM   17  C   UNL     1      42.542 -17.899   4.092  1.00  0.00     0.009 A 
HETATM   18  C   UNL     1      43.558 -18.855   4.124  1.00  0.00     0.001 A 
HETATM   19  C   UNL     1      44.069 -19.370   2.937  1.00  0.00     0.000 A 
HETATM   20  C   UNL     1      43.569 -18.926   1.717  1.00  0.00     0.001 A 
HETATM   21  C   UNL     1      42.551 -17.971   1.680  1.00  0.00     0.009 A 
ENDBRANCH  11  16
ENDBRANCH   6  11
BRANCH   1  22
HETATM   22  C   UNL     1      42.175 -14.194   4.693  1.00  0.00     0.310 C 
HETATM   23  O   UNL     1      41.321 -13.896   5.515  1.00  0.00    -0.258 OA
BRANCH  22  24
HETATM   24  O   UNL     1      43.450 -14.574   4.965  1.00  0.00    -0.317 OA
BRANCH  24  25
HETATM   25  C   UNL     1      43.688 -15.077   6.290  1.00  0.00     0.175 C 
HETATM   26  C   UNL     1      44.677 -14.183   7.016  1.00  0.00     0.034 C 
ENDBRANCH  24  25
ENDBRANCH  22  24
ENDBRANCH   1  22
TORSDOF 6
ENDMDL
