MODEL 1
REMARK VINA RESULT:      -9.2      0.000      0.000
REMARK  6 active torsions:
REMARK  status: ('A' for Active; 'I' for Inactive)
REMARK    1  A    between atoms: O_2  and  C_3 
REMARK    2  A    between atoms: C_6  and  C_7 
REMARK    3  A    between atoms: C_13  and  C_14 
REMARK       I    between atoms: C_14  and  N_15 
REMARK    4  A    between atoms: N_15  and  C_16 
REMARK    5  A    between atoms: C_18  and  O_19 
REMARK    6  A    between atoms: C_24  and  C_25 
ROOT
HETATM    1  C   UNL     1      41.276 -16.909   4.352  1.00  0.00     0.118 C 
HETATM    2  N   UNL     1      40.600 -16.202   3.245  1.00  0.00    -0.365 N 
HETATM    3  C   UNL     1      41.236 -15.154   2.639  1.00  0.00     0.138 A 
HETATM    4  N   UNL     1      42.389 -14.618   3.171  1.00  0.00    -0.240 N 
HETATM    5  N   UNL     1      42.924 -13.643   2.425  1.00  0.00    -0.181 NA
HETATM    6  C   UNL     1      42.039 -13.488   1.438  1.00  0.00     0.160 A 
HETATM    7  C   UNL     1      40.959 -14.403   1.510  1.00  0.00     0.096 A 
HETATM    8  C   UNL     1      42.995 -15.050   4.418  1.00  0.00     0.221 C 
HETATM    9  C   UNL     1      41.969 -15.861   5.236  1.00  0.00     0.066 C 
HETATM   10  H   UNL     1      39.595 -16.104   3.412  1.00  0.00     0.161 HD
ENDROOT
BRANCH   7  11
HETATM   11  C   UNL     1      39.856 -14.490   0.566  1.00  0.00     0.261 C 
HETATM   12  N   UNL     1      40.241 -14.384  -0.757  1.00  0.00    -0.323 N 
HETATM   13  H   UNL     1      41.217 -14.151  -0.904  1.00  0.00     0.169 HD
HETATM   14  O   UNL     1      38.708 -14.639   0.969  1.00  0.00    -0.267 OA
BRANCH  12  15
HETATM   15  C   UNL     1      39.441 -14.542  -1.906  1.00  0.00     0.037 A 
HETATM   16  C   UNL     1      39.676 -15.503  -2.894  1.00  0.00     0.066 A 
HETATM   17  C   UNL     1      38.845 -15.568  -4.012  1.00  0.00     0.067 A 
HETATM   18  C   UNL     1      37.784 -14.688  -4.170  1.00  0.00     0.036 A 
HETATM   19  C   UNL     1      37.541 -13.728  -3.191  1.00  0.00     0.005 A 
HETATM   20  C   UNL     1      38.363 -13.658  -2.062  1.00  0.00     0.029 A 
BRANCH  17  21
HETATM   21  O   UNL     1      39.048 -16.500  -4.990  1.00  0.00    -0.361 OA
HETATM   22  H   UNL     1      39.027 -17.382  -4.582  1.00  0.00     0.217 HD
ENDBRANCH  17  21
ENDBRANCH  12  15
ENDBRANCH   7  11
BRANCH   1  23
HETATM   23  C   UNL     1      42.229 -18.001   3.871  1.00  0.00    -0.035 A 
HETATM   24  C   UNL     1      42.270 -18.445   2.541  1.00  0.00     0.012 A 
HETATM   25  C   UNL     1      43.205 -19.399   2.128  1.00  0.00     0.037 A 
HETATM   26  C   UNL     1      44.125 -19.930   3.030  1.00  0.00     0.068 A 
HETATM   27  C   UNL     1      44.060 -19.551   4.368  1.00  0.00     0.037 A 
HETATM   28  C   UNL     1      43.117 -18.604   4.784  1.00  0.00     0.012 A 
BRANCH  26  29
HETATM   29  O   UNL     1      45.013 -20.826   2.505  1.00  0.00    -0.356 OA
HETATM   30  C   UNL     1      44.435 -21.938   1.829  1.00  0.00     0.210 C 
ENDBRANCH  26  29
ENDBRANCH   1  23
BRANCH   8  31
HETATM   31  C   UNL     1      43.490 -13.888   5.252  1.00  0.00     0.409 C 
HETATM   32  F   UNL     1      42.735 -12.777   5.090  1.00  0.00    -0.169 F 
HETATM   33  F   UNL     1      43.405 -14.216   6.573  1.00  0.00    -0.169 F 
HETATM   34  F   UNL     1      44.780 -13.567   5.032  1.00  0.00    -0.169 F 
ENDBRANCH   8  31
TORSDOF 6
ENDMDL
MODEL 2
REMARK VINA RESULT:      -8.9      1.451      2.023
REMARK  6 active torsions:
REMARK  status: ('A' for Active; 'I' for Inactive)
REMARK    1  A    between atoms: O_2  and  C_3 
REMARK    2  A    between atoms: C_6  and  C_7 
REMARK    3  A    between atoms: C_13  and  C_14 
REMARK       I    between atoms: C_14  and  N_15 
REMARK    4  A    between atoms: N_15  and  C_16 
REMARK    5  A    between atoms: C_18  and  O_19 
REMARK    6  A    between atoms: C_24  and  C_25 
ROOT
HETATM    1  C   UNL     1      41.832 -17.178   5.480  1.00  0.00     0.118 C 
HETATM    2  N   UNL     1      41.262 -16.510   4.292  1.00  0.00    -0.365 N 
HETATM    3  C   UNL     1      41.956 -15.487   3.708  1.00  0.00     0.138 A 
HETATM    4  N   UNL     1      43.060 -14.935   4.321  1.00  0.00    -0.240 N 
HETATM    5  N   UNL     1      43.666 -13.990   3.591  1.00  0.00    -0.181 NA
HETATM    6  C   UNL     1      42.873 -13.868   2.524  1.00  0.00     0.160 A 
HETATM    7  C   UNL     1      41.785 -14.776   2.532  1.00  0.00     0.096 A 
HETATM    8  C   UNL     1      43.550 -15.324   5.631  1.00  0.00     0.221 C 
HETATM    9  C   UNL     1      42.451 -16.100   6.384  1.00  0.00     0.066 C 
HETATM   10  H   UNL     1      40.247 -16.402   4.365  1.00  0.00     0.161 HD
ENDROOT
BRANCH   7  11
HETATM   11  C   UNL     1      40.769 -14.894   1.497  1.00  0.00     0.261 C 
HETATM   12  N   UNL     1      41.206 -14.523   0.240  1.00  0.00    -0.323 N 
HETATM   13  H   UNL     1      42.134 -14.115   0.208  1.00  0.00     0.169 HD
HETATM   14  O   UNL     1      39.644 -15.289   1.778  1.00  0.00    -0.267 OA
BRANCH  12  15
HETATM   15  C   UNL     1      40.513 -14.629  -0.983  1.00  0.00     0.037 A 
HETATM   16  C   UNL     1      39.378 -13.879  -1.303  1.00  0.00     0.066 A 
HETATM   17  C   UNL     1      38.741 -14.071  -2.529  1.00  0.00     0.067 A 
HETATM   18  C   UNL     1      39.211 -15.003  -3.443  1.00  0.00     0.036 A 
HETATM   19  C   UNL     1      40.342 -15.753  -3.134  1.00  0.00     0.005 A 
HETATM   20  C   UNL     1      40.993 -15.565  -1.911  1.00  0.00     0.029 A 
BRANCH  17  21
HETATM   21  O   UNL     1      37.633 -13.349  -2.871  1.00  0.00    -0.361 OA
HETATM   22  H   UNL     1      37.257 -12.962  -2.062  1.00  0.00     0.217 HD
ENDBRANCH  17  21
ENDBRANCH  12  15
ENDBRANCH   7  11
BRANCH   1  23
HETATM   23  C   UNL     1      42.817 -18.290   5.125  1.00  0.00    -0.035 A 
HETATM   24  C   UNL     1      43.481 -19.057   6.095  1.00  0.00     0.012 A 
HETATM   25  C   UNL     1      44.324 -20.111   5.728  1.00  0.00     0.037 A 
HETATM   26  C   UNL     1      44.521 -20.429   4.385  1.00  0.00     0.068 A 
HETATM   27  C   UNL     1      43.922 -19.640   3.406  1.00  0.00     0.037 A 
HETATM   28  C   UNL     1      43.087 -18.578   3.773  1.00  0.00     0.012 A 
BRANCH  26  29
HETATM   29  O   UNL     1      45.335 -21.500   4.148  1.00  0.00    -0.356 OA
HETATM   30  C   UNL     1      44.679 -22.760   4.050  1.00  0.00     0.210 C 
ENDBRANCH  26  29
ENDBRANCH   1  23
BRANCH   8  31
HETATM   31  C   UNL     1      43.976 -14.133   6.464  1.00  0.00     0.409 C 
HETATM   32  F   UNL     1      43.049 -13.149   6.469  1.00  0.00    -0.169 F 
HETATM   33  F   UNL     1      44.124 -14.523   7.762  1.00  0.00    -0.169 F 
HETATM   34  F   UNL     1      45.161 -13.606   6.098  1.00  0.00    -0.169 F 
ENDBRANCH   8  31
TORSDOF 6
ENDMDL
MODEL 3
REMARK VINA RESULT:      -8.7      2.411      7.853
REMARK  6 active torsions:
REMARK  status: ('A' for Active; 'I' for Inactive)
REMARK    1  A    between atoms: O_2  and  C_3 
REMARK    2  A    between atoms: C_6  and  C_7 
REMARK    3  A    between atoms: C_13  and  C_14 
REMARK       I    between atoms: C_14  and  N_15 
REMARK    4  A    between atoms: N_15  and  C_16 
REMARK    5  A    between atoms: C_18  and  O_19 
REMARK    6  A    between atoms: C_24  and  C_25 
ROOT
HETATM    1  C   UNL     1      41.325 -13.619  -1.085  1.00  0.00     0.118 C 
HETATM    2  N   UNL     1      41.946 -14.721  -0.323  1.00  0.00    -0.365 N 
HETATM    3  C   UNL     1      41.367 -15.130   0.846  1.00  0.00     0.138 A 
HETATM    4  N   UNL     1      40.349 -14.404   1.427  1.00  0.00    -0.240 N 
HETATM    5  N   UNL     1      39.845 -14.971   2.531  1.00  0.00    -0.181 NA
HETATM    6  C   UNL     1      40.624 -16.040   2.713  1.00  0.00     0.160 A 
HETATM    7  C   UNL     1      41.596 -16.200   1.694  1.00  0.00     0.096 A 
HETATM    8  C   UNL     1      39.843 -13.144   0.913  1.00  0.00     0.221 C 
HETATM    9  C   UNL     1      40.858 -12.550  -0.085  1.00  0.00     0.066 C 
HETATM   10  H   UNL     1      42.968 -14.673  -0.345  1.00  0.00     0.161 HD
ENDROOT
BRANCH   7  11
HETATM   11  C   UNL     1      42.569 -17.279   1.611  1.00  0.00     0.261 C 
HETATM   12  N   UNL     1      42.613 -18.080   2.735  1.00  0.00    -0.323 N 
HETATM   13  H   UNL     1      42.051 -17.759   3.516  1.00  0.00     0.169 HD
HETATM   14  O   UNL     1      43.260 -17.411   0.608  1.00  0.00    -0.267 OA
BRANCH  12  15
HETATM   15  C   UNL     1      43.354 -19.263   2.925  1.00  0.00     0.037 A 
HETATM   16  C   UNL     1      43.417 -20.303   1.992  1.00  0.00     0.066 A 
HETATM   17  C   UNL     1      44.156 -21.450   2.278  1.00  0.00     0.067 A 
HETATM   18  C   UNL     1      44.831 -21.587   3.482  1.00  0.00     0.036 A 
HETATM   19  C   UNL     1      44.777 -20.556   4.417  1.00  0.00     0.005 A 
HETATM   20  C   UNL     1      44.045 -19.398   4.138  1.00  0.00     0.029 A 
BRANCH  17  21
HETATM   21  O   UNL     1      44.238 -22.479   1.384  1.00  0.00    -0.361 OA
HETATM   22  H   UNL     1      45.054 -22.372   0.867  1.00  0.00     0.217 HD
ENDBRANCH  17  21
ENDBRANCH  12  15
ENDBRANCH   7  11
BRANCH   1  23
HETATM   23  C   UNL     1      40.207 -14.089  -2.014  1.00  0.00    -0.035 A 
HETATM   24  C   UNL     1      39.006 -13.381  -2.179  1.00  0.00     0.012 A 
HETATM   25  C   UNL     1      38.037 -13.810  -3.091  1.00  0.00     0.037 A 
HETATM   26  C   UNL     1      38.243 -14.951  -3.864  1.00  0.00     0.068 A 
HETATM   27  C   UNL     1      39.399 -15.702  -3.670  1.00  0.00     0.037 A 
HETATM   28  C   UNL     1      40.365 -15.279  -2.749  1.00  0.00     0.012 A 
BRANCH  26  29
HETATM   29  O   UNL     1      37.244 -15.252  -4.745  1.00  0.00    -0.356 OA
HETATM   30  C   UNL     1      36.110 -14.391  -4.706  1.00  0.00     0.210 C 
ENDBRANCH  26  29
ENDBRANCH   1  23
BRANCH   8  31
HETATM   31  C   UNL     1      39.580 -12.137   2.012  1.00  0.00     0.409 C 
HETATM   32  F   UNL     1      40.564 -12.115   2.940  1.00  0.00    -0.169 F 
HETATM   33  F   UNL     1      39.538 -10.885   1.473  1.00  0.00    -0.169 F 
HETATM   34  F   UNL     1      38.401 -12.310   2.641  1.00  0.00    -0.169 F 
ENDBRANCH   8  31
TORSDOF 6
ENDMDL
MODEL 4
REMARK VINA RESULT:      -8.7      2.312      2.767
REMARK  6 active torsions:
REMARK  status: ('A' for Active; 'I' for Inactive)
REMARK    1  A    between atoms: O_2  and  C_3 
REMARK    2  A    between atoms: C_6  and  C_7 
REMARK    3  A    between atoms: C_13  and  C_14 
REMARK       I    between atoms: C_14  and  N_15 
REMARK    4  A    between atoms: N_15  and  C_16 
REMARK    5  A    between atoms: C_18  and  O_19 
REMARK    6  A    between atoms: C_24  and  C_25 
ROOT
HETATM    1  C   UNL     1      41.686 -17.076   5.481  1.00  0.00     0.118 C 
HETATM    2  N   UNL     1      40.922 -16.187   4.583  1.00  0.00    -0.365 N 
HETATM    3  C   UNL     1      41.529 -15.072   4.076  1.00  0.00     0.138 A 
HETATM    4  N   UNL     1      42.756 -14.654   4.546  1.00  0.00    -0.240 N 
HETATM    5  N   UNL     1      43.245 -13.587   3.902  1.00  0.00    -0.181 NA
HETATM    6  C   UNL     1      42.263 -13.256   3.061  1.00  0.00     0.160 A 
HETATM    7  C   UNL     1      41.160 -14.145   3.116  1.00  0.00     0.096 A 
HETATM    8  C   UNL     1      43.479 -15.293   5.631  1.00  0.00     0.221 C 
HETATM    9  C   UNL     1      42.518 -16.197   6.429  1.00  0.00     0.066 C 
HETATM   10  H   UNL     1      39.947 -16.092   4.879  1.00  0.00     0.161 HD
ENDROOT
BRANCH   7  11
HETATM   11  C   UNL     1      39.955 -14.055   2.305  1.00  0.00     0.261 C 
HETATM   12  N   UNL     1      39.699 -12.786   1.823  1.00  0.00    -0.323 N 
HETATM   13  H   UNL     1      40.311 -12.058   2.177  1.00  0.00     0.169 HD
HETATM   14  O   UNL     1      39.268 -15.050   2.107  1.00  0.00    -0.267 OA
BRANCH  12  15
HETATM   15  C   UNL     1      38.689 -12.390   0.923  1.00  0.00     0.037 A 
HETATM   16  C   UNL     1      37.367 -12.133   1.298  1.00  0.00     0.066 A 
HETATM   17  C   UNL     1      36.429 -11.771   0.332  1.00  0.00     0.067 A 
HETATM   18  C   UNL     1      36.781 -11.666  -1.006  1.00  0.00     0.036 A 
HETATM   19  C   UNL     1      38.096 -11.917  -1.389  1.00  0.00     0.005 A 
HETATM   20  C   UNL     1      39.047 -12.274  -0.428  1.00  0.00     0.029 A 
BRANCH  17  21
HETATM   21  O   UNL     1      35.132 -11.510   0.670  1.00  0.00    -0.361 OA
HETATM   22  H   UNL     1      35.090 -10.622   1.065  1.00  0.00     0.217 HD
ENDBRANCH  17  21
ENDBRANCH  12  15
ENDBRANCH   7  11
BRANCH   1  23
HETATM   23  C   UNL     1      42.534 -18.101   4.729  1.00  0.00    -0.035 A 
HETATM   24  C   UNL     1      42.445 -18.291   3.342  1.00  0.00     0.012 A 
HETATM   25  C   UNL     1      43.287 -19.192   2.683  1.00  0.00     0.037 A 
HETATM   26  C   UNL     1      44.241 -19.921   3.391  1.00  0.00     0.068 A 
HETATM   27  C   UNL     1      44.302 -19.795   4.776  1.00  0.00     0.037 A 
HETATM   28  C   UNL     1      43.452 -18.900   5.437  1.00  0.00     0.012 A 
BRANCH  26  29
HETATM   29  O   UNL     1      45.031 -20.742   2.637  1.00  0.00    -0.356 OA
HETATM   30  C   UNL     1      44.353 -21.797   1.962  1.00  0.00     0.210 C 
ENDBRANCH  26  29
ENDBRANCH   1  23
BRANCH   8  31
HETATM   31  C   UNL     1      44.112 -14.289   6.572  1.00  0.00     0.409 C 
HETATM   32  F   UNL     1      43.333 -13.200   6.766  1.00  0.00    -0.169 F 
HETATM   33  F   UNL     1      44.275 -14.863   7.797  1.00  0.00    -0.169 F 
HETATM   34  F   UNL     1      45.337 -13.878   6.189  1.00  0.00    -0.169 F 
ENDBRANCH   8  31
TORSDOF 6
ENDMDL
MODEL 5
REMARK VINA RESULT:      -8.6      4.426      7.867
REMARK  6 active torsions:
REMARK  status: ('A' for Active; 'I' for Inactive)
REMARK    1  A    between atoms: O_2  and  C_3 
REMARK    2  A    between atoms: C_6  and  C_7 
REMARK    3  A    between atoms: C_13  and  C_14 
REMARK       I    between atoms: C_14  and  N_15 
REMARK    4  A    between atoms: N_15  and  C_16 
REMARK    5  A    between atoms: C_18  and  O_19 
REMARK    6  A    between atoms: C_24  and  C_25 
ROOT
HETATM    1  C   UNL     1      43.889 -17.038   2.578  1.00  0.00     0.118 C 
HETATM    2  N   UNL     1      43.963 -16.333   3.874  1.00  0.00    -0.365 N 
HETATM    3  C   UNL     1      42.841 -16.249   4.651  1.00  0.00     0.138 A 
HETATM    4  N   UNL     1      41.608 -16.621   4.161  1.00  0.00    -0.240 N 
HETATM    5  N   UNL     1      40.623 -16.542   5.064  1.00  0.00    -0.181 NA
HETATM    6  C   UNL     1      41.226 -16.016   6.133  1.00  0.00     0.160 A 
HETATM    7  C   UNL     1      42.615 -15.809   5.943  1.00  0.00     0.096 A 
HETATM    8  C   UNL     1      41.366 -17.067   2.800  1.00  0.00     0.221 C 
HETATM    9  C   UNL     1      42.558 -16.666   1.907  1.00  0.00     0.066 C 
HETATM   10  H   UNL     1      44.558 -15.501   3.822  1.00  0.00     0.161 HD
ENDROOT
BRANCH   7  11
HETATM   11  C   UNL     1      43.536 -15.271   6.933  1.00  0.00     0.261 C 
HETATM   12  N   UNL     1      44.000 -14.005   6.635  1.00  0.00    -0.323 N 
HETATM   13  H   UNL     1      43.734 -13.651   5.722  1.00  0.00     0.169 HD
HETATM   14  O   UNL     1      43.838 -15.933   7.919  1.00  0.00    -0.267 OA
BRANCH  12  15
HETATM   15  C   UNL     1      44.804 -13.168   7.435  1.00  0.00     0.037 A 
HETATM   16  C   UNL     1      46.147 -12.886   7.166  1.00  0.00     0.066 A 
HETATM   17  C   UNL     1      46.871 -12.066   8.031  1.00  0.00     0.067 A 
HETATM   18  C   UNL     1      46.285 -11.524   9.165  1.00  0.00     0.036 A 
HETATM   19  C   UNL     1      44.948 -11.796   9.440  1.00  0.00     0.005 A 
HETATM   20  C   UNL     1      44.209 -12.611   8.577  1.00  0.00     0.029 A 
BRANCH  17  21
HETATM   21  O   UNL     1      48.183 -11.771   7.791  1.00  0.00    -0.361 OA
HETATM   22  H   UNL     1      48.607 -11.548   8.636  1.00  0.00     0.217 HD
ENDBRANCH  17  21
ENDBRANCH  12  15
ENDBRANCH   7  11
BRANCH   1  23
HETATM   23  C   UNL     1      44.085 -18.548   2.707  1.00  0.00    -0.035 A 
HETATM   24  C   UNL     1      44.685 -19.146   3.826  1.00  0.00     0.012 A 
HETATM   25  C   UNL     1      44.783 -20.536   3.935  1.00  0.00     0.037 A 
HETATM   26  C   UNL     1      44.281 -21.364   2.933  1.00  0.00     0.068 A 
HETATM   27  C   UNL     1      43.741 -20.791   1.785  1.00  0.00     0.037 A 
HETATM   28  C   UNL     1      43.652 -19.398   1.672  1.00  0.00     0.012 A 
BRANCH  26  29
HETATM   29  O   UNL     1      44.401 -22.706   3.164  1.00  0.00    -0.356 OA
HETATM   30  C   UNL     1      44.757 -23.070   4.494  1.00  0.00     0.210 C 
ENDBRANCH  26  29
ENDBRANCH   1  23
BRANCH   8  31
HETATM   31  C   UNL     1      40.094 -16.487   2.221  1.00  0.00     0.409 C 
HETATM   32  F   UNL     1      39.764 -15.302   2.782  1.00  0.00    -0.169 F 
HETATM   33  F   UNL     1      40.278 -16.240   0.893  1.00  0.00    -0.169 F 
HETATM   34  F   UNL     1      39.031 -17.311   2.301  1.00  0.00    -0.169 F 
ENDBRANCH   8  31
TORSDOF 6
ENDMDL
MODEL 6
REMARK VINA RESULT:      -8.0      3.916      8.188
REMARK  6 active torsions:
REMARK  status: ('A' for Active; 'I' for Inactive)
REMARK    1  A    between atoms: O_2  and  C_3 
REMARK    2  A    between atoms: C_6  and  C_7 
REMARK    3  A    between atoms: C_13  and  C_14 
REMARK       I    between atoms: C_14  and  N_15 
REMARK    4  A    between atoms: N_15  and  C_16 
REMARK    5  A    between atoms: C_18  and  O_19 
REMARK    6  A    between atoms: C_24  and  C_25 
ROOT
HETATM    1  C   UNL     1      38.255 -14.152   1.731  1.00  0.00     0.118 C 
HETATM    2  N   UNL     1      39.151 -15.309   1.929  1.00  0.00    -0.365 N 
HETATM    3  C   UNL     1      40.193 -15.499   1.063  1.00  0.00     0.138 A 
HETATM    4  N   UNL     1      40.296 -14.762  -0.097  1.00  0.00    -0.240 N 
HETATM    5  N   UNL     1      41.405 -15.021  -0.802  1.00  0.00    -0.181 NA
HETATM    6  C   UNL     1      41.979 -16.016  -0.122  1.00  0.00     0.160 A 
HETATM    7  C   UNL     1      41.274 -16.363   1.057  1.00  0.00     0.096 A 
HETATM    8  C   UNL     1      39.316 -13.787  -0.540  1.00  0.00     0.221 C 
HETATM    9  C   UNL     1      37.994 -14.002   0.224  1.00  0.00     0.066 C 
HETATM   10  H   UNL     1      38.639 -16.141   2.231  1.00  0.00     0.161 HD
ENDROOT
BRANCH   7  11
HETATM   11  C   UNL     1      41.666 -17.391   2.009  1.00  0.00     0.261 C 
HETATM   12  N   UNL     1      42.749 -18.147   1.602  1.00  0.00    -0.323 N 
HETATM   13  H   UNL     1      43.067 -17.970   0.656  1.00  0.00     0.169 HD
HETATM   14  O   UNL     1      41.049 -17.529   3.059  1.00  0.00    -0.267 OA
BRANCH  12  15
HETATM   15  C   UNL     1      43.440 -19.132   2.335  1.00  0.00     0.037 A 
HETATM   16  C   UNL     1      43.656 -20.436   1.879  1.00  0.00     0.066 A 
HETATM   17  C   UNL     1      44.330 -21.352   2.686  1.00  0.00     0.067 A 
HETATM   18  C   UNL     1      44.788 -20.996   3.947  1.00  0.00     0.036 A 
HETATM   19  C   UNL     1      44.580 -19.700   4.409  1.00  0.00     0.005 A 
HETATM   20  C   UNL     1      43.912 -18.771   3.606  1.00  0.00     0.029 A 
BRANCH  17  21
HETATM   21  O   UNL     1      44.558 -22.631   2.265  1.00  0.00    -0.361 OA
HETATM   22  H   UNL     1      43.709 -23.104   2.244  1.00  0.00     0.217 HD
ENDBRANCH  17  21
ENDBRANCH  12  15
ENDBRANCH   7  11
BRANCH   1  23
HETATM   23  C   UNL     1      38.783 -12.869   2.370  1.00  0.00    -0.035 A 
HETATM   24  C   UNL     1      39.896 -12.846   3.224  1.00  0.00     0.012 A 
HETATM   25  C   UNL     1      40.389 -11.641   3.734  1.00  0.00     0.037 A 
HETATM   26  C   UNL     1      39.787 -10.429   3.400  1.00  0.00     0.068 A 
HETATM   27  C   UNL     1      38.644 -10.435   2.606  1.00  0.00     0.037 A 
HETATM   28  C   UNL     1      38.144 -11.643   2.104  1.00  0.00     0.012 A 
BRANCH  26  29
HETATM   29  O   UNL     1      40.377  -9.315   3.927  1.00  0.00    -0.356 OA
HETATM   30  C   UNL     1      41.302  -9.551   4.983  1.00  0.00     0.210 C 
ENDBRANCH  26  29
ENDBRANCH   1  23
BRANCH   8  31
HETATM   31  C   UNL     1      39.050 -13.871  -2.028  1.00  0.00     0.409 C 
HETATM   32  F   UNL     1      39.024 -15.147  -2.477  1.00  0.00    -0.169 F 
HETATM   33  F   UNL     1      37.819 -13.350  -2.294  1.00  0.00    -0.169 F 
HETATM   34  F   UNL     1      39.920 -13.169  -2.780  1.00  0.00    -0.169 F 
ENDBRANCH   8  31
TORSDOF 6
ENDMDL
MODEL 7
REMARK VINA RESULT:      -8.0      1.324      1.642
REMARK  6 active torsions:
REMARK  status: ('A' for Active; 'I' for Inactive)
REMARK    1  A    between atoms: O_2  and  C_3 
REMARK    2  A    between atoms: C_6  and  C_7 
REMARK    3  A    between atoms: C_13  and  C_14 
REMARK       I    between atoms: C_14  and  N_15 
REMARK    4  A    between atoms: N_15  and  C_16 
REMARK    5  A    between atoms: C_18  and  O_19 
REMARK    6  A    between atoms: C_24  and  C_25 
ROOT
HETATM    1  C   UNL     1      40.629 -16.621   3.175  1.00  0.00     0.118 C 
HETATM    2  N   UNL     1      40.370 -15.890   1.918  1.00  0.00    -0.365 N 
HETATM    3  C   UNL     1      41.126 -14.791   1.620  1.00  0.00     0.138 A 
HETATM    4  N   UNL     1      41.973 -14.236   2.555  1.00  0.00    -0.240 N 
HETATM    5  N   UNL     1      42.691 -13.207   2.087  1.00  0.00    -0.181 NA
HETATM    6  C   UNL     1      42.224 -13.040   0.848  1.00  0.00     0.160 A 
HETATM    7  C   UNL     1      41.243 -13.999   0.490  1.00  0.00     0.096 A 
HETATM    8  C   UNL     1      42.102 -14.701   3.924  1.00  0.00     0.221 C 
HETATM    9  C   UNL     1      40.893 -15.589   4.283  1.00  0.00     0.066 C 
HETATM   10  H   UNL     1      39.370 -15.839   1.705  1.00  0.00     0.161 HD
ENDROOT
BRANCH   7  11
HETATM   11  C   UNL     1      40.569 -14.085  -0.796  1.00  0.00     0.261 C 
HETATM   12  N   UNL     1      39.261 -13.641  -0.773  1.00  0.00    -0.323 N 
HETATM   13  H   UNL     1      38.898 -13.415   0.146  1.00  0.00     0.169 HD
HETATM   14  O   UNL     1      41.160 -14.524  -1.776  1.00  0.00    -0.267 OA
BRANCH  12  15
HETATM   15  C   UNL     1      38.381 -13.485  -1.863  1.00  0.00     0.037 A 
HETATM   16  C   UNL     1      38.211 -14.439  -2.871  1.00  0.00     0.066 A 
HETATM   17  C   UNL     1      37.336 -14.185  -3.927  1.00  0.00     0.067 A 
HETATM   18  C   UNL     1      36.629 -12.994  -4.003  1.00  0.00     0.036 A 
HETATM   19  C   UNL     1      36.790 -12.039  -3.003  1.00  0.00     0.005 A 
HETATM   20  C   UNL     1      37.660 -12.284  -1.936  1.00  0.00     0.029 A 
BRANCH  17  21
HETATM   21  O   UNL     1      37.146 -15.101  -4.922  1.00  0.00    -0.361 OA
HETATM   22  H   UNL     1      37.890 -15.727  -4.910  1.00  0.00     0.217 HD
ENDBRANCH  17  21
ENDBRANCH  12  15
ENDBRANCH   7  11
BRANCH   1  23
HETATM   23  C   UNL     1      41.750 -17.651   3.048  1.00  0.00    -0.035 A 
HETATM   24  C   UNL     1      42.181 -18.159   1.813  1.00  0.00     0.012 A 
HETATM   25  C   UNL     1      43.256 -19.050   1.736  1.00  0.00     0.037 A 
HETATM   26  C   UNL     1      43.930 -19.452   2.888  1.00  0.00     0.068 A 
HETATM   27  C   UNL     1      43.477 -19.010   4.128  1.00  0.00     0.037 A 
HETATM   28  C   UNL     1      42.394 -18.127   4.206  1.00  0.00     0.012 A 
BRANCH  26  29
HETATM   29  O   UNL     1      44.986 -20.295   2.687  1.00  0.00    -0.356 OA
HETATM   30  C   UNL     1      44.650 -21.605   2.239  1.00  0.00     0.210 C 
ENDBRANCH  26  29
ENDBRANCH   1  23
BRANCH   8  31
HETATM   31  C   UNL     1      42.193 -13.561   4.915  1.00  0.00     0.409 C 
HETATM   32  F   UNL     1      43.463 -13.130   5.092  1.00  0.00    -0.169 F 
HETATM   33  F   UNL     1      41.493 -12.494   4.436  1.00  0.00    -0.169 F 
HETATM   34  F   UNL     1      41.663 -13.841   6.121  1.00  0.00    -0.169 F 
ENDBRANCH   8  31
TORSDOF 6
ENDMDL
MODEL 8
REMARK VINA RESULT:      -8.0      2.998      8.390
REMARK  6 active torsions:
REMARK  status: ('A' for Active; 'I' for Inactive)
REMARK    1  A    between atoms: O_2  and  C_3 
REMARK    2  A    between atoms: C_6  and  C_7 
REMARK    3  A    between atoms: C_13  and  C_14 
REMARK       I    between atoms: C_14  and  N_15 
REMARK    4  A    between atoms: N_15  and  C_16 
REMARK    5  A    between atoms: C_18  and  O_19 
REMARK    6  A    between atoms: C_24  and  C_25 
ROOT
HETATM    1  C   UNL     1      41.354 -14.397  -3.222  1.00  0.00     0.118 C 
HETATM    2  N   UNL     1      41.707 -15.148  -2.001  1.00  0.00    -0.365 N 
HETATM    3  C   UNL     1      41.711 -14.499  -0.798  1.00  0.00     0.138 A 
HETATM    4  N   UNL     1      41.597 -13.127  -0.730  1.00  0.00    -0.240 N 
HETATM    5  N   UNL     1      41.550 -12.651   0.521  1.00  0.00    -0.181 NA
HETATM    6  C   UNL     1      41.733 -13.739   1.272  1.00  0.00     0.160 A 
HETATM    7  C   UNL     1      41.839 -14.930   0.511  1.00  0.00     0.096 A 
HETATM    8  C   UNL     1      41.527 -12.252  -1.886  1.00  0.00     0.221 C 
HETATM    9  C   UNL     1      42.013 -13.011  -3.138  1.00  0.00     0.066 C 
HETATM   10  H   UNL     1      42.462 -15.819  -2.170  1.00  0.00     0.161 HD
ENDROOT
BRANCH   7  11
HETATM   11  C   UNL     1      42.020 -16.269   1.051  1.00  0.00     0.261 C 
HETATM   12  N   UNL     1      43.137 -16.402   1.853  1.00  0.00    -0.323 N 
HETATM   13  H   UNL     1      43.748 -15.593   1.880  1.00  0.00     0.169 HD
HETATM   14  O   UNL     1      41.222 -17.158   0.780  1.00  0.00    -0.267 OA
BRANCH  12  15
HETATM   15  C   UNL     1      43.528 -17.524   2.612  1.00  0.00     0.037 A 
HETATM   16  C   UNL     1      43.947 -18.735   2.054  1.00  0.00     0.066 A 
HETATM   17  C   UNL     1      44.290 -19.801   2.886  1.00  0.00     0.067 A 
HETATM   18  C   UNL     1      44.218 -19.686   4.266  1.00  0.00     0.036 A 
HETATM   19  C   UNL     1      43.805 -18.482   4.831  1.00  0.00     0.005 A 
HETATM   20  C   UNL     1      43.465 -17.405   4.008  1.00  0.00     0.029 A 
BRANCH  17  21
HETATM   21  O   UNL     1      44.707 -20.994   2.369  1.00  0.00    -0.361 OA
HETATM   22  H   UNL     1      45.566 -20.858   1.934  1.00  0.00     0.217 HD
ENDBRANCH  17  21
ENDBRANCH  12  15
ENDBRANCH   7  11
BRANCH   1  23
HETATM   23  C   UNL     1      39.847 -14.322  -3.464  1.00  0.00    -0.035 A 
HETATM   24  C   UNL     1      39.134 -13.113  -3.456  1.00  0.00     0.012 A 
HETATM   25  C   UNL     1      37.767 -13.081  -3.749  1.00  0.00     0.037 A 
HETATM   26  C   UNL     1      37.080 -14.252  -4.062  1.00  0.00     0.068 A 
HETATM   27  C   UNL     1      37.754 -15.469  -4.012  1.00  0.00     0.037 A 
HETATM   28  C   UNL     1      39.121 -15.503  -3.708  1.00  0.00     0.012 A 
BRANCH  26  29
HETATM   29  O   UNL     1      35.757 -14.094  -4.366  1.00  0.00    -0.356 OA
HETATM   30  C   UNL     1      35.479 -13.685  -5.701  1.00  0.00     0.210 C 
ENDBRANCH  26  29
ENDBRANCH   1  23
BRANCH   8  31
HETATM   31  C   UNL     1      42.357 -10.998  -1.712  1.00  0.00     0.409 C 
HETATM   32  F   UNL     1      42.631 -10.392  -2.890  1.00  0.00    -0.169 F 
HETATM   33  F   UNL     1      41.655 -10.093  -0.974  1.00  0.00    -0.169 F 
HETATM   34  F   UNL     1      43.515 -11.196  -1.052  1.00  0.00    -0.169 F 
ENDBRANCH   8  31
TORSDOF 6
ENDMDL
MODEL 9
REMARK VINA RESULT:      -7.9      4.199      8.044
REMARK  6 active torsions:
REMARK  status: ('A' for Active; 'I' for Inactive)
REMARK    1  A    between atoms: O_2  and  C_3 
REMARK    2  A    between atoms: C_6  and  C_7 
REMARK    3  A    between atoms: C_13  and  C_14 
REMARK       I    between atoms: C_14  and  N_15 
REMARK    4  A    between atoms: N_15  and  C_16 
REMARK    5  A    between atoms: C_18  and  O_19 
REMARK    6  A    between atoms: C_24  and  C_25 
ROOT
HETATM    1  C   UNL     1      43.426 -15.090   3.088  1.00  0.00     0.118 C 
HETATM    2  N   UNL     1      43.183 -14.012   4.068  1.00  0.00    -0.365 N 
HETATM    3  C   UNL     1      41.907 -13.779   4.498  1.00  0.00     0.138 A 
HETATM    4  N   UNL     1      40.829 -14.383   3.886  1.00  0.00    -0.240 N 
HETATM    5  N   UNL     1      39.655 -14.104   4.466  1.00  0.00    -0.181 NA
HETATM    6  C   UNL     1      39.980 -13.225   5.417  1.00  0.00     0.160 A 
HETATM    7  C   UNL     1      41.373 -12.978   5.493  1.00  0.00     0.096 A 
HETATM    8  C   UNL     1      40.924 -15.249   2.725  1.00  0.00     0.221 C 
HETATM    9  C   UNL     1      42.296 -15.053   2.047  1.00  0.00     0.066 C 
HETATM   10  H   UNL     1      43.771 -13.194   3.888  1.00  0.00     0.161 HD
ENDROOT
BRANCH   7  11
HETATM   11  C   UNL     1      42.027 -12.087   6.439  1.00  0.00     0.261 C 
HETATM   12  N   UNL     1      42.913 -12.724   7.286  1.00  0.00    -0.323 N 
HETATM   13  H   UNL     1      42.920 -13.737   7.222  1.00  0.00     0.169 HD
HETATM   14  O   UNL     1      41.770 -10.889   6.439  1.00  0.00    -0.267 OA
BRANCH  12  15
HETATM   15  C   UNL     1      43.783 -12.138   8.228  1.00  0.00     0.037 A 
HETATM   16  C   UNL     1      43.370 -11.244   9.220  1.00  0.00     0.066 A 
HETATM   17  C   UNL     1      44.309 -10.693  10.093  1.00  0.00     0.067 A 
HETATM   18  C   UNL     1      45.655 -11.011   9.992  1.00  0.00     0.036 A 
HETATM   19  C   UNL     1      46.076 -11.902   9.009  1.00  0.00     0.005 A 
HETATM   20  C   UNL     1      45.144 -12.466   8.133  1.00  0.00     0.029 A 
BRANCH  17  21
HETATM   21  O   UNL     1      43.933  -9.821  11.074  1.00  0.00    -0.361 OA
HETATM   22  H   UNL     1      44.734  -9.507  11.529  1.00  0.00     0.217 HD
ENDBRANCH  17  21
ENDBRANCH  12  15
ENDBRANCH   7  11
BRANCH   1  23
HETATM   23  C   UNL     1      43.587 -16.464   3.737  1.00  0.00    -0.035 A 
HETATM   24  C   UNL     1      43.831 -17.632   2.997  1.00  0.00     0.012 A 
HETATM   25  C   UNL     1      44.040 -18.858   3.635  1.00  0.00     0.037 A 
HETATM   26  C   UNL     1      44.017 -18.949   5.026  1.00  0.00     0.068 A 
HETATM   27  C   UNL     1      43.714 -17.815   5.775  1.00  0.00     0.037 A 
HETATM   28  C   UNL     1      43.494 -16.589   5.136  1.00  0.00     0.012 A 
BRANCH  26  29
HETATM   29  O   UNL     1      44.271 -20.190   5.538  1.00  0.00    -0.356 OA
HETATM   30  C   UNL     1      44.859 -21.119   4.633  1.00  0.00     0.210 C 
ENDBRANCH  26  29
ENDBRANCH   1  23
BRANCH   8  31
HETATM   31  C   UNL     1      39.828 -14.981   1.715  1.00  0.00     0.409 C 
HETATM   32  F   UNL     1      39.507 -13.670   1.636  1.00  0.00    -0.169 F 
HETATM   33  F   UNL     1      40.265 -15.341   0.474  1.00  0.00    -0.169 F 
HETATM   34  F   UNL     1      38.702 -15.688   1.931  1.00  0.00    -0.169 F 
ENDBRANCH   8  31
TORSDOF 6
ENDMDL
MODEL 10
REMARK VINA RESULT:      -7.8      5.066      8.885
REMARK  6 active torsions:
REMARK  status: ('A' for Active; 'I' for Inactive)
REMARK    1  A    between atoms: O_2  and  C_3 
REMARK    2  A    between atoms: C_6  and  C_7 
REMARK    3  A    between atoms: C_13  and  C_14 
REMARK       I    between atoms: C_14  and  N_15 
REMARK    4  A    between atoms: N_15  and  C_16 
REMARK    5  A    between atoms: C_18  and  O_19 
REMARK    6  A    between atoms: C_24  and  C_25 
ROOT
HETATM    1  C   UNL     1      43.545 -14.316   4.732  1.00  0.00     0.118 C 
HETATM    2  N   UNL     1      43.166 -13.117   5.508  1.00  0.00    -0.365 N 
HETATM    3  C   UNL     1      41.842 -12.804   5.644  1.00  0.00     0.138 A 
HETATM    4  N   UNL     1      40.878 -13.457   4.906  1.00  0.00    -0.240 N 
HETATM    5  N   UNL     1      39.627 -13.081   5.202  1.00  0.00    -0.181 NA
HETATM    6  C   UNL     1      39.801 -12.097   6.087  1.00  0.00     0.160 A 
HETATM    7  C   UNL     1      41.163 -11.872   6.409  1.00  0.00     0.096 A 
HETATM    8  C   UNL     1      41.158 -14.464   3.899  1.00  0.00     0.221 C 
HETATM    9  C   UNL     1      42.643 -14.386   3.490  1.00  0.00     0.066 C 
HETATM   10  H   UNL     1      43.815 -12.341   5.353  1.00  0.00     0.161 HD
ENDROOT
BRANCH   7  11
HETATM   11  C   UNL     1      41.660 -10.884   7.354  1.00  0.00     0.261 C 
HETATM   12  N   UNL     1      41.671 -11.319   8.665  1.00  0.00    -0.323 N 
HETATM   13  H   UNL     1      41.235 -12.221   8.825  1.00  0.00     0.169 HD
HETATM   14  O   UNL     1      42.018  -9.779   6.962  1.00  0.00    -0.267 OA
BRANCH  12  15
HETATM   15  C   UNL     1      42.195 -10.655   9.793  1.00  0.00     0.037 A 
HETATM   16  C   UNL     1      41.632  -9.503  10.351  1.00  0.00     0.066 A 
HETATM   17  C   UNL     1      42.236  -8.899  11.453  1.00  0.00     0.067 A 
HETATM   18  C   UNL     1      43.397  -9.417  12.009  1.00  0.00     0.036 A 
HETATM   19  C   UNL     1      43.964 -10.565  11.461  1.00  0.00     0.005 A 
HETATM   20  C   UNL     1      43.363 -11.183  10.361  1.00  0.00     0.029 A 
BRANCH  17  21
HETATM   21  O   UNL     1      41.706  -7.776  12.021  1.00  0.00    -0.361 OA
HETATM   22  H   UNL     1      40.900  -7.536  11.534  1.00  0.00     0.217 HD
ENDBRANCH  17  21
ENDBRANCH  12  15
ENDBRANCH   7  11
BRANCH   1  23
HETATM   23  C   UNL     1      43.513 -15.599   5.560  1.00  0.00    -0.035 A 
HETATM   24  C   UNL     1      43.500 -16.878   4.981  1.00  0.00     0.012 A 
HETATM   25  C   UNL     1      43.539 -18.028   5.775  1.00  0.00     0.037 A 
HETATM   26  C   UNL     1      43.597 -17.932   7.164  1.00  0.00     0.068 A 
HETATM   27  C   UNL     1      43.546 -16.675   7.760  1.00  0.00     0.037 A 
HETATM   28  C   UNL     1      43.496 -15.523   6.966  1.00  0.00     0.012 A 
BRANCH  26  29
HETATM   29  O   UNL     1      43.669 -19.120   7.834  1.00  0.00    -0.356 OA
HETATM   30  C   UNL     1      43.634 -20.288   7.018  1.00  0.00     0.210 C 
ENDBRANCH  26  29
ENDBRANCH   1  23
BRANCH   8  31
HETATM   31  C   UNL     1      40.294 -14.302   2.666  1.00  0.00     0.409 C 
HETATM   32  F   UNL     1      40.111 -13.005   2.330  1.00  0.00    -0.169 F 
HETATM   33  F   UNL     1      40.916 -14.886   1.603  1.00  0.00    -0.169 F 
HETATM   34  F   UNL     1      39.088 -14.896   2.762  1.00  0.00    -0.169 F 
ENDBRANCH   8  31
TORSDOF 6
ENDMDL
