MODEL 1
REMARK VINA RESULT:      -9.9      0.000      0.000
REMARK  6 active torsions:
REMARK  status: ('A' for Active; 'I' for Inactive)
REMARK    1  A    between atoms: C_2  and  O_3 
REMARK    2  A    between atoms: O_3  and  C_4 
REMARK    3  A    between atoms: C_5  and  C_6 
REMARK    4  A    between atoms: N_7  and  N_8 
REMARK       I    between atoms: N_8  and  C_9 
REMARK    5  A    between atoms: C_9  and  C_10 
REMARK    6  A    between atoms: C_14  and  C_15 
ROOT
HETATM    1  C   UNL     1      44.381 -14.286   7.240  1.00  0.00     0.121 A 
HETATM    2  N   UNL     1      43.078 -14.398   6.840  1.00  0.00    -0.272 N 
HETATM    3  H   UNL     1      42.316 -13.765   7.068  1.00  0.00     0.189 HD
HETATM    4  N   UNL     1      42.821 -15.483   6.094  1.00  0.00    -0.174 NA
HETATM    5  C   UNL     1      43.998 -16.121   6.011  1.00  0.00     0.090 A 
HETATM    6  C   UNL     1      45.014 -15.369   6.662  1.00  0.00     0.071 A 
ENDROOT
BRANCH   1   7
HETATM    7  C   UNL     1      44.816 -13.215   8.108  1.00  0.00     0.289 C 
HETATM    8  N   UNL     1      43.956 -12.974   9.171  1.00  0.00    -0.242 N 
HETATM    9  H   UNL     1      43.145 -13.571   9.272  1.00  0.00     0.192 HD
HETATM   10  O   UNL     1      45.843 -12.598   7.856  1.00  0.00    -0.264 OA
BRANCH   8  11
HETATM   11  N   UNL     1      43.945 -11.939  10.069  1.00  0.00    -0.183 NA
HETATM   12  C   UNL     1      42.870 -11.255  10.300  1.00  0.00     0.153 C 
BRANCH  12  13
HETATM   13  C   UNL     1      42.865 -10.175  11.322  1.00  0.00     0.016 A 
HETATM   14  C   UNL     1      42.142  -8.989  11.104  1.00  0.00     0.080 A 
HETATM   15  C   UNL     1      42.137  -8.009  12.103  1.00  0.00     0.037 A 
HETATM   16  C   UNL     1      42.844  -8.203  13.295  1.00  0.00     0.003 A 
HETATM   17  C   UNL     1      43.564  -9.376  13.501  1.00  0.00     0.001 A 
HETATM   18  C   UNL     1      43.575 -10.362  12.518  1.00  0.00     0.016 A 
BRANCH  14  19
HETATM   19  O   UNL     1      41.476  -8.879   9.912  1.00  0.00    -0.351 OA
BRANCH  19  20
HETATM   20  C   UNL     1      40.573  -7.786   9.748  1.00  0.00     0.171 C 
HETATM   21  C   UNL     1      40.713  -7.277   8.325  1.00  0.00     0.034 C 
ENDBRANCH  19  20
ENDBRANCH  14  19
ENDBRANCH  12  13
ENDBRANCH   8  11
ENDBRANCH   1   7
BRANCH   5  22
HETATM   22  C   UNL     1      44.140 -17.393   5.301  1.00  0.00     0.005 A 
HETATM   23  C   UNL     1      43.877 -17.514   3.903  1.00  0.00    -0.012 A 
HETATM   24  C   UNL     1      43.988 -18.781   3.383  1.00  0.00    -0.012 A 
HETATM   25  C   UNL     1      43.538 -16.511   2.955  1.00  0.00     0.013 A 
HETATM   26  C   UNL     1      43.761 -19.104   2.057  1.00  0.00    -0.046 A 
HETATM   27  C   UNL     1      44.357 -19.895   4.113  1.00  0.00    -0.046 A 
HETATM   28  C   UNL     1      43.402 -18.141   1.127  1.00  0.00     0.008 A 
HETATM   29  C   UNL     1      43.973 -20.561   1.835  1.00  0.00     0.044 A 
HETATM   30  C   UNL     1      43.300 -16.827   1.602  1.00  0.00     0.001 A 
HETATM   31  C   UNL     1      44.394 -21.100   3.237  1.00  0.00     0.044 A 
HETATM   32  C   UNL     1      44.652 -19.808   5.464  1.00  0.00     0.009 A 
HETATM   33  C   UNL     1      44.534 -18.535   6.044  1.00  0.00     0.015 A 
ENDBRANCH   5  22
TORSDOF 6
ENDMDL
MODEL 2
REMARK VINA RESULT:      -9.9      0.908      2.208
REMARK  6 active torsions:
REMARK  status: ('A' for Active; 'I' for Inactive)
REMARK    1  A    between atoms: C_2  and  O_3 
REMARK    2  A    between atoms: O_3  and  C_4 
REMARK    3  A    between atoms: C_5  and  C_6 
REMARK    4  A    between atoms: N_7  and  N_8 
REMARK       I    between atoms: N_8  and  C_9 
REMARK    5  A    between atoms: C_9  and  C_10 
REMARK    6  A    between atoms: C_14  and  C_15 
ROOT
HETATM    1  C   UNL     1      44.063 -13.576   7.221  1.00  0.00     0.121 A 
HETATM    2  N   UNL     1      42.871 -13.278   6.620  1.00  0.00    -0.272 N 
HETATM    3  H   UNL     1      42.225 -12.540   6.886  1.00  0.00     0.189 HD
HETATM    4  N   UNL     1      42.552 -14.084   5.596  1.00  0.00    -0.174 NA
HETATM    5  C   UNL     1      43.567 -14.959   5.527  1.00  0.00     0.090 A 
HETATM    6  C   UNL     1      44.564 -14.634   6.488  1.00  0.00     0.071 A 
ENDROOT
BRANCH   1   7
HETATM    7  C   UNL     1      44.525 -12.853   8.384  1.00  0.00     0.289 C 
HETATM    8  N   UNL     1      43.508 -12.229   9.094  1.00  0.00    -0.242 N 
HETATM    9  H   UNL     1      42.556 -12.360   8.776  1.00  0.00     0.192 HD
HETATM   10  O   UNL     1      45.720 -12.809   8.646  1.00  0.00    -0.264 OA
BRANCH   8  11
HETATM   11  N   UNL     1      43.586 -11.322  10.117  1.00  0.00    -0.183 NA
HETATM   12  C   UNL     1      42.560 -10.619  10.478  1.00  0.00     0.153 C 
BRANCH  12  13
HETATM   13  C   UNL     1      42.651  -9.684  11.630  1.00  0.00     0.016 A 
HETATM   14  C   UNL     1      42.043  -8.418  11.571  1.00  0.00     0.080 A 
HETATM   15  C   UNL     1      42.124  -7.577  12.688  1.00  0.00     0.037 A 
HETATM   16  C   UNL     1      42.805  -7.988  13.840  1.00  0.00     0.003 A 
HETATM   17  C   UNL     1      43.411  -9.239  13.889  1.00  0.00     0.001 A 
HETATM   18  C   UNL     1      43.334 -10.088  12.787  1.00  0.00     0.016 A 
BRANCH  14  19
HETATM   19  O   UNL     1      41.395  -8.094  10.408  1.00  0.00    -0.351 OA
BRANCH  19  20
HETATM   20  C   UNL     1      40.045  -7.641  10.497  1.00  0.00     0.171 C 
HETATM   21  C   UNL     1      39.146  -8.862  10.549  1.00  0.00     0.034 C 
ENDBRANCH  19  20
ENDBRANCH  14  19
ENDBRANCH  12  13
ENDBRANCH   8  11
ENDBRANCH   1   7
BRANCH   5  22
HETATM   22  C   UNL     1      43.585 -16.047   4.550  1.00  0.00     0.005 A 
HETATM   23  C   UNL     1      43.861 -17.398   4.923  1.00  0.00    -0.012 A 
HETATM   24  C   UNL     1      43.909 -18.304   3.892  1.00  0.00    -0.012 A 
HETATM   25  C   UNL     1      44.073 -17.955   6.213  1.00  0.00     0.013 A 
HETATM   26  C   UNL     1      44.174 -19.652   4.048  1.00  0.00    -0.046 A 
HETATM   27  C   UNL     1      43.681 -17.990   2.566  1.00  0.00    -0.046 A 
HETATM   28  C   UNL     1      44.412 -20.205   5.298  1.00  0.00     0.008 A 
HETATM   29  C   UNL     1      44.145 -20.343   2.730  1.00  0.00     0.044 A 
HETATM   30  C   UNL     1      44.349 -19.326   6.386  1.00  0.00     0.001 A 
HETATM   31  C   UNL     1      43.794 -19.210   1.717  1.00  0.00     0.044 A 
HETATM   32  C   UNL     1      43.377 -16.697   2.171  1.00  0.00     0.009 A 
HETATM   33  C   UNL     1      43.335 -15.731   3.189  1.00  0.00     0.015 A 
ENDBRANCH   5  22
TORSDOF 6
ENDMDL
MODEL 3
REMARK VINA RESULT:      -9.5      6.656      9.337
REMARK  6 active torsions:
REMARK  status: ('A' for Active; 'I' for Inactive)
REMARK    1  A    between atoms: C_2  and  O_3 
REMARK    2  A    between atoms: O_3  and  C_4 
REMARK    3  A    between atoms: C_5  and  C_6 
REMARK    4  A    between atoms: N_7  and  N_8 
REMARK       I    between atoms: N_8  and  C_9 
REMARK    5  A    between atoms: C_9  and  C_10 
REMARK    6  A    between atoms: C_14  and  C_15 
ROOT
HETATM    1  C   UNL     1      42.313 -15.202   2.575  1.00  0.00     0.121 A 
HETATM    2  N   UNL     1      41.178 -15.704   3.150  1.00  0.00    -0.272 N 
HETATM    3  H   UNL     1      40.258 -15.271   3.158  1.00  0.00     0.189 HD
HETATM    4  N   UNL     1      41.349 -16.878   3.778  1.00  0.00    -0.174 NA
HETATM    5  C   UNL     1      42.653 -17.154   3.623  1.00  0.00     0.090 A 
HETATM    6  C   UNL     1      43.277 -16.160   2.821  1.00  0.00     0.071 A 
ENDROOT
BRANCH   1   7
HETATM    7  C   UNL     1      42.321 -13.914   1.920  1.00  0.00     0.289 C 
HETATM    8  N   UNL     1      41.692 -13.912   0.683  1.00  0.00    -0.242 N 
HETATM    9  H   UNL     1      41.258 -14.771   0.368  1.00  0.00     0.192 HD
HETATM   10  O   UNL     1      42.875 -12.958   2.449  1.00  0.00    -0.264 OA
BRANCH   8  11
HETATM   11  N   UNL     1      41.670 -12.943  -0.285  1.00  0.00    -0.183 NA
HETATM   12  C   UNL     1      42.572 -12.892  -1.213  1.00  0.00     0.153 C 
BRANCH  12  13
HETATM   13  C   UNL     1      42.494 -11.869  -2.288  1.00  0.00     0.016 A 
HETATM   14  C   UNL     1      41.962 -12.196  -3.548  1.00  0.00     0.080 A 
HETATM   15  C   UNL     1      41.878 -11.197  -4.525  1.00  0.00     0.037 A 
HETATM   16  C   UNL     1      42.321  -9.897  -4.255  1.00  0.00     0.003 A 
HETATM   17  C   UNL     1      42.853  -9.582  -3.008  1.00  0.00     0.001 A 
HETATM   18  C   UNL     1      42.939 -10.564  -2.025  1.00  0.00     0.016 A 
BRANCH  14  19
HETATM   19  O   UNL     1      41.550 -13.489  -3.730  1.00  0.00    -0.351 OA
BRANCH  19  20
HETATM   20  C   UNL     1      40.157 -13.773  -3.605  1.00  0.00     0.171 C 
HETATM   21  C   UNL     1      40.002 -15.270  -3.416  1.00  0.00     0.034 C 
ENDBRANCH  19  20
ENDBRANCH  14  19
ENDBRANCH  12  13
ENDBRANCH   8  11
ENDBRANCH   1   7
BRANCH   5  22
HETATM   22  C   UNL     1      43.264 -18.350   4.204  1.00  0.00     0.005 A 
HETATM   23  C   UNL     1      43.600 -19.491   3.413  1.00  0.00    -0.012 A 
HETATM   24  C   UNL     1      44.107 -20.566   4.101  1.00  0.00    -0.012 A 
HETATM   25  C   UNL     1      43.510 -19.675   2.007  1.00  0.00     0.013 A 
HETATM   26  C   UNL     1      44.479 -21.763   3.517  1.00  0.00    -0.046 A 
HETATM   27  C   UNL     1      44.328 -20.586   5.465  1.00  0.00    -0.046 A 
HETATM   28  C   UNL     1      44.370 -21.968   2.150  1.00  0.00     0.008 A 
HETATM   29  C   UNL     1      44.989 -22.708   4.548  1.00  0.00     0.044 A 
HETATM   30  C   UNL     1      43.882 -20.891   1.398  1.00  0.00     0.001 A 
HETATM   31  C   UNL     1      44.899 -21.899   5.878  1.00  0.00     0.044 A 
HETATM   32  C   UNL     1      44.045 -19.486   6.259  1.00  0.00     0.009 A 
HETATM   33  C   UNL     1      43.507 -18.368   5.602  1.00  0.00     0.015 A 
ENDBRANCH   5  22
TORSDOF 6
ENDMDL
MODEL 4
REMARK VINA RESULT:      -9.5      2.684      3.914
REMARK  6 active torsions:
REMARK  status: ('A' for Active; 'I' for Inactive)
REMARK    1  A    between atoms: C_2  and  O_3 
REMARK    2  A    between atoms: O_3  and  C_4 
REMARK    3  A    between atoms: C_5  and  C_6 
REMARK    4  A    between atoms: N_7  and  N_8 
REMARK       I    between atoms: N_8  and  C_9 
REMARK    5  A    between atoms: C_9  and  C_10 
REMARK    6  A    between atoms: C_14  and  C_15 
ROOT
HETATM    1  C   UNL     1      40.723 -13.411   5.813  1.00  0.00     0.121 A 
HETATM    2  N   UNL     1      41.986 -13.036   5.446  1.00  0.00    -0.272 N 
HETATM    3  H   UNL     1      42.422 -12.132   5.607  1.00  0.00     0.189 HD
HETATM    4  N   UNL     1      42.674 -13.982   4.788  1.00  0.00    -0.174 NA
HETATM    5  C   UNL     1      41.824 -15.018   4.704  1.00  0.00     0.090 A 
HETATM    6  C   UNL     1      40.614 -14.721   5.390  1.00  0.00     0.071 A 
ENDROOT
BRANCH   1   7
HETATM    7  C   UNL     1      39.821 -12.489   6.466  1.00  0.00     0.289 C 
HETATM    8  N   UNL     1      40.417 -11.748   7.478  1.00  0.00    -0.242 N 
HETATM    9  H   UNL     1      41.407 -11.879   7.644  1.00  0.00     0.192 HD
HETATM   10  O   UNL     1      38.645 -12.437   6.130  1.00  0.00    -0.264 OA
BRANCH   8  11
HETATM   11  N   UNL     1      39.843 -10.934   8.418  1.00  0.00    -0.183 NA
HETATM   12  C   UNL     1      40.166 -11.012   9.670  1.00  0.00     0.153 C 
BRANCH  12  13
HETATM   13  C   UNL     1      39.576 -10.078  10.664  1.00  0.00     0.016 A 
HETATM   14  C   UNL     1      40.292  -9.719  11.819  1.00  0.00     0.080 A 
HETATM   15  C   UNL     1      39.715  -8.812  12.716  1.00  0.00     0.037 A 
HETATM   16  C   UNL     1      38.446  -8.277  12.471  1.00  0.00     0.003 A 
HETATM   17  C   UNL     1      37.739  -8.642  11.329  1.00  0.00     0.001 A 
HETATM   18  C   UNL     1      38.302  -9.540  10.425  1.00  0.00     0.016 A 
BRANCH  14  19
HETATM   19  O   UNL     1      41.529 -10.285  11.983  1.00  0.00    -0.351 OA
BRANCH  19  20
HETATM   20  C   UNL     1      42.661  -9.419  12.035  1.00  0.00     0.171 C 
HETATM   21  C   UNL     1      43.896 -10.249  11.739  1.00  0.00     0.034 C 
ENDBRANCH  19  20
ENDBRANCH  14  19
ENDBRANCH  12  13
ENDBRANCH   8  11
ENDBRANCH   1   7
BRANCH   5  22
HETATM   22  C   UNL     1      42.182 -16.257   4.013  1.00  0.00     0.005 A 
HETATM   23  C   UNL     1      43.114 -17.189   4.562  1.00  0.00    -0.012 A 
HETATM   24  C   UNL     1      43.405 -18.276   3.775  1.00  0.00    -0.012 A 
HETATM   25  C   UNL     1      43.775 -17.174   5.820  1.00  0.00     0.013 A 
HETATM   26  C   UNL     1      44.290 -19.280   4.124  1.00  0.00    -0.046 A 
HETATM   27  C   UNL     1      42.837 -18.519   2.538  1.00  0.00    -0.046 A 
HETATM   28  C   UNL     1      44.963 -19.264   5.336  1.00  0.00     0.008 A 
HETATM   29  C   UNL     1      44.364 -20.305   3.046  1.00  0.00     0.044 A 
HETATM   30  C   UNL     1      44.682 -18.188   6.187  1.00  0.00     0.001 A 
HETATM   31  C   UNL     1      43.361 -19.792   1.967  1.00  0.00     0.044 A 
HETATM   32  C   UNL     1      41.905 -17.653   1.989  1.00  0.00     0.009 A 
HETATM   33  C   UNL     1      41.590 -16.516   2.750  1.00  0.00     0.015 A 
ENDBRANCH   5  22
TORSDOF 6
ENDMDL
MODEL 5
REMARK VINA RESULT:      -9.1      6.908      9.256
REMARK  6 active torsions:
REMARK  status: ('A' for Active; 'I' for Inactive)
REMARK    1  A    between atoms: C_2  and  O_3 
REMARK    2  A    between atoms: O_3  and  C_4 
REMARK    3  A    between atoms: C_5  and  C_6 
REMARK    4  A    between atoms: N_7  and  N_8 
REMARK       I    between atoms: N_8  and  C_9 
REMARK    5  A    between atoms: C_9  and  C_10 
REMARK    6  A    between atoms: C_14  and  C_15 
ROOT
HETATM    1  C   UNL     1      41.374 -15.935   0.234  1.00  0.00     0.121 A 
HETATM    2  N   UNL     1      40.259 -16.293   0.939  1.00  0.00    -0.272 N 
HETATM    3  H   UNL     1      39.299 -16.035   0.730  1.00  0.00     0.189 HD
HETATM    4  N   UNL     1      40.509 -17.040   2.026  1.00  0.00    -0.174 NA
HETATM    5  C   UNL     1      41.845 -17.168   2.046  1.00  0.00     0.090 A 
HETATM    6  C   UNL     1      42.418 -16.543   0.904  1.00  0.00     0.071 A 
ENDROOT
BRANCH   1   7
HETATM    7  C   UNL     1      41.292 -15.073  -0.923  1.00  0.00     0.289 C 
HETATM    8  N   UNL     1      41.844 -13.814  -0.723  1.00  0.00    -0.242 N 
HETATM    9  H   UNL     1      42.280 -13.623   0.171  1.00  0.00     0.192 HD
HETATM   10  O   UNL     1      40.746 -15.466  -1.947  1.00  0.00    -0.264 OA
BRANCH   8  11
HETATM   11  N   UNL     1      41.781 -12.697  -1.512  1.00  0.00    -0.183 NA
HETATM   12  C   UNL     1      42.687 -11.773  -1.452  1.00  0.00     0.153 C 
BRANCH  12  13
HETATM   13  C   UNL     1      42.631 -10.598  -2.360  1.00  0.00     0.016 A 
HETATM   14  C   UNL     1      42.877  -9.304  -1.868  1.00  0.00     0.080 A 
HETATM   15  C   UNL     1      42.846  -8.226  -2.761  1.00  0.00     0.037 A 
HETATM   16  C   UNL     1      42.568  -8.432  -4.117  1.00  0.00     0.003 A 
HETATM   17  C   UNL     1      42.318  -9.714  -4.596  1.00  0.00     0.001 A 
HETATM   18  C   UNL     1      42.350 -10.797  -3.720  1.00  0.00     0.016 A 
BRANCH  14  19
HETATM   19  O   UNL     1      43.143  -9.189  -0.529  1.00  0.00    -0.351 OA
BRANCH  19  20
HETATM   20  C   UNL     1      42.375  -8.257   0.229  1.00  0.00     0.171 C 
HETATM   21  C   UNL     1      41.089  -8.945   0.647  1.00  0.00     0.034 C 
ENDBRANCH  19  20
ENDBRANCH  14  19
ENDBRANCH  12  13
ENDBRANCH   8  11
ENDBRANCH   1   7
BRANCH   5  22
HETATM   22  C   UNL     1      42.536 -17.892   3.113  1.00  0.00     0.005 A 
HETATM   23  C   UNL     1      43.158 -19.158   2.890  1.00  0.00    -0.012 A 
HETATM   24  C   UNL     1      43.712 -19.754   3.996  1.00  0.00    -0.012 A 
HETATM   25  C   UNL     1      43.310 -19.892   1.682  1.00  0.00     0.013 A 
HETATM   26  C   UNL     1      44.346 -20.983   3.988  1.00  0.00    -0.046 A 
HETATM   27  C   UNL     1      43.725 -19.194   5.260  1.00  0.00    -0.046 A 
HETATM   28  C   UNL     1      44.477 -21.723   2.823  1.00  0.00     0.008 A 
HETATM   29  C   UNL     1      44.833 -21.326   5.352  1.00  0.00     0.044 A 
HETATM   30  C   UNL     1      43.950 -21.147   1.660  1.00  0.00     0.001 A 
HETATM   31  C   UNL     1      44.421 -20.097   6.220  1.00  0.00     0.044 A 
HETATM   32  C   UNL     1      43.161 -17.953   5.506  1.00  0.00     0.009 A 
HETATM   33  C   UNL     1      42.565 -17.313   4.408  1.00  0.00     0.015 A 
ENDBRANCH   5  22
TORSDOF 6
ENDMDL
MODEL 6
REMARK VINA RESULT:      -8.9      2.729     10.673
REMARK  6 active torsions:
REMARK  status: ('A' for Active; 'I' for Inactive)
REMARK    1  A    between atoms: C_2  and  O_3 
REMARK    2  A    between atoms: O_3  and  C_4 
REMARK    3  A    between atoms: C_5  and  C_6 
REMARK    4  A    between atoms: N_7  and  N_8 
REMARK       I    between atoms: N_8  and  C_9 
REMARK    5  A    between atoms: C_9  and  C_10 
REMARK    6  A    between atoms: C_14  and  C_15 
ROOT
HETATM    1  C   UNL     1      41.983 -12.686   5.144  1.00  0.00     0.121 A 
HETATM    2  N   UNL     1      41.584 -11.427   4.788  1.00  0.00    -0.272 N 
HETATM    3  H   UNL     1      41.363 -11.103   3.851  1.00  0.00     0.189 HD
HETATM    4  N   UNL     1      41.516 -10.560   5.809  1.00  0.00    -0.174 NA
HETATM    5  C   UNL     1      41.900 -11.271   6.881  1.00  0.00     0.090 A 
HETATM    6  C   UNL     1      42.139 -12.624   6.515  1.00  0.00     0.071 A 
ENDROOT
BRANCH   1   7
HETATM    7  C   UNL     1      42.178 -13.725   4.158  1.00  0.00     0.289 C 
HETATM    8  N   UNL     1      42.656 -14.916   4.687  1.00  0.00    -0.242 N 
HETATM    9  H   UNL     1      42.788 -14.972   5.689  1.00  0.00     0.192 HD
HETATM   10  O   UNL     1      41.949 -13.501   2.975  1.00  0.00    -0.264 OA
BRANCH   8  11
HETATM   11  N   UNL     1      43.127 -16.030   4.045  1.00  0.00    -0.183 NA
HETATM   12  C   UNL     1      42.862 -17.222   4.477  1.00  0.00     0.153 C 
BRANCH  12  13
HETATM   13  C   UNL     1      43.332 -18.419   3.731  1.00  0.00     0.016 A 
HETATM   14  C   UNL     1      44.254 -19.307   4.314  1.00  0.00     0.080 A 
HETATM   15  C   UNL     1      44.649 -20.439   3.591  1.00  0.00     0.037 A 
HETATM   16  C   UNL     1      44.141 -20.680   2.309  1.00  0.00     0.003 A 
HETATM   17  C   UNL     1      43.235 -19.793   1.736  1.00  0.00     0.001 A 
HETATM   18  C   UNL     1      42.829 -18.664   2.444  1.00  0.00     0.016 A 
BRANCH  14  19
HETATM   19  O   UNL     1      44.700 -19.000   5.572  1.00  0.00    -0.351 OA
BRANCH  19  20
HETATM   20  C   UNL     1      44.141 -19.713   6.674  1.00  0.00     0.171 C 
HETATM   21  C   UNL     1      43.944 -18.729   7.812  1.00  0.00     0.034 C 
ENDBRANCH  19  20
ENDBRANCH  14  19
ENDBRANCH  12  13
ENDBRANCH   8  11
ENDBRANCH   1   7
BRANCH   5  22
HETATM   22  C   UNL     1      42.001 -10.671   8.211  1.00  0.00     0.005 A 
HETATM   23  C   UNL     1      43.095 -10.946   9.087  1.00  0.00    -0.012 A 
HETATM   24  C   UNL     1      43.026 -10.365  10.329  1.00  0.00    -0.012 A 
HETATM   25  C   UNL     1      44.265 -11.720   8.858  1.00  0.00     0.013 A 
HETATM   26  C   UNL     1      43.978 -10.522  11.320  1.00  0.00    -0.046 A 
HETATM   27  C   UNL     1      42.004  -9.533  10.746  1.00  0.00    -0.046 A 
HETATM   28  C   UNL     1      45.111 -11.297  11.121  1.00  0.00     0.008 A 
HETATM   29  C   UNL     1      43.594  -9.753  12.535  1.00  0.00     0.044 A 
HETATM   30  C   UNL     1      45.241 -11.892   9.859  1.00  0.00     0.001 A 
HETATM   31  C   UNL     1      42.252  -9.065  12.139  1.00  0.00     0.044 A 
HETATM   32  C   UNL     1      40.944  -9.216   9.912  1.00  0.00     0.009 A 
HETATM   33  C   UNL     1      40.961  -9.803   8.636  1.00  0.00     0.015 A 
ENDBRANCH   5  22
TORSDOF 6
ENDMDL
MODEL 7
REMARK VINA RESULT:      -8.9      7.374     10.369
REMARK  6 active torsions:
REMARK  status: ('A' for Active; 'I' for Inactive)
REMARK    1  A    between atoms: C_2  and  O_3 
REMARK    2  A    between atoms: O_3  and  C_4 
REMARK    3  A    between atoms: C_5  and  C_6 
REMARK    4  A    between atoms: N_7  and  N_8 
REMARK       I    between atoms: N_8  and  C_9 
REMARK    5  A    between atoms: C_9  and  C_10 
REMARK    6  A    between atoms: C_14  and  C_15 
ROOT
HETATM    1  C   UNL     1      41.388 -16.332   1.035  1.00  0.00     0.121 A 
HETATM    2  N   UNL     1      42.664 -16.216   0.557  1.00  0.00    -0.272 N 
HETATM    3  H   UNL     1      43.019 -15.488  -0.057  1.00  0.00     0.189 HD
HETATM    4  N   UNL     1      43.491 -17.201   0.942  1.00  0.00    -0.174 NA
HETATM    5  C   UNL     1      42.725 -18.007   1.694  1.00  0.00     0.090 A 
HETATM    6  C   UNL     1      41.418 -17.463   1.828  1.00  0.00     0.071 A 
ENDROOT
BRANCH   1   7
HETATM    7  C   UNL     1      40.353 -15.396   0.660  1.00  0.00     0.289 C 
HETATM    8  N   UNL     1      40.393 -15.024  -0.677  1.00  0.00    -0.242 N 
HETATM    9  H   UNL     1      41.093 -15.453  -1.269  1.00  0.00     0.192 HD
HETATM   10  O   UNL     1      39.561 -14.986   1.500  1.00  0.00    -0.264 OA
BRANCH   8  11
HETATM   11  N   UNL     1      39.704 -14.037  -1.330  1.00  0.00    -0.183 NA
HETATM   12  C   UNL     1      39.675 -13.974  -2.623  1.00  0.00     0.153 C 
BRANCH  12  13
HETATM   13  C   UNL     1      38.872 -12.931  -3.312  1.00  0.00     0.016 A 
HETATM   14  C   UNL     1      39.462 -11.713  -3.694  1.00  0.00     0.080 A 
HETATM   15  C   UNL     1      38.680 -10.766  -4.368  1.00  0.00     0.037 A 
HETATM   16  C   UNL     1      37.335 -11.026  -4.652  1.00  0.00     0.003 A 
HETATM   17  C   UNL     1      36.756 -12.231  -4.265  1.00  0.00     0.001 A 
HETATM   18  C   UNL     1      37.521 -13.183  -3.597  1.00  0.00     0.016 A 
BRANCH  14  19
HETATM   19  O   UNL     1      40.784 -11.538  -3.380  1.00  0.00    -0.351 OA
BRANCH  19  20
HETATM   20  C   UNL     1      41.710 -11.368  -4.452  1.00  0.00     0.171 C 
HETATM   21  C   UNL     1      42.490 -10.092  -4.195  1.00  0.00     0.034 C 
ENDBRANCH  19  20
ENDBRANCH  14  19
ENDBRANCH  12  13
ENDBRANCH   8  11
ENDBRANCH   1   7
BRANCH   5  22
HETATM   22  C   UNL     1      43.248 -19.240   2.284  1.00  0.00     0.005 A 
HETATM   23  C   UNL     1      43.582 -19.335   3.669  1.00  0.00    -0.012 A 
HETATM   24  C   UNL     1      44.123 -20.532   4.071  1.00  0.00    -0.012 A 
HETATM   25  C   UNL     1      43.416 -18.380   4.708  1.00  0.00     0.013 A 
HETATM   26  C   UNL     1      44.522 -20.814   5.365  1.00  0.00    -0.046 A 
HETATM   27  C   UNL     1      44.323 -21.617   3.238  1.00  0.00    -0.046 A 
HETATM   28  C   UNL     1      44.393 -19.882   6.383  1.00  0.00     0.008 A 
HETATM   29  C   UNL     1      45.058 -22.200   5.452  1.00  0.00     0.044 A 
HETATM   30  C   UNL     1      43.822 -18.652   6.029  1.00  0.00     0.001 A 
HETATM   31  C   UNL     1      44.910 -22.755   4.002  1.00  0.00     0.044 A 
HETATM   32  C   UNL     1      43.981 -21.571   1.897  1.00  0.00     0.009 A 
HETATM   33  C   UNL     1      43.440 -20.361   1.435  1.00  0.00     0.015 A 
ENDBRANCH   5  22
TORSDOF 6
ENDMDL
MODEL 8
REMARK VINA RESULT:      -8.8      6.332      9.159
REMARK  6 active torsions:
REMARK  status: ('A' for Active; 'I' for Inactive)
REMARK    1  A    between atoms: C_2  and  O_3 
REMARK    2  A    between atoms: O_3  and  C_4 
REMARK    3  A    between atoms: C_5  and  C_6 
REMARK    4  A    between atoms: N_7  and  N_8 
REMARK       I    between atoms: N_8  and  C_9 
REMARK    5  A    between atoms: C_9  and  C_10 
REMARK    6  A    between atoms: C_14  and  C_15 
ROOT
HETATM    1  C   UNL     1      42.490 -14.956   3.025  1.00  0.00     0.121 A 
HETATM    2  N   UNL     1      42.902 -14.653   4.293  1.00  0.00    -0.272 N 
HETATM    3  H   UNL     1      42.904 -13.734   4.728  1.00  0.00     0.189 HD
HETATM    4  N   UNL     1      43.370 -15.702   4.988  1.00  0.00    -0.174 NA
HETATM    5  C   UNL     1      43.275 -16.736   4.139  1.00  0.00     0.090 A 
HETATM    6  C   UNL     1      42.669 -16.322   2.921  1.00  0.00     0.071 A 
ENDROOT
BRANCH   1   7
HETATM    7  C   UNL     1      42.025 -13.933   2.117  1.00  0.00     0.289 C 
HETATM    8  N   UNL     1      40.779 -14.198   1.566  1.00  0.00    -0.242 N 
HETATM    9  H   UNL     1      40.296 -15.037   1.865  1.00  0.00     0.192 HD
HETATM   10  O   UNL     1      42.728 -12.959   1.875  1.00  0.00    -0.264 OA
BRANCH   8  11
HETATM   11  N   UNL     1      40.120 -13.564   0.547  1.00  0.00    -0.183 NA
HETATM   12  C   UNL     1      39.002 -14.018   0.076  1.00  0.00     0.153 C 
BRANCH  12  13
HETATM   13  C   UNL     1      38.274 -13.280  -0.989  1.00  0.00     0.016 A 
HETATM   14  C   UNL     1      38.378 -13.680  -2.333  1.00  0.00     0.080 A 
HETATM   15  C   UNL     1      37.653 -12.978  -3.304  1.00  0.00     0.037 A 
HETATM   16  C   UNL     1      36.844 -11.894  -2.944  1.00  0.00     0.003 A 
HETATM   17  C   UNL     1      36.752 -11.499  -1.613  1.00  0.00     0.001 A 
HETATM   18  C   UNL     1      37.464 -12.190  -0.636  1.00  0.00     0.016 A 
BRANCH  14  19
HETATM   19  O   UNL     1      39.189 -14.751  -2.601  1.00  0.00    -0.351 OA
BRANCH  19  20
HETATM   20  C   UNL     1      40.141 -14.624  -3.656  1.00  0.00     0.171 C 
HETATM   21  C   UNL     1      41.314 -13.818  -3.130  1.00  0.00     0.034 C 
ENDBRANCH  19  20
ENDBRANCH  14  19
ENDBRANCH  12  13
ENDBRANCH   8  11
ENDBRANCH   1   7
BRANCH   5  22
HETATM   22  C   UNL     1      43.726 -18.080   4.504  1.00  0.00     0.005 A 
HETATM   23  C   UNL     1      43.815 -19.136   3.548  1.00  0.00    -0.012 A 
HETATM   24  C   UNL     1      44.190 -20.360   4.044  1.00  0.00    -0.012 A 
HETATM   25  C   UNL     1      43.594 -19.107   2.144  1.00  0.00     0.013 A 
HETATM   26  C   UNL     1      44.320 -21.507   3.281  1.00  0.00    -0.046 A 
HETATM   27  C   UNL     1      44.504 -20.603   5.368  1.00  0.00    -0.046 A 
HETATM   28  C   UNL     1      44.080 -21.501   1.916  1.00  0.00     0.008 A 
HETATM   29  C   UNL     1      44.745 -22.652   4.133  1.00  0.00     0.044 A 
HETATM   30  C   UNL     1      43.718 -20.268   1.355  1.00  0.00     0.001 A 
HETATM   31  C   UNL     1      44.884 -22.032   5.557  1.00  0.00     0.044 A 
HETATM   32  C   UNL     1      44.461 -19.595   6.317  1.00  0.00     0.009 A 
HETATM   33  C   UNL     1      44.064 -18.328   5.860  1.00  0.00     0.015 A 
ENDBRANCH   5  22
TORSDOF 6
ENDMDL
MODEL 9
REMARK VINA RESULT:      -8.7      2.520     10.999
REMARK  6 active torsions:
REMARK  status: ('A' for Active; 'I' for Inactive)
REMARK    1  A    between atoms: C_2  and  O_3 
REMARK    2  A    between atoms: O_3  and  C_4 
REMARK    3  A    between atoms: C_5  and  C_6 
REMARK    4  A    between atoms: N_7  and  N_8 
REMARK       I    between atoms: N_8  and  C_9 
REMARK    5  A    between atoms: C_9  and  C_10 
REMARK    6  A    between atoms: C_14  and  C_15 
ROOT
HETATM    1  C   UNL     1      41.879 -11.663   6.318  1.00  0.00     0.121 A 
HETATM    2  N   UNL     1      41.639 -10.318   6.260  1.00  0.00    -0.272 N 
HETATM    3  H   UNL     1      41.390  -9.780   5.434  1.00  0.00     0.189 HD
HETATM    4  N   UNL     1      41.784  -9.680   7.432  1.00  0.00    -0.174 NA
HETATM    5  C   UNL     1      42.148 -10.641   8.295  1.00  0.00     0.090 A 
HETATM    6  C   UNL     1      42.156 -11.908   7.648  1.00  0.00     0.071 A 
ENDROOT
BRANCH   1   7
HETATM    7  C   UNL     1      41.836 -12.490   5.133  1.00  0.00     0.289 C 
HETATM    8  N   UNL     1      41.883 -13.852   5.399  1.00  0.00    -0.242 N 
HETATM    9  H   UNL     1      41.901 -14.146   6.367  1.00  0.00     0.192 HD
HETATM   10  O   UNL     1      41.793 -11.973   4.023  1.00  0.00    -0.264 OA
BRANCH   8  11
HETATM   11  N   UNL     1      42.048 -14.905   4.540  1.00  0.00    -0.183 NA
HETATM   12  C   UNL     1      43.211 -15.437   4.336  1.00  0.00     0.153 C 
BRANCH  12  13
HETATM   13  C   UNL     1      43.358 -16.618   3.446  1.00  0.00     0.016 A 
HETATM   14  C   UNL     1      43.206 -17.919   3.956  1.00  0.00     0.080 A 
HETATM   15  C   UNL     1      43.321 -19.005   3.079  1.00  0.00     0.037 A 
HETATM   16  C   UNL     1      43.590 -18.799   1.721  1.00  0.00     0.003 A 
HETATM   17  C   UNL     1      43.747 -17.509   1.225  1.00  0.00     0.001 A 
HETATM   18  C   UNL     1      43.631 -16.419   2.084  1.00  0.00     0.016 A 
BRANCH  14  19
HETATM   19  O   UNL     1      42.942 -18.034   5.295  1.00  0.00    -0.351 OA
BRANCH  19  20
HETATM   20  C   UNL     1      43.769 -18.901   6.069  1.00  0.00     0.171 C 
HETATM   21  C   UNL     1      45.121 -18.232   6.233  1.00  0.00     0.034 C 
ENDBRANCH  19  20
ENDBRANCH  14  19
ENDBRANCH  12  13
ENDBRANCH   8  11
ENDBRANCH   1   7
BRANCH   5  22
HETATM   22  C   UNL     1      42.446 -10.349   9.697  1.00  0.00     0.005 A 
HETATM   23  C   UNL     1      41.451  -9.864  10.599  1.00  0.00    -0.012 A 
HETATM   24  C   UNL     1      41.887  -9.571  11.867  1.00  0.00    -0.012 A 
HETATM   25  C   UNL     1      40.060  -9.660  10.387  1.00  0.00     0.013 A 
HETATM   26  C   UNL     1      41.080  -9.080  12.878  1.00  0.00    -0.046 A 
HETATM   27  C   UNL     1      43.186  -9.744  12.306  1.00  0.00    -0.046 A 
HETATM   28  C   UNL     1      39.728  -8.848  12.678  1.00  0.00     0.008 A 
HETATM   29  C   UNL     1      41.872  -8.877  14.122  1.00  0.00     0.044 A 
HETATM   30  C   UNL     1      39.227  -9.156  11.406  1.00  0.00     0.001 A 
HETATM   31  C   UNL     1      43.309  -9.344  13.736  1.00  0.00     0.044 A 
HETATM   32  C   UNL     1      44.171 -10.243  11.468  1.00  0.00     0.009 A 
HETATM   33  C   UNL     1      43.776 -10.541  10.154  1.00  0.00     0.015 A 
ENDBRANCH   5  22
TORSDOF 6
ENDMDL
MODEL 10
REMARK VINA RESULT:      -8.6      2.869     10.738
REMARK  6 active torsions:
REMARK  status: ('A' for Active; 'I' for Inactive)
REMARK    1  A    between atoms: C_2  and  O_3 
REMARK    2  A    between atoms: O_3  and  C_4 
REMARK    3  A    between atoms: C_5  and  C_6 
REMARK    4  A    between atoms: N_7  and  N_8 
REMARK       I    between atoms: N_8  and  C_9 
REMARK    5  A    between atoms: C_9  and  C_10 
REMARK    6  A    between atoms: C_14  and  C_15 
ROOT
HETATM    1  C   UNL     1      41.862 -12.357   5.143  1.00  0.00     0.121 A 
HETATM    2  N   UNL     1      41.637 -11.082   4.702  1.00  0.00    -0.272 N 
HETATM    3  H   UNL     1      41.568 -10.777   3.735  1.00  0.00     0.189 HD
HETATM    4  N   UNL     1      41.531 -10.169   5.680  1.00  0.00    -0.174 NA
HETATM    5  C   UNL     1      41.706 -10.869   6.812  1.00  0.00     0.090 A 
HETATM    6  C   UNL     1      41.853 -12.253   6.520  1.00  0.00     0.071 A 
ENDROOT
BRANCH   1   7
HETATM    7  C   UNL     1      42.073 -13.449   4.220  1.00  0.00     0.289 C 
HETATM    8  N   UNL     1      42.612 -14.584   4.811  1.00  0.00    -0.242 N 
HETATM    9  H   UNL     1      42.771 -14.569   5.811  1.00  0.00     0.192 HD
HETATM   10  O   UNL     1      41.807 -13.311   3.032  1.00  0.00    -0.264 OA
BRANCH   8  11
HETATM   11  N   UNL     1      43.111 -15.719   4.230  1.00  0.00    -0.183 NA
HETATM   12  C   UNL     1      42.656 -16.892   4.535  1.00  0.00     0.153 C 
BRANCH  12  13
HETATM   13  C   UNL     1      43.169 -18.106   3.848  1.00  0.00     0.016 A 
HETATM   14  C   UNL     1      42.762 -18.410   2.537  1.00  0.00     0.080 A 
HETATM   15  C   UNL     1      43.291 -19.546   1.912  1.00  0.00     0.037 A 
HETATM   16  C   UNL     1      44.204 -20.367   2.583  1.00  0.00     0.003 A 
HETATM   17  C   UNL     1      44.597 -20.065   3.883  1.00  0.00     0.001 A 
HETATM   18  C   UNL     1      44.082 -18.936   4.516  1.00  0.00     0.016 A 
BRANCH  14  19
HETATM   19  O   UNL     1      41.867 -17.554   1.951  1.00  0.00    -0.351 OA
BRANCH  19  20
HETATM   20  C   UNL     1      42.265 -16.883   0.756  1.00  0.00     0.171 C 
HETATM   21  C   UNL     1      41.253 -15.788   0.477  1.00  0.00     0.034 C 
ENDBRANCH  19  20
ENDBRANCH  14  19
ENDBRANCH  12  13
ENDBRANCH   8  11
ENDBRANCH   1   7
BRANCH   5  22
HETATM   22  C   UNL     1      41.700 -10.226   8.126  1.00  0.00     0.005 A 
HETATM   23  C   UNL     1      42.694 -10.507   9.113  1.00  0.00    -0.012 A 
HETATM   24  C   UNL     1      42.527  -9.881  10.323  1.00  0.00    -0.012 A 
HETATM   25  C   UNL     1      43.851 -11.328   9.023  1.00  0.00     0.013 A 
HETATM   26  C   UNL     1      43.373 -10.035  11.407  1.00  0.00    -0.046 A 
HETATM   27  C   UNL     1      41.502  -9.000  10.612  1.00  0.00    -0.046 A 
HETATM   28  C   UNL     1      44.490 -10.854  11.344  1.00  0.00     0.008 A 
HETATM   29  C   UNL     1      42.903  -9.211  12.554  1.00  0.00     0.044 A 
HETATM   30  C   UNL     1      44.719 -11.497  10.120  1.00  0.00     0.001 A 
HETATM   31  C   UNL     1      41.632  -8.493  12.007  1.00  0.00     0.044 A 
HETATM   32  C   UNL     1      40.539  -8.678   9.669  1.00  0.00     0.009 A 
HETATM   33  C   UNL     1      40.658  -9.309   8.420  1.00  0.00     0.015 A 
ENDBRANCH   5  22
TORSDOF 6
ENDMDL
