MODEL 1
REMARK VINA RESULT:      -8.3      0.000      0.000
REMARK  4 active torsions:
REMARK  status: ('A' for Active; 'I' for Inactive)
REMARK    1  A    between atoms: C_4  and  N_5 
REMARK       I    between atoms: N_5  and  C_6 
REMARK    2  A    between atoms: C_6  and  C_7 
REMARK    3  A    between atoms: C_7  and  C_8 
REMARK    4  A    between atoms: C_11  and  O_12 
ROOT
HETATM    1  N   UNL     1      42.803 -16.264   0.947  1.00  0.00    -0.325 N 
HETATM    2  C   UNL     1      41.547 -15.801   0.617  1.00  0.00     0.226 C 
HETATM    3  O   UNL     1      40.477 -16.223   1.045  1.00  0.00    -0.273 OA
HETATM    4  H   UNL     1      43.613 -15.840   0.496  1.00  0.00     0.169 HD
ENDROOT
BRANCH   1   5
HETATM    5  C   UNL     1      43.162 -17.316   1.824  1.00  0.00     0.065 A 
HETATM    6  C   UNL     1      43.356 -18.636   1.403  1.00  0.00     0.038 A 
HETATM    7  C   UNL     1      43.713 -19.629   2.321  1.00  0.00    -0.059 A 
HETATM    8  C   UNL     1      43.952 -21.040   1.870  1.00  0.00     0.048 C 
HETATM    9  C   UNL     1      43.886 -19.282   3.664  1.00  0.00     0.020 A 
HETATM   10  C   UNL     1      43.691 -17.958   4.093  1.00  0.00    -0.005 A 
HETATM   11  C   UNL     1      43.323 -16.956   3.171  1.00  0.00     0.093 A 
HETATM   12  C   UNL     1      43.856 -17.596   5.436  1.00  0.00     0.015 A 
HETATM   13  N   UNL     1      43.127 -15.670   3.557  1.00  0.00    -0.258 NA
HETATM   14  C   UNL     1      43.296 -15.361   4.862  1.00  0.00     0.117 A 
HETATM   15  C   UNL     1      43.657 -16.279   5.829  1.00  0.00     0.020 A 
ENDBRANCH   1   5
BRANCH   2  16
HETATM   16  C   UNL     1      41.590 -14.654  -0.383  1.00  0.00     0.141 C 
BRANCH  16  17
HETATM   17  C   UNL     1      40.616 -14.842  -1.520  1.00  0.00    -0.049 A 
HETATM   18  C   UNL     1      39.442 -14.075  -1.577  1.00  0.00     0.010 A 
HETATM   19  C   UNL     1      38.527 -14.252  -2.616  1.00  0.00     0.037 A 
HETATM   20  C   UNL     1      38.786 -15.198  -3.601  1.00  0.00     0.065 A 
HETATM   21  C   UNL     1      39.943 -15.967  -3.563  1.00  0.00     0.037 A 
HETATM   22  C   UNL     1      40.859 -15.791  -2.523  1.00  0.00     0.010 A 
BRANCH  20  23
HETATM   23  O   UNL     1      37.919 -15.406  -4.632  1.00  0.00    -0.361 OA
HETATM   24  H   UNL     1      37.980 -16.338  -4.899  1.00  0.00     0.217 HD
ENDBRANCH  20  23
ENDBRANCH  16  17
ENDBRANCH   2  16
TORSDOF 4
ENDMDL
MODEL 2
REMARK VINA RESULT:      -8.1      3.826      7.069
REMARK  4 active torsions:
REMARK  status: ('A' for Active; 'I' for Inactive)
REMARK    1  A    between atoms: C_4  and  N_5 
REMARK       I    between atoms: N_5  and  C_6 
REMARK    2  A    between atoms: C_6  and  C_7 
REMARK    3  A    between atoms: C_7  and  C_8 
REMARK    4  A    between atoms: C_11  and  O_12 
ROOT
HETATM    1  N   UNL     1      42.670 -17.125   2.613  1.00  0.00    -0.325 N 
HETATM    2  C   UNL     1      43.568 -17.796   1.810  1.00  0.00     0.226 C 
HETATM    3  O   UNL     1      44.602 -17.340   1.331  1.00  0.00    -0.273 OA
HETATM    4  H   UNL     1      41.832 -17.616   2.922  1.00  0.00     0.169 HD
ENDROOT
BRANCH   1   5
HETATM    5  C   UNL     1      42.707 -15.783   3.061  1.00  0.00     0.065 A 
HETATM    6  C   UNL     1      42.304 -14.697   2.276  1.00  0.00     0.038 A 
HETATM    7  C   UNL     1      42.363 -13.394   2.781  1.00  0.00    -0.059 A 
HETATM    8  C   UNL     1      41.903 -12.229   1.954  1.00  0.00     0.048 C 
HETATM    9  C   UNL     1      42.818 -13.193   4.087  1.00  0.00     0.020 A 
HETATM   10  C   UNL     1      43.225 -14.279   4.881  1.00  0.00    -0.005 A 
HETATM   11  C   UNL     1      43.175 -15.593   4.372  1.00  0.00     0.093 A 
HETATM   12  C   UNL     1      43.688 -14.091   6.190  1.00  0.00     0.015 A 
HETATM   13  N   UNL     1      43.563 -16.660   5.114  1.00  0.00    -0.258 NA
HETATM   14  C   UNL     1      44.003 -16.437   6.372  1.00  0.00     0.117 A 
HETATM   15  C   UNL     1      44.083 -15.185   6.949  1.00  0.00     0.020 A 
ENDBRANCH   1   5
BRANCH   2  16
HETATM   16  C   UNL     1      43.153 -19.236   1.544  1.00  0.00     0.141 C 
BRANCH  16  17
HETATM   17  C   UNL     1      43.794 -20.208   2.504  1.00  0.00    -0.049 A 
HETATM   18  C   UNL     1      43.939 -21.558   2.148  1.00  0.00     0.010 A 
HETATM   19  C   UNL     1      44.516 -22.469   3.035  1.00  0.00     0.037 A 
HETATM   20  C   UNL     1      44.950 -22.029   4.280  1.00  0.00     0.065 A 
HETATM   21  C   UNL     1      44.817 -20.696   4.650  1.00  0.00     0.037 A 
HETATM   22  C   UNL     1      44.239 -19.784   3.764  1.00  0.00     0.010 A 
BRANCH  20  23
HETATM   23  O   UNL     1      45.518 -22.884   5.178  1.00  0.00    -0.361 OA
HETATM   24  H   UNL     1      46.452 -23.003   4.938  1.00  0.00     0.217 HD
ENDBRANCH  20  23
ENDBRANCH  16  17
ENDBRANCH   2  16
TORSDOF 4
ENDMDL
MODEL 3
REMARK VINA RESULT:      -8.1      1.115      1.699
REMARK  4 active torsions:
REMARK  status: ('A' for Active; 'I' for Inactive)
REMARK    1  A    between atoms: C_4  and  N_5 
REMARK       I    between atoms: N_5  and  C_6 
REMARK    2  A    between atoms: C_6  and  C_7 
REMARK    3  A    between atoms: C_7  and  C_8 
REMARK    4  A    between atoms: C_11  and  O_12 
ROOT
HETATM    1  N   UNL     1      42.512 -16.563   2.262  1.00  0.00    -0.325 N 
HETATM    2  C   UNL     1      41.200 -16.331   1.909  1.00  0.00     0.226 C 
HETATM    3  O   UNL     1      40.276 -17.138   1.961  1.00  0.00    -0.273 OA
HETATM    4  H   UNL     1      43.188 -15.810   2.144  1.00  0.00     0.169 HD
ENDROOT
BRANCH   1   5
HETATM    5  C   UNL     1      43.107 -17.754   2.744  1.00  0.00     0.065 A 
HETATM    6  C   UNL     1      43.218 -18.923   1.984  1.00  0.00     0.038 A 
HETATM    7  C   UNL     1      43.821 -20.065   2.519  1.00  0.00    -0.059 A 
HETATM    8  C   UNL     1      43.970 -21.312   1.697  1.00  0.00     0.048 C 
HETATM    9  C   UNL     1      44.323 -20.019   3.823  1.00  0.00     0.020 A 
HETATM   10  C   UNL     1      44.214 -18.849   4.593  1.00  0.00    -0.005 A 
HETATM   11  C   UNL     1      43.600 -17.697   4.058  1.00  0.00     0.093 A 
HETATM   12  C   UNL     1      44.708 -18.790   5.903  1.00  0.00     0.015 A 
HETATM   13  N   UNL     1      43.479 -16.554   4.779  1.00  0.00    -0.258 NA
HETATM   14  C   UNL     1      43.969 -16.538   6.038  1.00  0.00     0.117 A 
HETATM   15  C   UNL     1      44.586 -17.618   6.638  1.00  0.00     0.020 A 
ENDBRANCH   1   5
BRANCH   2  16
HETATM   16  C   UNL     1      40.968 -14.910   1.418  1.00  0.00     0.141 C 
BRANCH  16  17
HETATM   17  C   UNL     1      40.545 -14.861  -0.030  1.00  0.00    -0.049 A 
HETATM   18  C   UNL     1      41.234 -15.615  -0.992  1.00  0.00     0.010 A 
HETATM   19  C   UNL     1      40.861 -15.564  -2.337  1.00  0.00     0.037 A 
HETATM   20  C   UNL     1      39.795 -14.758  -2.719  1.00  0.00     0.065 A 
HETATM   21  C   UNL     1      39.099 -14.004  -1.781  1.00  0.00     0.037 A 
HETATM   22  C   UNL     1      39.473 -14.054  -0.437  1.00  0.00     0.010 A 
BRANCH  20  23
HETATM   23  O   UNL     1      39.397 -14.676  -4.021  1.00  0.00    -0.361 OA
HETATM   24  H   UNL     1      40.107 -14.252  -4.531  1.00  0.00     0.217 HD
ENDBRANCH  20  23
ENDBRANCH  16  17
ENDBRANCH   2  16
TORSDOF 4
ENDMDL
MODEL 4
REMARK VINA RESULT:      -8.0      1.863      2.341
REMARK  4 active torsions:
REMARK  status: ('A' for Active; 'I' for Inactive)
REMARK    1  A    between atoms: C_4  and  N_5 
REMARK       I    between atoms: N_5  and  C_6 
REMARK    2  A    between atoms: C_6  and  C_7 
REMARK    3  A    between atoms: C_7  and  C_8 
REMARK    4  A    between atoms: C_11  and  O_12 
ROOT
HETATM    1  N   UNL     1      40.320 -15.492   1.046  1.00  0.00    -0.325 N 
HETATM    2  C   UNL     1      40.788 -14.354   0.426  1.00  0.00     0.226 C 
HETATM    3  O   UNL     1      41.912 -13.872   0.536  1.00  0.00    -0.273 OA
HETATM    4  H   UNL     1      39.351 -15.769   0.888  1.00  0.00     0.169 HD
ENDROOT
BRANCH   1   5
HETATM    5  C   UNL     1      40.989 -16.356   1.945  1.00  0.00     0.065 A 
HETATM    6  C   UNL     1      41.735 -17.467   1.536  1.00  0.00     0.038 A 
HETATM    7  C   UNL     1      42.376 -18.280   2.476  1.00  0.00    -0.059 A 
HETATM    8  C   UNL     1      43.201 -19.454   2.040  1.00  0.00     0.048 C 
HETATM    9  C   UNL     1      42.272 -17.958   3.833  1.00  0.00     0.020 A 
HETATM   10  C   UNL     1      41.524 -16.845   4.251  1.00  0.00    -0.005 A 
HETATM   11  C   UNL     1      40.870 -16.028   3.305  1.00  0.00     0.093 A 
HETATM   12  C   UNL     1      41.407 -16.514   5.608  1.00  0.00     0.015 A 
HETATM   13  N   UNL     1      40.139 -14.948   3.681  1.00  0.00    -0.258 NA
HETATM   14  C   UNL     1      40.051 -14.662   4.999  1.00  0.00     0.117 A 
HETATM   15  C   UNL     1      40.661 -15.406   5.989  1.00  0.00     0.020 A 
ENDBRANCH   1   5
BRANCH   2  16
HETATM   16  C   UNL     1      39.741 -13.697  -0.461  1.00  0.00     0.141 C 
BRANCH  16  17
HETATM   17  C   UNL     1      39.501 -14.465  -1.737  1.00  0.00    -0.049 A 
HETATM   18  C   UNL     1      40.508 -15.286  -2.267  1.00  0.00     0.010 A 
HETATM   19  C   UNL     1      40.302 -15.988  -3.456  1.00  0.00     0.037 A 
HETATM   20  C   UNL     1      39.084 -15.870  -4.116  1.00  0.00     0.065 A 
HETATM   21  C   UNL     1      38.073 -15.063  -3.607  1.00  0.00     0.037 A 
HETATM   22  C   UNL     1      38.279 -14.360  -2.419  1.00  0.00     0.010 A 
BRANCH  20  23
HETATM   23  O   UNL     1      38.839 -16.537  -5.280  1.00  0.00    -0.361 OA
HETATM   24  H   UNL     1      38.255 -15.988  -5.829  1.00  0.00     0.217 HD
ENDBRANCH  20  23
ENDBRANCH  16  17
ENDBRANCH   2  16
TORSDOF 4
ENDMDL
MODEL 5
REMARK VINA RESULT:      -7.9      3.464      7.297
REMARK  4 active torsions:
REMARK  status: ('A' for Active; 'I' for Inactive)
REMARK    1  A    between atoms: C_4  and  N_5 
REMARK       I    between atoms: N_5  and  C_6 
REMARK    2  A    between atoms: C_6  and  C_7 
REMARK    3  A    between atoms: C_7  and  C_8 
REMARK    4  A    between atoms: C_11  and  O_12 
ROOT
HETATM    1  N   UNL     1      42.558 -17.435   2.952  1.00  0.00    -0.325 N 
HETATM    2  C   UNL     1      43.520 -17.781   2.027  1.00  0.00     0.226 C 
HETATM    3  O   UNL     1      44.422 -17.062   1.608  1.00  0.00    -0.273 OA
HETATM    4  H   UNL     1      41.846 -18.123   3.194  1.00  0.00     0.169 HD
ENDROOT
BRANCH   1   5
HETATM    5  C   UNL     1      42.366 -16.200   3.617  1.00  0.00     0.065 A 
HETATM    6  C   UNL     1      43.191 -15.746   4.651  1.00  0.00     0.038 A 
HETATM    7  C   UNL     1      42.949 -14.514   5.266  1.00  0.00    -0.059 A 
HETATM    8  C   UNL     1      43.850 -14.008   6.354  1.00  0.00     0.048 C 
HETATM    9  C   UNL     1      41.877 -13.734   4.823  1.00  0.00     0.020 A 
HETATM   10  C   UNL     1      41.043 -14.185   3.785  1.00  0.00    -0.005 A 
HETATM   11  C   UNL     1      41.280 -15.431   3.169  1.00  0.00     0.093 A 
HETATM   12  C   UNL     1      39.961 -13.416   3.334  1.00  0.00     0.015 A 
HETATM   13  N   UNL     1      40.490 -15.892   2.166  1.00  0.00    -0.258 NA
HETATM   14  C   UNL     1      39.458 -15.121   1.760  1.00  0.00     0.117 A 
HETATM   15  C   UNL     1      39.156 -13.889   2.306  1.00  0.00     0.020 A 
ENDBRANCH   1   5
BRANCH   2  16
HETATM   16  C   UNL     1      43.370 -19.213   1.535  1.00  0.00     0.141 C 
BRANCH  16  17
HETATM   17  C   UNL     1      43.918 -20.222   2.515  1.00  0.00    -0.049 A 
HETATM   18  C   UNL     1      44.357 -19.808   3.782  1.00  0.00     0.010 A 
HETATM   19  C   UNL     1      44.879 -20.730   4.690  1.00  0.00     0.037 A 
HETATM   20  C   UNL     1      44.962 -22.070   4.331  1.00  0.00     0.065 A 
HETATM   21  C   UNL     1      44.532 -22.501   3.081  1.00  0.00     0.037 A 
HETATM   22  C   UNL     1      44.010 -21.578   2.172  1.00  0.00     0.010 A 
BRANCH  20  23
HETATM   23  O   UNL     1      45.468 -23.005   5.185  1.00  0.00    -0.361 OA
HETATM   24  H   UNL     1      46.433 -23.025   5.079  1.00  0.00     0.217 HD
ENDBRANCH  20  23
ENDBRANCH  16  17
ENDBRANCH   2  16
TORSDOF 4
ENDMDL
MODEL 6
REMARK VINA RESULT:      -7.8      3.817      7.212
REMARK  4 active torsions:
REMARK  status: ('A' for Active; 'I' for Inactive)
REMARK    1  A    between atoms: C_4  and  N_5 
REMARK       I    between atoms: N_5  and  C_6 
REMARK    2  A    between atoms: C_6  and  C_7 
REMARK    3  A    between atoms: C_7  and  C_8 
REMARK    4  A    between atoms: C_11  and  O_12 
ROOT
HETATM    1  N   UNL     1      43.321 -16.255   4.801  1.00  0.00    -0.325 N 
HETATM    2  C   UNL     1      43.211 -17.501   5.381  1.00  0.00     0.226 C 
HETATM    3  O   UNL     1      42.229 -17.949   5.967  1.00  0.00    -0.273 OA
HETATM    4  H   UNL     1      44.207 -15.997   4.367  1.00  0.00     0.169 HD
ENDROOT
BRANCH   1   5
HETATM    5  C   UNL     1      42.368 -15.211   4.747  1.00  0.00     0.065 A 
HETATM    6  C   UNL     1      42.391 -14.102   5.600  1.00  0.00     0.038 A 
HETATM    7  C   UNL     1      41.420 -13.101   5.493  1.00  0.00    -0.059 A 
HETATM    8  C   UNL     1      41.459 -11.895   6.384  1.00  0.00     0.048 C 
HETATM    9  C   UNL     1      40.432 -13.218   4.511  1.00  0.00     0.020 A 
HETATM   10  C   UNL     1      40.401 -14.330   3.652  1.00  0.00    -0.005 A 
HETATM   11  C   UNL     1      41.375 -15.344   3.764  1.00  0.00     0.093 A 
HETATM   12  C   UNL     1      39.414 -14.463   2.668  1.00  0.00     0.015 A 
HETATM   13  N   UNL     1      41.369 -16.430   2.949  1.00  0.00    -0.258 NA
HETATM   14  C   UNL     1      40.400 -16.520   2.012  1.00  0.00     0.117 A 
HETATM   15  C   UNL     1      39.411 -15.573   1.833  1.00  0.00     0.020 A 
ENDBRANCH   1   5
BRANCH   2  16
HETATM   16  C   UNL     1      44.478 -18.331   5.233  1.00  0.00     0.141 C 
BRANCH  16  17
HETATM   17  C   UNL     1      44.351 -19.394   4.170  1.00  0.00    -0.049 A 
HETATM   18  C   UNL     1      43.773 -19.086   2.929  1.00  0.00     0.010 A 
HETATM   19  C   UNL     1      43.637 -20.066   1.944  1.00  0.00     0.037 A 
HETATM   20  C   UNL     1      44.080 -21.358   2.202  1.00  0.00     0.065 A 
HETATM   21  C   UNL     1      44.656 -21.684   3.424  1.00  0.00     0.037 A 
HETATM   22  C   UNL     1      44.792 -20.704   4.409  1.00  0.00     0.010 A 
BRANCH  20  23
HETATM   23  O   UNL     1      43.965 -22.347   1.270  1.00  0.00    -0.361 OA
HETATM   24  H   UNL     1      43.552 -23.118   1.693  1.00  0.00     0.217 HD
ENDBRANCH  20  23
ENDBRANCH  16  17
ENDBRANCH   2  16
TORSDOF 4
ENDMDL
MODEL 7
REMARK VINA RESULT:      -7.8      1.949      2.505
REMARK  4 active torsions:
REMARK  status: ('A' for Active; 'I' for Inactive)
REMARK    1  A    between atoms: C_4  and  N_5 
REMARK       I    between atoms: N_5  and  C_6 
REMARK    2  A    between atoms: C_6  and  C_7 
REMARK    3  A    between atoms: C_7  and  C_8 
REMARK    4  A    between atoms: C_11  and  O_12 
ROOT
HETATM    1  N   UNL     1      43.068 -16.980   1.620  1.00  0.00    -0.325 N 
HETATM    2  C   UNL     1      41.878 -16.813   0.943  1.00  0.00     0.226 C 
HETATM    3  O   UNL     1      40.953 -17.618   0.882  1.00  0.00    -0.273 OA
HETATM    4  H   UNL     1      43.766 -16.240   1.567  1.00  0.00     0.169 HD
ENDROOT
BRANCH   1   5
HETATM    5  C   UNL     1      43.512 -18.090   2.378  1.00  0.00     0.065 A 
HETATM    6  C   UNL     1      43.737 -19.357   1.828  1.00  0.00     0.038 A 
HETATM    7  C   UNL     1      44.180 -20.413   2.632  1.00  0.00    -0.059 A 
HETATM    8  C   UNL     1      44.452 -21.765   2.042  1.00  0.00     0.048 C 
HETATM    9  C   UNL     1      44.407 -20.180   3.992  1.00  0.00     0.020 A 
HETATM   10  C   UNL     1      44.182 -18.910   4.550  1.00  0.00    -0.005 A 
HETATM   11  C   UNL     1      43.728 -17.846   3.743  1.00  0.00     0.093 A 
HETATM   12  C   UNL     1      44.401 -18.664   5.912  1.00  0.00     0.015 A 
HETATM   13  N   UNL     1      43.500 -16.610   4.255  1.00  0.00    -0.258 NA
HETATM   14  C   UNL     1      43.724 -16.414   5.574  1.00  0.00     0.117 A 
HETATM   15  C   UNL     1      44.170 -17.398   6.434  1.00  0.00     0.020 A 
ENDBRANCH   1   5
BRANCH   2  16
HETATM   16  C   UNL     1      41.792 -15.470   0.233  1.00  0.00     0.141 C 
BRANCH  16  17
HETATM   17  C   UNL     1      40.431 -14.833   0.364  1.00  0.00    -0.049 A 
HETATM   18  C   UNL     1      39.768 -14.346  -0.773  1.00  0.00     0.010 A 
HETATM   19  C   UNL     1      38.515 -13.740  -0.661  1.00  0.00     0.037 A 
HETATM   20  C   UNL     1      37.924 -13.622   0.591  1.00  0.00     0.065 A 
HETATM   21  C   UNL     1      38.564 -14.098   1.730  1.00  0.00     0.037 A 
HETATM   22  C   UNL     1      39.817 -14.704   1.618  1.00  0.00     0.010 A 
BRANCH  20  23
HETATM   23  O   UNL     1      36.703 -13.035   0.748  1.00  0.00    -0.361 OA
HETATM   24  H   UNL     1      36.839 -12.118   1.038  1.00  0.00     0.217 HD
ENDBRANCH  20  23
ENDBRANCH  16  17
ENDBRANCH   2  16
TORSDOF 4
ENDMDL
MODEL 8
REMARK VINA RESULT:      -7.7      2.813      6.949
REMARK  4 active torsions:
REMARK  status: ('A' for Active; 'I' for Inactive)
REMARK    1  A    between atoms: C_4  and  N_5 
REMARK       I    between atoms: N_5  and  C_6 
REMARK    2  A    between atoms: C_6  and  C_7 
REMARK    3  A    between atoms: C_7  and  C_8 
REMARK    4  A    between atoms: C_11  and  O_12 
ROOT
HETATM    1  N   UNL     1      42.513 -16.390   1.882  1.00  0.00    -0.325 N 
HETATM    2  C   UNL     1      42.560 -17.754   1.687  1.00  0.00     0.226 C 
HETATM    3  O   UNL     1      41.598 -18.511   1.589  1.00  0.00    -0.273 OA
HETATM    4  H   UNL     1      43.391 -15.881   1.972  1.00  0.00     0.169 HD
ENDROOT
BRANCH   1   5
HETATM    5  C   UNL     1      41.383 -15.550   2.026  1.00  0.00     0.065 A 
HETATM    6  C   UNL     1      40.582 -15.145   0.953  1.00  0.00     0.038 A 
HETATM    7  C   UNL     1      39.476 -14.315   1.164  1.00  0.00    -0.059 A 
HETATM    8  C   UNL     1      38.596 -13.903   0.020  1.00  0.00     0.048 C 
HETATM    9  C   UNL     1      39.174 -13.906   2.466  1.00  0.00     0.020 A 
HETATM   10  C   UNL     1      39.975 -14.308   3.548  1.00  0.00    -0.005 A 
HETATM   11  C   UNL     1      41.096 -15.139   3.337  1.00  0.00     0.093 A 
HETATM   12  C   UNL     1      39.687 -13.902   4.858  1.00  0.00     0.015 A 
HETATM   13  N   UNL     1      41.888 -15.541   4.363  1.00  0.00    -0.258 NA
HETATM   14  C   UNL     1      41.576 -15.127   5.611  1.00  0.00     0.117 A 
HETATM   15  C   UNL     1      40.498 -14.317   5.907  1.00  0.00     0.020 A 
ENDBRANCH   1   5
BRANCH   2  16
HETATM   16  C   UNL     1      43.983 -18.284   1.597  1.00  0.00     0.141 C 
BRANCH  16  17
HETATM   17  C   UNL     1      44.171 -19.567   2.368  1.00  0.00    -0.049 A 
HETATM   18  C   UNL     1      44.476 -19.529   3.738  1.00  0.00     0.010 A 
HETATM   19  C   UNL     1      44.668 -20.710   4.457  1.00  0.00     0.037 A 
HETATM   20  C   UNL     1      44.554 -21.932   3.805  1.00  0.00     0.065 A 
HETATM   21  C   UNL     1      44.252 -21.992   2.450  1.00  0.00     0.037 A 
HETATM   22  C   UNL     1      44.060 -20.811   1.730  1.00  0.00     0.010 A 
BRANCH  20  23
HETATM   23  O   UNL     1      44.735 -23.111   4.468  1.00  0.00    -0.361 OA
HETATM   24  H   UNL     1      45.689 -23.252   4.583  1.00  0.00     0.217 HD
ENDBRANCH  20  23
ENDBRANCH  16  17
ENDBRANCH   2  16
TORSDOF 4
ENDMDL
MODEL 9
REMARK VINA RESULT:      -7.7      2.318      7.810
REMARK  4 active torsions:
REMARK  status: ('A' for Active; 'I' for Inactive)
REMARK    1  A    between atoms: C_4  and  N_5 
REMARK       I    between atoms: N_5  and  C_6 
REMARK    2  A    between atoms: C_6  and  C_7 
REMARK    3  A    between atoms: C_7  and  C_8 
REMARK    4  A    between atoms: C_11  and  O_12 
ROOT
HETATM    1  N   UNL     1      42.174 -15.809   0.411  1.00  0.00    -0.325 N 
HETATM    2  C   UNL     1      42.224 -17.086   0.930  1.00  0.00     0.226 C 
HETATM    3  O   UNL     1      41.275 -17.739   1.353  1.00  0.00    -0.273 OA
HETATM    4  H   UNL     1      43.046 -15.369   0.119  1.00  0.00     0.169 HD
ENDROOT
BRANCH   1   5
HETATM    5  C   UNL     1      41.057 -14.956   0.253  1.00  0.00     0.065 A 
HETATM    6  C   UNL     1      40.505 -14.207   1.298  1.00  0.00     0.038 A 
HETATM    7  C   UNL     1      39.400 -13.379   1.074  1.00  0.00    -0.059 A 
HETATM    8  C   UNL     1      38.824 -12.551   2.185  1.00  0.00     0.048 C 
HETATM    9  C   UNL     1      38.862 -13.300  -0.214  1.00  0.00     0.020 A 
HETATM   10  C   UNL     1      39.411 -14.049  -1.268  1.00  0.00    -0.005 A 
HETATM   11  C   UNL     1      40.520 -14.892  -1.043  1.00  0.00     0.093 A 
HETATM   12  C   UNL     1      38.880 -13.984  -2.562  1.00  0.00     0.015 A 
HETATM   13  N   UNL     1      41.069 -15.629  -2.041  1.00  0.00    -0.258 NA
HETATM   14  C   UNL     1      40.527 -15.537  -3.276  1.00  0.00     0.117 A 
HETATM   15  C   UNL     1      39.445 -14.737  -3.583  1.00  0.00     0.020 A 
ENDBRANCH   1   5
BRANCH   2  16
HETATM   16  C   UNL     1      43.633 -17.659   0.941  1.00  0.00     0.141 C 
BRANCH  16  17
HETATM   17  C   UNL     1      43.901 -18.512   2.157  1.00  0.00    -0.049 A 
HETATM   18  C   UNL     1      43.946 -17.928   3.432  1.00  0.00     0.010 A 
HETATM   19  C   UNL     1      44.209 -18.706   4.562  1.00  0.00     0.037 A 
HETATM   20  C   UNL     1      44.425 -20.071   4.415  1.00  0.00     0.065 A 
HETATM   21  C   UNL     1      44.383 -20.669   3.161  1.00  0.00     0.037 A 
HETATM   22  C   UNL     1      44.122 -19.891   2.031  1.00  0.00     0.010 A 
BRANCH  20  23
HETATM   23  O   UNL     1      44.687 -20.868   5.490  1.00  0.00    -0.361 OA
HETATM   24  H   UNL     1      44.854 -20.299   6.259  1.00  0.00     0.217 HD
ENDBRANCH  20  23
ENDBRANCH  16  17
ENDBRANCH   2  16
TORSDOF 4
ENDMDL
MODEL 10
REMARK VINA RESULT:      -7.7      2.713      4.017
REMARK  4 active torsions:
REMARK  status: ('A' for Active; 'I' for Inactive)
REMARK    1  A    between atoms: C_4  and  N_5 
REMARK       I    between atoms: N_5  and  C_6 
REMARK    2  A    between atoms: C_6  and  C_7 
REMARK    3  A    between atoms: C_7  and  C_8 
REMARK    4  A    between atoms: C_11  and  O_12 
ROOT
HETATM    1  N   UNL     1      42.821 -17.171   1.883  1.00  0.00    -0.325 N 
HETATM    2  C   UNL     1      41.607 -17.059   1.238  1.00  0.00     0.226 C 
HETATM    3  O   UNL     1      40.768 -17.945   1.102  1.00  0.00    -0.273 OA
HETATM    4  H   UNL     1      43.439 -16.361   1.900  1.00  0.00     0.169 HD
ENDROOT
BRANCH   1   5
HETATM    5  C   UNL     1      43.391 -18.300   2.517  1.00  0.00     0.065 A 
HETATM    6  C   UNL     1      43.607 -19.521   1.869  1.00  0.00     0.038 A 
HETATM    7  C   UNL     1      44.178 -20.598   2.553  1.00  0.00    -0.059 A 
HETATM    8  C   UNL     1      44.441 -21.899   1.853  1.00  0.00     0.048 C 
HETATM    9  C   UNL     1      44.542 -20.435   3.893  1.00  0.00     0.020 A 
HETATM   10  C   UNL     1      44.326 -19.212   4.551  1.00  0.00    -0.005 A 
HETATM   11  C   UNL     1      43.743 -18.126   3.865  1.00  0.00     0.093 A 
HETATM   12  C   UNL     1      44.681 -19.035   5.895  1.00  0.00     0.015 A 
HETATM   13  N   UNL     1      43.521 -16.934   4.476  1.00  0.00    -0.258 NA
HETATM   14  C   UNL     1      43.878 -16.805   5.773  1.00  0.00     0.117 A 
HETATM   15  C   UNL     1      44.456 -17.814   6.517  1.00  0.00     0.020 A 
ENDBRANCH   1   5
BRANCH   2  16
HETATM   16  C   UNL     1      41.372 -15.667   0.671  1.00  0.00     0.141 C 
BRANCH  16  17
HETATM   17  C   UNL     1      41.151 -14.634   1.747  1.00  0.00    -0.049 A 
HETATM   18  C   UNL     1      40.105 -14.788   2.670  1.00  0.00     0.010 A 
HETATM   19  C   UNL     1      39.882 -13.830   3.661  1.00  0.00     0.037 A 
HETATM   20  C   UNL     1      40.709 -12.715   3.729  1.00  0.00     0.065 A 
HETATM   21  C   UNL     1      41.752 -12.543   2.826  1.00  0.00     0.037 A 
HETATM   22  C   UNL     1      41.974 -13.501   1.834  1.00  0.00     0.010 A 
BRANCH  20  23
HETATM   23  O   UNL     1      40.528 -11.753   4.679  1.00  0.00    -0.361 OA
HETATM   24  H   UNL     1      40.068 -12.153   5.435  1.00  0.00     0.217 HD
ENDBRANCH  20  23
ENDBRANCH  16  17
ENDBRANCH   2  16
TORSDOF 4
ENDMDL
