MODEL 1
REMARK VINA RESULT:     -10.1      0.000      0.000
REMARK  5 active torsions:
REMARK  status: ('A' for Active; 'I' for Inactive)
REMARK    1  A    between atoms: C_4  and  O_5 
REMARK    2  A    between atoms: O_5  and  C_6 
REMARK    3  A    between atoms: C_6  and  C_7 
REMARK       I    between atoms: C_7  and  N_8 
REMARK    4  A    between atoms: N_8  and  C_9 
REMARK    5  A    between atoms: C_11  and  C_12 
ROOT
HETATM    1  C   UNL     1      44.994 -13.618   7.488  1.00  0.00     0.035 A 
HETATM    2  C   UNL     1      44.350 -13.099   8.616  1.00  0.00     0.045 A 
HETATM    3  C   UNL     1      44.917 -12.048   9.357  1.00  0.00     0.019 A 
HETATM    4  C   UNL     1      46.165 -11.544   8.965  1.00  0.00     0.016 A 
HETATM    5  C   UNL     1      46.819 -12.057   7.844  1.00  0.00     0.003 A 
HETATM    6  C   UNL     1      46.228 -13.081   7.103  1.00  0.00     0.029 A 
ENDROOT
BRANCH   1   7
HETATM    7  N   UNL     1      44.458 -14.644   6.684  1.00  0.00    -0.325 N 
HETATM    8  C   UNL     1      43.885 -15.834   7.103  1.00  0.00     0.251 C 
HETATM    9  O   UNL     1      43.819 -16.239   8.260  1.00  0.00    -0.270 OA
HETATM   10  H   UNL     1      44.472 -14.491   5.681  1.00  0.00     0.169 HD
BRANCH   8  11
HETATM   11  C   UNL     1      43.342 -16.688   5.946  1.00  0.00     0.217 C 
HETATM   12  C   UNL     1      41.990 -17.280   6.334  1.00  0.00     0.050 C 
BRANCH  11  13
HETATM   13  O   UNL     1      44.215 -17.785   5.648  1.00  0.00    -0.337 OA
BRANCH  13  14
HETATM   14  C   UNL     1      44.044 -18.295   4.387  1.00  0.00     0.070 A 
HETATM   15  C   UNL     1      43.677 -17.519   3.286  1.00  0.00     0.043 A 
HETATM   16  C   UNL     1      43.528 -18.110   2.024  1.00  0.00    -0.059 A 
HETATM   17  C   UNL     1      43.140 -17.287   0.831  1.00  0.00     0.048 C 
HETATM   18  C   UNL     1      43.771 -19.482   1.879  1.00  0.00     0.013 A 
HETATM   19  C   UNL     1      44.158 -20.264   2.976  1.00  0.00    -0.059 A 
HETATM   20  C   UNL     1      44.311 -19.654   4.226  1.00  0.00     0.043 A 
HETATM   21  C   UNL     1      44.436 -21.727   2.792  1.00  0.00     0.048 C 
ENDBRANCH  13  14
ENDBRANCH  11  13
ENDBRANCH   8  11
ENDBRANCH   1   7
BRANCH   3  22
HETATM   22  C   UNL     1      44.227 -11.452  10.500  1.00  0.00     0.181 A 
HETATM   23  O   UNL     1      42.890 -11.737  10.627  1.00  0.00    -0.289 OA
HETATM   24  C   UNL     1      42.499 -11.021  11.718  1.00  0.00     0.106 A 
HETATM   25  C   UNL     1      43.607 -10.346  12.200  1.00  0.00     0.093 A 
HETATM   26  C   UNL     1      41.225 -10.952  12.268  1.00  0.00     0.040 A 
HETATM   27  N   UNL     1      44.702 -10.628  11.420  1.00  0.00    -0.221 NA
HETATM   28  C   UNL     1      43.462  -9.526  13.327  1.00  0.00     0.034 A 
HETATM   29  C   UNL     1      42.191  -9.426  13.913  1.00  0.00     0.002 A 
HETATM   30  C   UNL     1      41.095 -10.127  13.392  1.00  0.00     0.003 A 
ENDBRANCH   3  22
TORSDOF 5
ENDMDL
MODEL 2
REMARK VINA RESULT:     -10.1      0.179      1.604
REMARK  5 active torsions:
REMARK  status: ('A' for Active; 'I' for Inactive)
REMARK    1  A    between atoms: C_4  and  O_5 
REMARK    2  A    between atoms: O_5  and  C_6 
REMARK    3  A    between atoms: C_6  and  C_7 
REMARK       I    between atoms: C_7  and  N_8 
REMARK    4  A    between atoms: N_8  and  C_9 
REMARK    5  A    between atoms: C_11  and  C_12 
ROOT
HETATM    1  C   UNL     1      45.012 -13.661   7.424  1.00  0.00     0.035 A 
HETATM    2  C   UNL     1      44.349 -13.126   8.533  1.00  0.00     0.045 A 
HETATM    3  C   UNL     1      44.904 -12.066   9.271  1.00  0.00     0.019 A 
HETATM    4  C   UNL     1      46.159 -11.569   8.895  1.00  0.00     0.016 A 
HETATM    5  C   UNL     1      46.832 -12.097   7.794  1.00  0.00     0.003 A 
HETATM    6  C   UNL     1      46.254 -13.130   7.056  1.00  0.00     0.029 A 
ENDROOT
BRANCH   1   7
HETATM    7  N   UNL     1      44.490 -14.697   6.625  1.00  0.00    -0.325 N 
HETATM    8  C   UNL     1      43.907 -15.879   7.049  1.00  0.00     0.251 C 
HETATM    9  O   UNL     1      43.818 -16.269   8.210  1.00  0.00    -0.270 OA
HETATM   10  H   UNL     1      44.524 -14.557   5.620  1.00  0.00     0.169 HD
BRANCH   8  11
HETATM   11  C   UNL     1      43.385 -16.749   5.893  1.00  0.00     0.217 C 
HETATM   12  C   UNL     1      42.014 -17.314   6.255  1.00  0.00     0.050 C 
BRANCH  11  13
HETATM   13  O   UNL     1      44.250 -17.863   5.640  1.00  0.00    -0.337 OA
BRANCH  13  14
HETATM   14  C   UNL     1      44.106 -18.396   4.386  1.00  0.00     0.070 A 
HETATM   15  C   UNL     1      44.286 -19.751   4.100  1.00  0.00     0.043 A 
HETATM   16  C   UNL     1      44.113 -20.225   2.794  1.00  0.00    -0.059 A 
HETATM   17  C   UNL     1      44.298 -21.679   2.472  1.00  0.00     0.048 C 
HETATM   18  C   UNL     1      43.738 -19.328   1.784  1.00  0.00     0.013 A 
HETATM   19  C   UNL     1      43.537 -17.970   2.067  1.00  0.00    -0.059 A 
HETATM   20  C   UNL     1      43.705 -17.516   3.381  1.00  0.00     0.043 A 
HETATM   21  C   UNL     1      43.114 -17.032   0.976  1.00  0.00     0.048 C 
ENDBRANCH  13  14
ENDBRANCH  11  13
ENDBRANCH   8  11
ENDBRANCH   1   7
BRANCH   3  22
HETATM   22  C   UNL     1      44.193 -11.453  10.393  1.00  0.00     0.181 A 
HETATM   23  O   UNL     1      42.827 -11.594  10.405  1.00  0.00    -0.289 OA
HETATM   24  C   UNL     1      42.431 -10.893  11.504  1.00  0.00     0.106 A 
HETATM   25  C   UNL     1      43.563 -10.371  12.104  1.00  0.00     0.093 A 
HETATM   26  C   UNL     1      41.132 -10.710  11.963  1.00  0.00     0.040 A 
HETATM   27  N   UNL     1      44.679 -10.734  11.391  1.00  0.00    -0.221 NA
HETATM   28  C   UNL     1      43.419  -9.597  13.263  1.00  0.00     0.034 A 
HETATM   29  C   UNL     1      42.123  -9.385  13.759  1.00  0.00     0.002 A 
HETATM   30  C   UNL     1      41.003  -9.933  13.120  1.00  0.00     0.003 A 
ENDBRANCH   3  22
TORSDOF 5
ENDMDL
MODEL 3
REMARK VINA RESULT:      -9.7      1.981     10.410
REMARK  5 active torsions:
REMARK  status: ('A' for Active; 'I' for Inactive)
REMARK    1  A    between atoms: C_4  and  O_5 
REMARK    2  A    between atoms: O_5  and  C_6 
REMARK    3  A    between atoms: C_6  and  C_7 
REMARK       I    between atoms: C_7  and  N_8 
REMARK    4  A    between atoms: N_8  and  C_9 
REMARK    5  A    between atoms: C_11  and  C_12 
ROOT
HETATM    1  C   UNL     1      42.662 -14.169   5.860  1.00  0.00     0.035 A 
HETATM    2  C   UNL     1      43.164 -15.428   5.515  1.00  0.00     0.045 A 
HETATM    3  C   UNL     1      42.512 -16.235   4.566  1.00  0.00     0.019 A 
HETATM    4  C   UNL     1      41.323 -15.769   3.989  1.00  0.00     0.016 A 
HETATM    5  C   UNL     1      40.810 -14.517   4.329  1.00  0.00     0.003 A 
HETATM    6  C   UNL     1      41.486 -13.717   5.251  1.00  0.00     0.029 A 
ENDROOT
BRANCH   1   7
HETATM    7  N   UNL     1      43.290 -13.301   6.774  1.00  0.00    -0.325 N 
HETATM    8  C   UNL     1      44.266 -13.615   7.705  1.00  0.00     0.251 C 
HETATM    9  O   UNL     1      44.698 -14.738   7.952  1.00  0.00    -0.270 OA
HETATM   10  H   UNL     1      43.015 -12.324   6.738  1.00  0.00     0.169 HD
BRANCH   8  11
HETATM   11  C   UNL     1      44.773 -12.396   8.492  1.00  0.00     0.217 C 
HETATM   12  C   UNL     1      46.282 -12.259   8.309  1.00  0.00     0.050 C 
BRANCH  11  13
HETATM   13  O   UNL     1      44.527 -12.536   9.897  1.00  0.00    -0.337 OA
BRANCH  13  14
HETATM   14  C   UNL     1      43.821 -11.491  10.436  1.00  0.00     0.070 A 
HETATM   15  C   UNL     1      43.985 -11.050  11.751  1.00  0.00     0.043 A 
HETATM   16  C   UNL     1      43.234  -9.970  12.231  1.00  0.00    -0.059 A 
HETATM   17  C   UNL     1      43.403  -9.480  13.639  1.00  0.00     0.048 C 
HETATM   18  C   UNL     1      42.333  -9.327  11.371  1.00  0.00     0.013 A 
HETATM   19  C   UNL     1      42.177  -9.753  10.044  1.00  0.00    -0.059 A 
HETATM   20  C   UNL     1      42.944 -10.828   9.580  1.00  0.00     0.043 A 
HETATM   21  C   UNL     1      41.225  -9.035   9.134  1.00  0.00     0.048 C 
ENDBRANCH  13  14
ENDBRANCH  11  13
ENDBRANCH   8  11
ENDBRANCH   1   7
BRANCH   3  22
HETATM   22  C   UNL     1      43.058 -17.525   4.147  1.00  0.00     0.181 A 
HETATM   23  O   UNL     1      42.647 -17.998   2.925  1.00  0.00    -0.289 OA
HETATM   24  C   UNL     1      43.252 -19.215   2.819  1.00  0.00     0.106 A 
HETATM   25  C   UNL     1      43.999 -19.417   3.967  1.00  0.00     0.093 A 
HETATM   26  C   UNL     1      43.153 -20.116   1.767  1.00  0.00     0.040 A 
HETATM   27  N   UNL     1      43.871 -18.336   4.804  1.00  0.00    -0.221 NA
HETATM   28  C   UNL     1      44.718 -20.611   4.104  1.00  0.00     0.034 A 
HETATM   29  C   UNL     1      44.643 -21.551   3.064  1.00  0.00     0.002 A 
HETATM   30  C   UNL     1      43.875 -21.305   1.919  1.00  0.00     0.003 A 
ENDBRANCH   3  22
TORSDOF 5
ENDMDL
MODEL 4
REMARK VINA RESULT:      -9.5      2.185     10.281
REMARK  5 active torsions:
REMARK  status: ('A' for Active; 'I' for Inactive)
REMARK    1  A    between atoms: C_4  and  O_5 
REMARK    2  A    between atoms: O_5  and  C_6 
REMARK    3  A    between atoms: C_6  and  C_7 
REMARK       I    between atoms: C_7  and  N_8 
REMARK    4  A    between atoms: N_8  and  C_9 
REMARK    5  A    between atoms: C_11  and  C_12 
ROOT
HETATM    1  C   UNL     1      42.411 -13.771   5.864  1.00  0.00     0.035 A 
HETATM    2  C   UNL     1      42.831 -15.040   5.454  1.00  0.00     0.045 A 
HETATM    3  C   UNL     1      42.134 -15.752   4.462  1.00  0.00     0.019 A 
HETATM    4  C   UNL     1      40.982 -15.179   3.907  1.00  0.00     0.016 A 
HETATM    5  C   UNL     1      40.551 -13.916   4.311  1.00  0.00     0.003 A 
HETATM    6  C   UNL     1      41.271 -13.211   5.276  1.00  0.00     0.029 A 
ENDROOT
BRANCH   1   7
HETATM    7  N   UNL     1      43.089 -12.995   6.825  1.00  0.00    -0.325 N 
HETATM    8  C   UNL     1      44.145 -13.382   7.632  1.00  0.00     0.251 C 
HETATM    9  O   UNL     1      44.626 -14.510   7.706  1.00  0.00    -0.270 OA
HETATM   10  H   UNL     1      42.785 -12.032   6.928  1.00  0.00     0.169 HD
BRANCH   8  11
HETATM   11  C   UNL     1      44.683 -12.247   8.518  1.00  0.00     0.217 C 
HETATM   12  C   UNL     1      46.209 -12.272   8.516  1.00  0.00     0.050 C 
BRANCH  11  13
HETATM   13  O   UNL     1      44.258 -12.395   9.878  1.00  0.00    -0.337 OA
BRANCH  13  14
HETATM   14  C   UNL     1      43.565 -11.313  10.357  1.00  0.00     0.070 A 
HETATM   15  C   UNL     1      42.578 -10.647   9.628  1.00  0.00     0.043 A 
HETATM   16  C   UNL     1      41.906  -9.553  10.187  1.00  0.00    -0.059 A 
HETATM   17  C   UNL     1      40.838  -8.831   9.418  1.00  0.00     0.048 C 
HETATM   18  C   UNL     1      42.222  -9.149  11.492  1.00  0.00     0.013 A 
HETATM   19  C   UNL     1      43.199  -9.824  12.236  1.00  0.00    -0.059 A 
HETATM   20  C   UNL     1      43.853 -10.922  11.664  1.00  0.00     0.043 A 
HETATM   21  C   UNL     1      43.505  -9.390  13.639  1.00  0.00     0.048 C 
ENDBRANCH  13  14
ENDBRANCH  11  13
ENDBRANCH   8  11
ENDBRANCH   1   7
BRANCH   3  22
HETATM   22  C   UNL     1      42.597 -17.052   3.978  1.00  0.00     0.181 A 
HETATM   23  O   UNL     1      43.491 -17.721   4.777  1.00  0.00    -0.289 OA
HETATM   24  C   UNL     1      43.789 -18.848   4.070  1.00  0.00     0.106 A 
HETATM   25  C   UNL     1      43.065 -18.811   2.891  1.00  0.00     0.093 A 
HETATM   26  C   UNL     1      44.663 -19.864   4.434  1.00  0.00     0.040 A 
HETATM   27  N   UNL     1      42.308 -17.666   2.842  1.00  0.00    -0.221 NA
HETATM   28  C   UNL     1      43.204 -19.866   1.979  1.00  0.00     0.034 A 
HETATM   29  C   UNL     1      44.079 -20.913   2.308  1.00  0.00     0.002 A 
HETATM   30  C   UNL     1      44.793 -20.910   3.513  1.00  0.00     0.003 A 
ENDBRANCH   3  22
TORSDOF 5
ENDMDL
MODEL 5
REMARK VINA RESULT:      -9.4      6.791     10.725
REMARK  5 active torsions:
REMARK  status: ('A' for Active; 'I' for Inactive)
REMARK    1  A    between atoms: C_4  and  O_5 
REMARK    2  A    between atoms: O_5  and  C_6 
REMARK    3  A    between atoms: C_6  and  C_7 
REMARK       I    between atoms: C_7  and  N_8 
REMARK    4  A    between atoms: N_8  and  C_9 
REMARK    5  A    between atoms: C_11  and  C_12 
ROOT
HETATM    1  C   UNL     1      42.446 -15.509   1.031  1.00  0.00     0.035 A 
HETATM    2  C   UNL     1      42.943 -16.759   1.413  1.00  0.00     0.045 A 
HETATM    3  C   UNL     1      43.247 -17.040   2.757  1.00  0.00     0.019 A 
HETATM    4  C   UNL     1      43.075 -16.030   3.712  1.00  0.00     0.016 A 
HETATM    5  C   UNL     1      42.585 -14.777   3.342  1.00  0.00     0.003 A 
HETATM    6  C   UNL     1      42.261 -14.524   2.009  1.00  0.00     0.029 A 
ENDROOT
BRANCH   1   7
HETATM    7  N   UNL     1      42.089 -15.180  -0.291  1.00  0.00    -0.325 N 
HETATM    8  C   UNL     1      40.871 -14.698  -0.743  1.00  0.00     0.251 C 
HETATM    9  O   UNL     1      39.855 -14.550  -0.070  1.00  0.00    -0.270 OA
HETATM   10  H   UNL     1      42.810 -15.287  -0.998  1.00  0.00     0.169 HD
BRANCH   8  11
HETATM   11  C   UNL     1      40.861 -14.383  -2.248  1.00  0.00     0.217 C 
HETATM   12  C   UNL     1      40.430 -15.621  -3.029  1.00  0.00     0.050 C 
BRANCH  11  13
HETATM   13  O   UNL     1      42.165 -14.017  -2.717  1.00  0.00    -0.337 OA
BRANCH  13  14
HETATM   14  C   UNL     1      42.355 -12.662  -2.808  1.00  0.00     0.070 A 
HETATM   15  C   UNL     1      42.892 -11.889  -1.776  1.00  0.00     0.043 A 
HETATM   16  C   UNL     1      43.065 -10.510  -1.945  1.00  0.00    -0.059 A 
HETATM   17  C   UNL     1      43.647  -9.667  -0.848  1.00  0.00     0.048 C 
HETATM   18  C   UNL     1      42.710  -9.920  -3.167  1.00  0.00     0.013 A 
HETATM   19  C   UNL     1      42.187 -10.693  -4.213  1.00  0.00    -0.059 A 
HETATM   20  C   UNL     1      42.032 -12.072  -4.029  1.00  0.00     0.043 A 
HETATM   21  C   UNL     1      41.837 -10.045  -5.519  1.00  0.00     0.048 C 
ENDBRANCH  13  14
ENDBRANCH  11  13
ENDBRANCH   8  11
ENDBRANCH   1   7
BRANCH   3  22
HETATM   22  C   UNL     1      43.705 -18.362   3.182  1.00  0.00     0.181 A 
HETATM   23  O   UNL     1      43.713 -19.347   2.224  1.00  0.00    -0.289 OA
HETATM   24  C   UNL     1      44.120 -20.460   2.896  1.00  0.00     0.106 A 
HETATM   25  C   UNL     1      44.343 -20.101   4.214  1.00  0.00     0.093 A 
HETATM   26  C   UNL     1      44.284 -21.740   2.382  1.00  0.00     0.040 A 
HETATM   27  N   UNL     1      44.079 -18.765   4.386  1.00  0.00    -0.221 NA
HETATM   28  C   UNL     1      44.768 -21.083   5.119  1.00  0.00     0.034 A 
HETATM   29  C   UNL     1      44.943 -22.391   4.642  1.00  0.00     0.002 A 
HETATM   30  C   UNL     1      44.705 -22.711   3.299  1.00  0.00     0.003 A 
ENDBRANCH   3  22
TORSDOF 5
ENDMDL
MODEL 6
REMARK VINA RESULT:      -9.3      4.812      8.659
REMARK  5 active torsions:
REMARK  status: ('A' for Active; 'I' for Inactive)
REMARK    1  A    between atoms: C_4  and  O_5 
REMARK    2  A    between atoms: O_5  and  C_6 
REMARK    3  A    between atoms: C_6  and  C_7 
REMARK       I    between atoms: C_7  and  N_8 
REMARK    4  A    between atoms: N_8  and  C_9 
REMARK    5  A    between atoms: C_11  and  C_12 
ROOT
HETATM    1  C   UNL     1      42.870 -14.897   5.214  1.00  0.00     0.035 A 
HETATM    2  C   UNL     1      43.136 -16.178   4.720  1.00  0.00     0.045 A 
HETATM    3  C   UNL     1      43.949 -17.077   5.433  1.00  0.00     0.019 A 
HETATM    4  C   UNL     1      44.520 -16.656   6.641  1.00  0.00     0.016 A 
HETATM    5  C   UNL     1      44.265 -15.379   7.141  1.00  0.00     0.003 A 
HETATM    6  C   UNL     1      43.433 -14.510   6.435  1.00  0.00     0.029 A 
ENDROOT
BRANCH   1   7
HETATM    7  N   UNL     1      42.035 -13.967   4.564  1.00  0.00    -0.325 N 
HETATM    8  C   UNL     1      42.295 -13.268   3.397  1.00  0.00     0.251 C 
HETATM    9  O   UNL     1      43.347 -13.280   2.763  1.00  0.00    -0.270 OA
HETATM   10  H   UNL     1      41.126 -13.799   4.985  1.00  0.00     0.169 HD
BRANCH   8  11
HETATM   11  C   UNL     1      41.121 -12.386   2.941  1.00  0.00     0.217 C 
HETATM   12  C   UNL     1      40.563 -11.616   4.135  1.00  0.00     0.050 C 
BRANCH  11  13
HETATM   13  O   UNL     1      40.050 -13.172   2.404  1.00  0.00    -0.337 OA
BRANCH  13  14
HETATM   14  C   UNL     1      40.443 -14.028   1.408  1.00  0.00     0.070 A 
HETATM   15  C   UNL     1      40.733 -13.613   0.107  1.00  0.00     0.043 A 
HETATM   16  C   UNL     1      41.138 -14.546  -0.857  1.00  0.00    -0.059 A 
HETATM   17  C   UNL     1      41.459 -14.114  -2.258  1.00  0.00     0.048 C 
HETATM   18  C   UNL     1      41.266 -15.893  -0.494  1.00  0.00     0.013 A 
HETATM   19  C   UNL     1      40.994 -16.314   0.816  1.00  0.00    -0.059 A 
HETATM   20  C   UNL     1      40.601 -15.366   1.767  1.00  0.00     0.043 A 
HETATM   21  C   UNL     1      41.161 -17.757   1.188  1.00  0.00     0.048 C 
ENDBRANCH  13  14
ENDBRANCH  11  13
ENDBRANCH   8  11
ENDBRANCH   1   7
BRANCH   3  22
HETATM   22  C   UNL     1      44.184 -18.442   4.962  1.00  0.00     0.181 A 
HETATM   23  O   UNL     1      43.974 -18.675   3.625  1.00  0.00    -0.289 OA
HETATM   24  C   UNL     1      44.207 -20.009   3.479  1.00  0.00     0.106 A 
HETATM   25  C   UNL     1      44.550 -20.516   4.721  1.00  0.00     0.093 A 
HETATM   26  C   UNL     1      44.117 -20.757   2.312  1.00  0.00     0.040 A 
HETATM   27  N   UNL     1      44.535 -19.512   5.656  1.00  0.00    -0.221 NA
HETATM   28  C   UNL     1      44.834 -21.883   4.838  1.00  0.00     0.034 A 
HETATM   29  C   UNL     1      44.753 -22.677   3.682  1.00  0.00     0.002 A 
HETATM   30  C   UNL     1      44.402 -22.122   2.445  1.00  0.00     0.003 A 
ENDBRANCH   3  22
TORSDOF 5
ENDMDL
MODEL 7
REMARK VINA RESULT:      -9.1      4.814      8.315
REMARK  5 active torsions:
REMARK  status: ('A' for Active; 'I' for Inactive)
REMARK    1  A    between atoms: C_4  and  O_5 
REMARK    2  A    between atoms: O_5  and  C_6 
REMARK    3  A    between atoms: C_6  and  C_7 
REMARK       I    between atoms: C_7  and  N_8 
REMARK    4  A    between atoms: N_8  and  C_9 
REMARK    5  A    between atoms: C_11  and  C_12 
ROOT
HETATM    1  C   UNL     1      42.375 -14.163   4.868  1.00  0.00     0.035 A 
HETATM    2  C   UNL     1      42.391 -14.078   3.473  1.00  0.00     0.045 A 
HETATM    3  C   UNL     1      41.908 -12.937   2.808  1.00  0.00     0.019 A 
HETATM    4  C   UNL     1      41.375 -11.889   3.571  1.00  0.00     0.016 A 
HETATM    5  C   UNL     1      41.350 -11.964   4.963  1.00  0.00     0.003 A 
HETATM    6  C   UNL     1      41.859 -13.092   5.608  1.00  0.00     0.029 A 
ENDROOT
BRANCH   1   7
HETATM    7  N   UNL     1      42.878 -15.263   5.591  1.00  0.00    -0.325 N 
HETATM    8  C   UNL     1      42.160 -16.307   6.149  1.00  0.00     0.251 C 
HETATM    9  O   UNL     1      40.937 -16.412   6.180  1.00  0.00    -0.270 OA
HETATM   10  H   UNL     1      43.886 -15.313   5.701  1.00  0.00     0.169 HD
BRANCH   8  11
HETATM   11  C   UNL     1      43.050 -17.374   6.809  1.00  0.00     0.217 C 
HETATM   12  C   UNL     1      43.342 -16.976   8.253  1.00  0.00     0.050 C 
BRANCH  11  13
HETATM   13  O   UNL     1      44.310 -17.496   6.139  1.00  0.00    -0.337 OA
BRANCH  13  14
HETATM   14  C   UNL     1      44.359 -18.537   5.248  1.00  0.00     0.070 A 
HETATM   15  C   UNL     1      44.685 -19.845   5.610  1.00  0.00     0.043 A 
HETATM   16  C   UNL     1      44.706 -20.860   4.645  1.00  0.00    -0.059 A 
HETATM   17  C   UNL     1      45.048 -22.272   5.021  1.00  0.00     0.048 C 
HETATM   18  C   UNL     1      44.379 -20.549   3.318  1.00  0.00     0.013 A 
HETATM   19  C   UNL     1      44.033 -19.241   2.950  1.00  0.00    -0.059 A 
HETATM   20  C   UNL     1      44.007 -18.242   3.931  1.00  0.00     0.043 A 
HETATM   21  C   UNL     1      43.664 -18.935   1.529  1.00  0.00     0.048 C 
ENDBRANCH  13  14
ENDBRANCH  11  13
ENDBRANCH   8  11
ENDBRANCH   1   7
BRANCH   3  22
HETATM   22  C   UNL     1      41.977 -12.807   1.353  1.00  0.00     0.181 A 
HETATM   23  O   UNL     1      41.420 -13.825   0.618  1.00  0.00    -0.289 OA
HETATM   24  C   UNL     1      41.673 -13.477  -0.675  1.00  0.00     0.106 A 
HETATM   25  C   UNL     1      42.359 -12.275  -0.664  1.00  0.00     0.093 A 
HETATM   26  C   UNL     1      41.327 -14.184  -1.819  1.00  0.00     0.040 A 
HETATM   27  N   UNL     1      42.545 -11.855   0.630  1.00  0.00    -0.221 NA
HETATM   28  C   UNL     1      42.743 -11.705  -1.884  1.00  0.00     0.034 A 
HETATM   29  C   UNL     1      42.414 -12.388  -3.066  1.00  0.00     0.002 A 
HETATM   30  C   UNL     1      41.719 -13.603  -3.031  1.00  0.00     0.003 A 
ENDBRANCH   3  22
TORSDOF 5
ENDMDL
MODEL 8
REMARK VINA RESULT:      -9.1      5.366      9.049
REMARK  5 active torsions:
REMARK  status: ('A' for Active; 'I' for Inactive)
REMARK    1  A    between atoms: C_4  and  O_5 
REMARK    2  A    between atoms: O_5  and  C_6 
REMARK    3  A    between atoms: C_6  and  C_7 
REMARK       I    between atoms: C_7  and  N_8 
REMARK    4  A    between atoms: N_8  and  C_9 
REMARK    5  A    between atoms: C_11  and  C_12 
ROOT
HETATM    1  C   UNL     1      41.286 -15.204   4.537  1.00  0.00     0.035 A 
HETATM    2  C   UNL     1      41.192 -15.315   3.147  1.00  0.00     0.045 A 
HETATM    3  C   UNL     1      40.403 -14.424   2.398  1.00  0.00     0.019 A 
HETATM    4  C   UNL     1      39.678 -13.434   3.075  1.00  0.00     0.016 A 
HETATM    5  C   UNL     1      39.760 -13.317   4.462  1.00  0.00     0.003 A 
HETATM    6  C   UNL     1      40.571 -14.191   5.187  1.00  0.00     0.029 A 
ENDROOT
BRANCH   1   7
HETATM    7  N   UNL     1      42.088 -16.042   5.337  1.00  0.00    -0.325 N 
HETATM    8  C   UNL     1      41.916 -17.393   5.583  1.00  0.00     0.251 C 
HETATM    9  O   UNL     1      40.974 -18.085   5.206  1.00  0.00    -0.270 OA
HETATM   10  H   UNL     1      42.902 -15.615   5.769  1.00  0.00     0.169 HD
BRANCH   8  11
HETATM   11  C   UNL     1      43.030 -18.001   6.451  1.00  0.00     0.217 C 
HETATM   12  C   UNL     1      43.216 -17.160   7.711  1.00  0.00     0.050 C 
BRANCH  11  13
HETATM   13  O   UNL     1      44.286 -18.017   5.761  1.00  0.00    -0.337 OA
BRANCH  13  14
HETATM   14  C   UNL     1      44.249 -18.695   4.570  1.00  0.00     0.070 A 
HETATM   15  C   UNL     1      44.381 -20.082   4.470  1.00  0.00     0.043 A 
HETATM   16  C   UNL     1      44.324 -20.706   3.218  1.00  0.00    -0.059 A 
HETATM   17  C   UNL     1      44.458 -22.196   3.095  1.00  0.00     0.048 C 
HETATM   18  C   UNL     1      44.116 -19.926   2.072  1.00  0.00     0.013 A 
HETATM   19  C   UNL     1      43.964 -18.536   2.167  1.00  0.00    -0.059 A 
HETATM   20  C   UNL     1      44.013 -17.930   3.428  1.00  0.00     0.043 A 
HETATM   21  C   UNL     1      43.718 -17.723   0.931  1.00  0.00     0.048 C 
ENDBRANCH  13  14
ENDBRANCH  11  13
ENDBRANCH   8  11
ENDBRANCH   1   7
BRANCH   3  22
HETATM   22  C   UNL     1      40.346 -14.487   0.938  1.00  0.00     0.181 A 
HETATM   23  O   UNL     1      39.362 -13.747   0.330  1.00  0.00    -0.289 OA
HETATM   24  C   UNL     1      39.503 -14.032  -0.996  1.00  0.00     0.106 A 
HETATM   25  C   UNL     1      40.558 -14.918  -1.128  1.00  0.00     0.093 A 
HETATM   26  C   UNL     1      38.737 -13.546  -2.047  1.00  0.00     0.040 A 
HETATM   27  N   UNL     1      41.089 -15.199   0.107  1.00  0.00    -0.221 NA
HETATM   28  C   UNL     1      40.903 -15.372  -2.407  1.00  0.00     0.034 A 
HETATM   29  C   UNL     1      40.153 -14.907  -3.499  1.00  0.00     0.002 A 
HETATM   30  C   UNL     1      39.092 -14.010  -3.319  1.00  0.00     0.003 A 
ENDBRANCH   3  22
TORSDOF 5
ENDMDL
MODEL 9
REMARK VINA RESULT:      -9.0      3.200      4.254
REMARK  5 active torsions:
REMARK  status: ('A' for Active; 'I' for Inactive)
REMARK    1  A    between atoms: C_4  and  O_5 
REMARK    2  A    between atoms: O_5  and  C_6 
REMARK    3  A    between atoms: C_6  and  C_7 
REMARK       I    between atoms: C_7  and  N_8 
REMARK    4  A    between atoms: N_8  and  C_9 
REMARK    5  A    between atoms: C_11  and  C_12 
ROOT
HETATM    1  C   UNL     1      41.280 -12.888   4.623  1.00  0.00     0.035 A 
HETATM    2  C   UNL     1      41.862 -12.497   5.833  1.00  0.00     0.045 A 
HETATM    3  C   UNL     1      41.410 -11.360   6.524  1.00  0.00     0.019 A 
HETATM    4  C   UNL     1      40.378 -10.596   5.961  1.00  0.00     0.016 A 
HETATM    5  C   UNL     1      39.793 -10.973   4.752  1.00  0.00     0.003 A 
HETATM    6  C   UNL     1      40.235 -12.122   4.094  1.00  0.00     0.029 A 
ENDROOT
BRANCH   1   7
HETATM    7  N   UNL     1      41.665 -14.037   3.905  1.00  0.00    -0.325 N 
HETATM    8  C   UNL     1      42.456 -14.099   2.770  1.00  0.00     0.251 C 
HETATM    9  O   UNL     1      42.896 -13.142   2.139  1.00  0.00    -0.270 OA
HETATM   10  H   UNL     1      41.345 -14.930   4.269  1.00  0.00     0.169 HD
BRANCH   8  11
HETATM   11  C   UNL     1      42.727 -15.536   2.294  1.00  0.00     0.217 C 
HETATM   12  C   UNL     1      42.177 -15.723   0.883  1.00  0.00     0.050 C 
BRANCH  11  13
HETATM   13  O   UNL     1      42.078 -16.499   3.134  1.00  0.00    -0.337 OA
BRANCH  13  14
HETATM   14  C   UNL     1      42.895 -17.531   3.518  1.00  0.00     0.070 A 
HETATM   15  C   UNL     1      43.119 -18.667   2.737  1.00  0.00     0.043 A 
HETATM   16  C   UNL     1      43.975 -19.678   3.193  1.00  0.00    -0.059 A 
HETATM   17  C   UNL     1      44.230 -20.902   2.363  1.00  0.00     0.048 C 
HETATM   18  C   UNL     1      44.616 -19.526   4.430  1.00  0.00     0.013 A 
HETATM   19  C   UNL     1      44.410 -18.380   5.210  1.00  0.00    -0.059 A 
HETATM   20  C   UNL     1      43.560 -17.376   4.734  1.00  0.00     0.043 A 
HETATM   21  C   UNL     1      45.125 -18.227   6.520  1.00  0.00     0.048 C 
ENDBRANCH  13  14
ENDBRANCH  11  13
ENDBRANCH   8  11
ENDBRANCH   1   7
BRANCH   3  22
HETATM   22  C   UNL     1      41.965 -10.975   7.821  1.00  0.00     0.181 A 
HETATM   23  O   UNL     1      43.258 -11.362   8.075  1.00  0.00    -0.289 OA
HETATM   24  C   UNL     1      43.490 -10.930   9.346  1.00  0.00     0.106 A 
HETATM   25  C   UNL     1      42.341 -10.304   9.797  1.00  0.00     0.093 A 
HETATM   26  C   UNL     1      44.655 -11.083  10.087  1.00  0.00     0.040 A 
HETATM   27  N   UNL     1      41.377 -10.336   8.819  1.00  0.00    -0.221 NA
HETATM   28  C   UNL     1      42.324  -9.774  11.094  1.00  0.00     0.034 A 
HETATM   29  C   UNL     1      43.481  -9.909  11.878  1.00  0.00     0.002 A 
HETATM   30  C   UNL     1      44.623 -10.551  11.382  1.00  0.00     0.003 A 
ENDBRANCH   3  22
TORSDOF 5
ENDMDL
MODEL 10
REMARK VINA RESULT:      -8.9      3.229      3.923
REMARK  5 active torsions:
REMARK  status: ('A' for Active; 'I' for Inactive)
REMARK    1  A    between atoms: C_4  and  O_5 
REMARK    2  A    between atoms: O_5  and  C_6 
REMARK    3  A    between atoms: C_6  and  C_7 
REMARK       I    between atoms: C_7  and  N_8 
REMARK    4  A    between atoms: N_8  and  C_9 
REMARK    5  A    between atoms: C_11  and  C_12 
ROOT
HETATM    1  C   UNL     1      41.409 -11.798   4.888  1.00  0.00     0.035 A 
HETATM    2  C   UNL     1      41.662 -11.788   6.263  1.00  0.00     0.045 A 
HETATM    3  C   UNL     1      41.622 -10.593   7.002  1.00  0.00     0.019 A 
HETATM    4  C   UNL     1      41.355  -9.393   6.327  1.00  0.00     0.016 A 
HETATM    5  C   UNL     1      41.105  -9.390   4.955  1.00  0.00     0.003 A 
HETATM    6  C   UNL     1      41.121 -10.590   4.243  1.00  0.00     0.029 A 
ENDROOT
BRANCH   1   7
HETATM    7  N   UNL     1      41.398 -12.967   4.103  1.00  0.00    -0.325 N 
HETATM    8  C   UNL     1      42.488 -13.667   3.613  1.00  0.00     0.251 C 
HETATM    9  O   UNL     1      43.667 -13.337   3.713  1.00  0.00    -0.270 OA
HETATM   10  H   UNL     1      40.488 -13.360   3.884  1.00  0.00     0.169 HD
BRANCH   8  11
HETATM   11  C   UNL     1      42.099 -14.943   2.849  1.00  0.00     0.217 C 
HETATM   12  C   UNL     1      40.966 -14.634   1.875  1.00  0.00     0.050 C 
BRANCH  11  13
HETATM   13  O   UNL     1      41.630 -15.966   3.737  1.00  0.00    -0.337 OA
BRANCH  13  14
HETATM   14  C   UNL     1      42.532 -16.979   3.933  1.00  0.00     0.070 A 
HETATM   15  C   UNL     1      43.355 -17.069   5.058  1.00  0.00     0.043 A 
HETATM   16  C   UNL     1      44.249 -18.139   5.193  1.00  0.00    -0.059 A 
HETATM   17  C   UNL     1      45.135 -18.253   6.399  1.00  0.00     0.048 C 
HETATM   18  C   UNL     1      44.292 -19.125   4.198  1.00  0.00     0.013 A 
HETATM   19  C   UNL     1      43.456 -19.050   3.076  1.00  0.00    -0.059 A 
HETATM   20  C   UNL     1      42.562 -17.979   2.962  1.00  0.00     0.043 A 
HETATM   21  C   UNL     1      43.502 -20.129   2.034  1.00  0.00     0.048 C 
ENDBRANCH  13  14
ENDBRANCH  11  13
ENDBRANCH   8  11
ENDBRANCH   1   7
BRANCH   3  22
HETATM   22  C   UNL     1      41.821 -10.575   8.451  1.00  0.00     0.181 A 
HETATM   23  O   UNL     1      43.104 -10.367   8.892  1.00  0.00    -0.289 OA
HETATM   24  C   UNL     1      43.008 -10.455  10.248  1.00  0.00     0.106 A 
HETATM   25  C   UNL     1      41.683 -10.705  10.562  1.00  0.00     0.093 A 
HETATM   26  C   UNL     1      44.035 -10.331  11.175  1.00  0.00     0.040 A 
HETATM   27  N   UNL     1      40.936 -10.777   9.413  1.00  0.00    -0.221 NA
HETATM   28  C   UNL     1      41.323 -10.846  11.909  1.00  0.00     0.034 A 
HETATM   29  C   UNL     1      42.332 -10.730  12.879  1.00  0.00     0.002 A 
HETATM   30  C   UNL     1      43.661 -10.477  12.516  1.00  0.00     0.003 A 
ENDBRANCH   3  22
TORSDOF 5
ENDMDL
