MODEL 1
REMARK VINA RESULT:      -9.3      0.000      0.000
REMARK  4 active torsions:
REMARK  status: ('A' for Active; 'I' for Inactive)
REMARK    1  A    between atoms: O_2  and  C_3 
REMARK    2  A    between atoms: C_3  and  C_4 
REMARK    3  A    between atoms: N_11  and  C_13 
REMARK    4  A    between atoms: C_13  and  C_14 
ROOT
HETATM    1  C   UNL     1      42.629 -16.119   4.854  1.00  0.00     0.290 C 
HETATM    2  N   UNL     1      42.625 -15.700   3.335  1.00  0.00    -0.047 N 
HETATM    3  H   UNL     1      43.595 -15.399   3.164  1.00  0.00     0.279 HD
HETATM    4  H   UNL     1      42.023 -14.867   3.299  1.00  0.00     0.279 HD
HETATM    5  C   UNL     1      42.254 -16.771   2.302  1.00  0.00     0.172 C 
HETATM    6  C   UNL     1      40.733 -16.986   2.173  1.00  0.00     0.073 C 
HETATM    7  C   UNL     1      39.977 -15.787   1.620  1.00  0.00     0.238 C 
HETATM    8  N   UNL     1      40.568 -15.395   0.285  1.00  0.00    -0.067 N 
HETATM    9  H   UNL     1      40.380 -16.162  -0.378  1.00  0.00     0.280 HD
HETATM   10  C   UNL     1      42.047 -15.129   0.333  1.00  0.00     0.238 C 
HETATM   11  C   UNL     1      42.797 -16.314   0.929  1.00  0.00     0.073 C 
HETATM   12  C   UNL     1      42.909 -18.047   2.750  1.00  0.00     0.053 A 
HETATM   13  C   UNL     1      43.472 -18.307   3.988  1.00  0.00    -0.018 A 
HETATM   14  C   UNL     1      43.561 -17.311   5.088  1.00  0.00     0.085 C 
HETATM   15  N   UNL     1      43.015 -19.203   2.008  1.00  0.00    -0.356 N 
HETATM   16  H   UNL     1      42.689 -19.365   1.063  1.00  0.00     0.166 HD
HETATM   17  C   UNL     1      43.652 -20.181   2.737  1.00  0.00     0.043 A 
HETATM   18  C   UNL     1      43.953 -19.644   3.987  1.00  0.00    -0.001 A 
HETATM   19  C   UNL     1      43.981 -21.494   2.381  1.00  0.00     0.030 A 
HETATM   20  C   UNL     1      44.639 -22.277   3.334  1.00  0.00     0.002 A 
HETATM   21  C   UNL     1      44.953 -21.767   4.590  1.00  0.00     0.001 A 
HETATM   22  C   UNL     1      44.617 -20.451   4.931  1.00  0.00     0.014 A 
ENDROOT
BRANCH   1  23
HETATM   23  C   UNL     1      41.203 -16.240   5.384  1.00  0.00     0.289 C 
HETATM   24  O   UNL     1      40.864 -17.243   6.013  1.00  0.00    -0.263 OA
BRANCH  23  25
HETATM   25  O   UNL     1      40.413 -15.207   5.037  1.00  0.00    -0.325 OA
HETATM   26  C   UNL     1      40.507 -14.051   5.880  1.00  0.00     0.213 C 
ENDBRANCH  23  25
ENDBRANCH   1  23
BRANCH   8  27
HETATM   27  C   UNL     1      39.831 -14.202  -0.351  1.00  0.00     0.273 C 
BRANCH  27  28
HETATM   28  C   UNL     1      39.244 -14.507  -1.698  1.00  0.00    -0.033 A 
HETATM   29  C   UNL     1      37.967 -14.031  -2.036  1.00  0.00     0.009 A 
HETATM   30  C   UNL     1      37.406 -14.330  -3.278  1.00  0.00     0.001 A 
HETATM   31  C   UNL     1      38.113 -15.105  -4.194  1.00  0.00     0.000 A 
HETATM   32  C   UNL     1      39.385 -15.575  -3.874  1.00  0.00     0.001 A 
HETATM   33  C   UNL     1      39.952 -15.277  -2.634  1.00  0.00     0.009 A 
ENDBRANCH  27  28
ENDBRANCH   8  27
TORSDOF 4
ENDMDL
MODEL 2
REMARK VINA RESULT:      -9.2      1.609      7.689
REMARK  4 active torsions:
REMARK  status: ('A' for Active; 'I' for Inactive)
REMARK    1  A    between atoms: O_2  and  C_3 
REMARK    2  A    between atoms: C_3  and  C_4 
REMARK    3  A    between atoms: N_11  and  C_13 
REMARK    4  A    between atoms: C_13  and  C_14 
ROOT
HETATM    1  C   UNL     1      39.727 -14.552   3.021  1.00  0.00     0.290 C 
HETATM    2  N   UNL     1      40.411 -15.971   2.977  1.00  0.00    -0.047 N 
HETATM    3  H   UNL     1      39.625 -16.613   2.810  1.00  0.00     0.279 HD
HETATM    4  H   UNL     1      40.749 -16.123   3.935  1.00  0.00     0.279 HD
HETATM    5  C   UNL     1      41.480 -16.212   1.903  1.00  0.00     0.172 C 
HETATM    6  C   UNL     1      42.859 -15.637   2.281  1.00  0.00     0.073 C 
HETATM    7  C   UNL     1      43.508 -16.310   3.482  1.00  0.00     0.238 C 
HETATM    8  N   UNL     1      43.610 -17.796   3.229  1.00  0.00    -0.067 N 
HETATM    9  H   UNL     1      44.271 -17.937   2.450  1.00  0.00     0.280 HD
HETATM   10  C   UNL     1      42.296 -18.444   2.890  1.00  0.00     0.238 C 
HETATM   11  C   UNL     1      41.626 -17.739   1.715  1.00  0.00     0.073 C 
HETATM   12  C   UNL     1      40.985 -15.554   0.646  1.00  0.00     0.053 A 
HETATM   13  C   UNL     1      39.943 -14.650   0.533  1.00  0.00    -0.018 A 
HETATM   14  C   UNL     1      39.092 -14.211   1.670  1.00  0.00     0.085 C 
HETATM   15  N   UNL     1      41.526 -15.706  -0.611  1.00  0.00    -0.356 N 
HETATM   16  H   UNL     1      42.314 -16.283  -0.881  1.00  0.00     0.166 HD
HETATM   17  C   UNL     1      40.838 -14.939  -1.523  1.00  0.00     0.043 A 
HETATM   18  C   UNL     1      39.835 -14.264  -0.831  1.00  0.00    -0.001 A 
HETATM   19  C   UNL     1      41.032 -14.795  -2.901  1.00  0.00     0.030 A 
HETATM   20  C   UNL     1      40.170 -13.936  -3.589  1.00  0.00     0.002 A 
HETATM   21  C   UNL     1      39.158 -13.249  -2.925  1.00  0.00     0.001 A 
HETATM   22  C   UNL     1      38.978 -13.404  -1.545  1.00  0.00     0.014 A 
ENDROOT
BRANCH   1  23
HETATM   23  C   UNL     1      40.671 -13.515   3.623  1.00  0.00     0.289 C 
HETATM   24  O   UNL     1      41.048 -12.559   2.945  1.00  0.00    -0.263 OA
BRANCH  23  25
HETATM   25  O   UNL     1      41.056 -13.808   4.880  1.00  0.00    -0.325 OA
HETATM   26  C   UNL     1      42.316 -13.254   5.282  1.00  0.00     0.213 C 
ENDBRANCH  23  25
ENDBRANCH   1  23
BRANCH   8  27
HETATM   27  C   UNL     1      44.287 -18.541   4.394  1.00  0.00     0.273 C 
BRANCH  27  28
HETATM   28  C   UNL     1      44.452 -20.013   4.151  1.00  0.00    -0.033 A 
HETATM   29  C   UNL     1      44.409 -20.522   2.844  1.00  0.00     0.009 A 
HETATM   30  C   UNL     1      44.539 -21.892   2.613  1.00  0.00     0.001 A 
HETATM   31  C   UNL     1      44.714 -22.766   3.683  1.00  0.00     0.000 A 
HETATM   32  C   UNL     1      44.769 -22.272   4.984  1.00  0.00     0.001 A 
HETATM   33  C   UNL     1      44.641 -20.902   5.221  1.00  0.00     0.009 A 
ENDBRANCH  27  28
ENDBRANCH   8  27
TORSDOF 4
ENDMDL
MODEL 3
REMARK VINA RESULT:      -9.1      1.154      1.349
REMARK  4 active torsions:
REMARK  status: ('A' for Active; 'I' for Inactive)
REMARK    1  A    between atoms: O_2  and  C_3 
REMARK    2  A    between atoms: C_3  and  C_4 
REMARK    3  A    between atoms: N_11  and  C_13 
REMARK    4  A    between atoms: C_13  and  C_14 
ROOT
HETATM    1  C   UNL     1      42.601 -16.090   4.775  1.00  0.00     0.290 C 
HETATM    2  N   UNL     1      42.417 -15.583   3.294  1.00  0.00    -0.047 N 
HETATM    3  H   UNL     1      43.358 -15.261   3.030  1.00  0.00     0.279 HD
HETATM    4  H   UNL     1      41.810 -14.759   3.378  1.00  0.00     0.279 HD
HETATM    5  C   UNL     1      41.935 -16.598   2.250  1.00  0.00     0.172 C 
HETATM    6  C   UNL     1      40.411 -16.827   2.286  1.00  0.00     0.073 C 
HETATM    7  C   UNL     1      39.588 -15.608   1.896  1.00  0.00     0.238 C 
HETATM    8  N   UNL     1      40.015 -15.131   0.528  1.00  0.00    -0.067 N 
HETATM    9  H   UNL     1      39.756 -15.861  -0.153  1.00  0.00     0.280 HD
HETATM   10  C   UNL     1      41.488 -14.847   0.418  1.00  0.00     0.238 C 
HETATM   11  C   UNL     1      42.311 -16.055   0.852  1.00  0.00     0.073 C 
HETATM   12  C   UNL     1      42.647 -17.889   2.542  1.00  0.00     0.053 A 
HETATM   13  C   UNL     1      43.353 -18.212   3.688  1.00  0.00    -0.018 A 
HETATM   14  C   UNL     1      43.562 -17.280   4.828  1.00  0.00     0.085 C 
HETATM   15  N   UNL     1      42.674 -18.998   1.726  1.00  0.00    -0.356 N 
HETATM   16  H   UNL     1      42.240 -19.110   0.817  1.00  0.00     0.166 HD
HETATM   17  C   UNL     1      43.398 -20.008   2.317  1.00  0.00     0.043 A 
HETATM   18  C   UNL     1      43.839 -19.540   3.553  1.00  0.00    -0.001 A 
HETATM   19  C   UNL     1      43.692 -21.293   1.848  1.00  0.00     0.030 A 
HETATM   20  C   UNL     1      44.462 -22.121   2.670  1.00  0.00     0.002 A 
HETATM   21  C   UNL     1      44.917 -21.681   3.909  1.00  0.00     0.001 A 
HETATM   22  C   UNL     1      44.614 -20.392   4.364  1.00  0.00     0.014 A 
ENDROOT
BRANCH   1  23
HETATM   23  C   UNL     1      41.248 -16.261   5.459  1.00  0.00     0.289 C 
HETATM   24  O   UNL     1      40.985 -17.311   6.046  1.00  0.00    -0.263 OA
BRANCH  23  25
HETATM   25  O   UNL     1      40.424 -15.211   5.286  1.00  0.00    -0.325 OA
HETATM   26  C   UNL     1      40.782 -14.023   6.005  1.00  0.00     0.213 C 
ENDBRANCH  23  25
ENDBRANCH   1  23
BRANCH   8  27
HETATM   27  C   UNL     1      39.201 -13.913   0.053  1.00  0.00     0.273 C 
BRANCH  27  28
HETATM   28  C   UNL     1      39.647 -13.372  -1.274  1.00  0.00    -0.033 A 
HETATM   29  C   UNL     1      40.127 -12.057  -1.374  1.00  0.00     0.009 A 
HETATM   30  C   UNL     1      40.522 -11.539  -2.608  1.00  0.00     0.001 A 
HETATM   31  C   UNL     1      40.442 -12.329  -3.753  1.00  0.00     0.000 A 
HETATM   32  C   UNL     1      39.976 -13.639  -3.664  1.00  0.00     0.001 A 
HETATM   33  C   UNL     1      39.582 -14.162  -2.432  1.00  0.00     0.009 A 
ENDBRANCH  27  28
ENDBRANCH   8  27
TORSDOF 4
ENDMDL
MODEL 4
REMARK VINA RESULT:      -9.0      2.774      6.898
REMARK  4 active torsions:
REMARK  status: ('A' for Active; 'I' for Inactive)
REMARK    1  A    between atoms: O_2  and  C_3 
REMARK    2  A    between atoms: C_3  and  C_4 
REMARK    3  A    between atoms: N_11  and  C_13 
REMARK    4  A    between atoms: C_13  and  C_14 
ROOT
HETATM    1  C   UNL     1      40.271 -16.077   1.620  1.00  0.00     0.290 C 
HETATM    2  N   UNL     1      40.013 -15.554   3.084  1.00  0.00    -0.047 N 
HETATM    3  H   UNL     1      39.315 -16.212   3.457  1.00  0.00     0.279 HD
HETATM    4  H   UNL     1      39.554 -14.644   2.955  1.00  0.00     0.279 HD
HETATM    5  C   UNL     1      41.208 -15.509   4.044  1.00  0.00     0.172 C 
HETATM    6  C   UNL     1      42.105 -14.272   3.837  1.00  0.00     0.073 C 
HETATM    7  C   UNL     1      41.429 -12.949   4.164  1.00  0.00     0.238 C 
HETATM    8  N   UNL     1      40.909 -12.989   5.582  1.00  0.00    -0.067 N 
HETATM    9  H   UNL     1      41.724 -13.040   6.213  1.00  0.00     0.280 HD
HETATM   10  C   UNL     1      39.992 -14.148   5.858  1.00  0.00     0.238 C 
HETATM   11  C   UNL     1      40.655 -15.470   5.488  1.00  0.00     0.073 C 
HETATM   12  C   UNL     1      42.005 -16.759   3.801  1.00  0.00     0.053 A 
HETATM   13  C   UNL     1      41.886 -17.629   2.731  1.00  0.00    -0.018 A 
HETATM   14  C   UNL     1      40.883 -17.481   1.643  1.00  0.00     0.085 C 
HETATM   15  N   UNL     1      43.034 -17.226   4.588  1.00  0.00    -0.356 N 
HETATM   16  H   UNL     1      43.396 -16.817   5.441  1.00  0.00     0.166 HD
HETATM   17  C   UNL     1      43.555 -18.383   4.055  1.00  0.00     0.043 A 
HETATM   18  C   UNL     1      42.850 -18.661   2.886  1.00  0.00    -0.001 A 
HETATM   19  C   UNL     1      44.594 -19.197   4.522  1.00  0.00     0.030 A 
HETATM   20  C   UNL     1      44.916 -20.329   3.769  1.00  0.00     0.002 A 
HETATM   21  C   UNL     1      44.228 -20.633   2.598  1.00  0.00     0.001 A 
HETATM   22  C   UNL     1      43.192 -19.809   2.144  1.00  0.00     0.014 A 
ENDROOT
BRANCH   1  23
HETATM   23  C   UNL     1      40.993 -15.021   0.788  1.00  0.00     0.289 C 
HETATM   24  O   UNL     1      42.102 -15.265   0.314  1.00  0.00    -0.263 OA
BRANCH  23  25
HETATM   25  O   UNL     1      40.327 -13.854   0.711  1.00  0.00    -0.325 OA
HETATM   26  C   UNL     1      39.325 -13.785  -0.313  1.00  0.00     0.213 C 
ENDBRANCH  23  25
ENDBRANCH   1  23
BRANCH   8  27
HETATM   27  C   UNL     1      40.237 -11.666   5.995  1.00  0.00     0.273 C 
BRANCH  27  28
HETATM   28  C   UNL     1      40.583 -11.224   7.386  1.00  0.00    -0.033 A 
HETATM   29  C   UNL     1      41.883 -10.786   7.684  1.00  0.00     0.009 A 
HETATM   30  C   UNL     1      42.218 -10.394   8.980  1.00  0.00     0.001 A 
HETATM   31  C   UNL     1      41.261 -10.436   9.991  1.00  0.00     0.000 A 
HETATM   32  C   UNL     1      39.965 -10.859   9.705  1.00  0.00     0.001 A 
HETATM   33  C   UNL     1      39.623 -11.249   8.410  1.00  0.00     0.009 A 
ENDBRANCH  27  28
ENDBRANCH   8  27
TORSDOF 4
ENDMDL
MODEL 5
REMARK VINA RESULT:      -8.8      1.660      2.720
REMARK  4 active torsions:
REMARK  status: ('A' for Active; 'I' for Inactive)
REMARK    1  A    between atoms: O_2  and  C_3 
REMARK    2  A    between atoms: C_3  and  C_4 
REMARK    3  A    between atoms: N_11  and  C_13 
REMARK    4  A    between atoms: C_13  and  C_14 
ROOT
HETATM    1  C   UNL     1      42.653 -16.030   4.628  1.00  0.00     0.290 C 
HETATM    2  N   UNL     1      42.467 -15.573   3.131  1.00  0.00    -0.047 N 
HETATM    3  H   UNL     1      43.409 -15.267   2.853  1.00  0.00     0.279 HD
HETATM    4  H   UNL     1      41.866 -14.742   3.189  1.00  0.00     0.279 HD
HETATM    5  C   UNL     1      41.973 -16.620   2.125  1.00  0.00     0.172 C 
HETATM    6  C   UNL     1      40.447 -16.835   2.174  1.00  0.00     0.073 C 
HETATM    7  C   UNL     1      39.632 -15.625   1.746  1.00  0.00     0.238 C 
HETATM    8  N   UNL     1      40.057 -15.198   0.360  1.00  0.00    -0.067 N 
HETATM    9  H   UNL     1      39.790 -15.950  -0.294  1.00  0.00     0.280 HD
HETATM   10  C   UNL     1      41.531 -14.930   0.236  1.00  0.00     0.238 C 
HETATM   11  C   UNL     1      42.347 -16.128   0.708  1.00  0.00     0.073 C 
HETATM   12  C   UNL     1      42.677 -17.905   2.458  1.00  0.00     0.053 A 
HETATM   13  C   UNL     1      43.384 -18.193   3.613  1.00  0.00    -0.018 A 
HETATM   14  C   UNL     1      43.605 -17.225   4.719  1.00  0.00     0.085 C 
HETATM   15  N   UNL     1      42.692 -19.042   1.681  1.00  0.00    -0.356 N 
HETATM   16  H   UNL     1      42.254 -19.181   0.778  1.00  0.00     0.166 HD
HETATM   17  C   UNL     1      43.411 -20.036   2.303  1.00  0.00     0.043 A 
HETATM   18  C   UNL     1      43.861 -19.529   3.521  1.00  0.00    -0.001 A 
HETATM   19  C   UNL     1      43.694 -21.339   1.879  1.00  0.00     0.030 A 
HETATM   20  C   UNL     1      44.461 -22.144   2.725  1.00  0.00     0.002 A 
HETATM   21  C   UNL     1      44.924 -21.664   3.947  1.00  0.00     0.001 A 
HETATM   22  C   UNL     1      44.633 -20.358   4.358  1.00  0.00     0.014 A 
ENDROOT
BRANCH   1  23
HETATM   23  C   UNL     1      41.302 -16.168   5.323  1.00  0.00     0.289 C 
HETATM   24  O   UNL     1      41.064 -17.158   6.014  1.00  0.00    -0.263 OA
BRANCH  23  25
HETATM   25  O   UNL     1      40.450 -15.164   5.041  1.00  0.00    -0.325 OA
HETATM   26  C   UNL     1      40.600 -13.986   5.844  1.00  0.00     0.213 C 
ENDBRANCH  23  25
ENDBRANCH   1  23
BRANCH   8  27
HETATM   27  C   UNL     1      39.250 -13.992  -0.153  1.00  0.00     0.273 C 
BRANCH  27  28
HETATM   28  C   UNL     1      39.242 -12.827   0.793  1.00  0.00    -0.033 A 
HETATM   29  C   UNL     1      38.066 -12.478   1.474  1.00  0.00     0.009 A 
HETATM   30  C   UNL     1      38.045 -11.383   2.338  1.00  0.00     0.001 A 
HETATM   31  C   UNL     1      39.198 -10.625   2.530  1.00  0.00     0.000 A 
HETATM   32  C   UNL     1      40.375 -10.967   1.867  1.00  0.00     0.001 A 
HETATM   33  C   UNL     1      40.402 -12.063   1.004  1.00  0.00     0.009 A 
ENDBRANCH  27  28
ENDBRANCH   8  27
TORSDOF 4
ENDMDL
MODEL 6
REMARK VINA RESULT:      -8.5      2.922      5.263
REMARK  4 active torsions:
REMARK  status: ('A' for Active; 'I' for Inactive)
REMARK    1  A    between atoms: O_2  and  C_3 
REMARK    2  A    between atoms: C_3  and  C_4 
REMARK    3  A    between atoms: N_11  and  C_13 
REMARK    4  A    between atoms: C_13  and  C_14 
ROOT
HETATM    1  C   UNL     1      40.578 -16.263   1.629  1.00  0.00     0.290 C 
HETATM    2  N   UNL     1      40.315 -15.850   3.128  1.00  0.00    -0.047 N 
HETATM    3  H   UNL     1      39.578 -16.500   3.432  1.00  0.00     0.279 HD
HETATM    4  H   UNL     1      39.905 -14.910   3.067  1.00  0.00     0.279 HD
HETATM    5  C   UNL     1      41.491 -15.946   4.108  1.00  0.00     0.172 C 
HETATM    6  C   UNL     1      42.452 -14.745   4.021  1.00  0.00     0.073 C 
HETATM    7  C   UNL     1      41.837 -13.420   4.446  1.00  0.00     0.238 C 
HETATM    8  N   UNL     1      41.285 -13.550   5.847  1.00  0.00    -0.067 N 
HETATM    9  H   UNL     1      42.083 -13.695   6.485  1.00  0.00     0.280 HD
HETATM   10  C   UNL     1      40.306 -14.679   6.009  1.00  0.00     0.238 C 
HETATM   11  C   UNL     1      40.909 -15.998   5.540  1.00  0.00     0.073 C 
HETATM   12  C   UNL     1      42.229 -17.211   3.775  1.00  0.00     0.053 A 
HETATM   13  C   UNL     1      42.090 -17.983   2.634  1.00  0.00    -0.018 A 
HETATM   14  C   UNL     1      41.118 -17.693   1.546  1.00  0.00     0.085 C 
HETATM   15  N   UNL     1      43.217 -17.794   4.538  1.00  0.00    -0.356 N 
HETATM   16  H   UNL     1      43.581 -17.477   5.428  1.00  0.00     0.166 HD
HETATM   17  C   UNL     1      43.690 -18.928   3.919  1.00  0.00     0.043 A 
HETATM   18  C   UNL     1      42.998 -19.073   2.719  1.00  0.00    -0.001 A 
HETATM   19  C   UNL     1      44.677 -19.831   4.333  1.00  0.00     0.030 A 
HETATM   20  C   UNL     1      44.958 -20.912   3.494  1.00  0.00     0.002 A 
HETATM   21  C   UNL     1      44.281 -21.082   2.290  1.00  0.00     0.001 A 
HETATM   22  C   UNL     1      43.297 -20.171   1.889  1.00  0.00     0.014 A 
ENDROOT
BRANCH   1  23
HETATM   23  C   UNL     1      41.370 -15.181   0.902  1.00  0.00     0.289 C 
HETATM   24  O   UNL     1      42.458 -15.451   0.394  1.00  0.00    -0.263 OA
BRANCH  23  25
HETATM   25  O   UNL     1      40.786 -13.968   0.949  1.00  0.00    -0.325 OA
HETATM   26  C   UNL     1      41.665 -12.854   0.745  1.00  0.00     0.213 C 
ENDBRANCH  23  25
ENDBRANCH   1  23
BRANCH   8  27
HETATM   27  C   UNL     1      40.671 -12.233   6.357  1.00  0.00     0.273 C 
BRANCH  27  28
HETATM   28  C   UNL     1      40.129 -11.359   5.264  1.00  0.00    -0.033 A 
HETATM   29  C   UNL     1      38.889 -11.653   4.675  1.00  0.00     0.009 A 
HETATM   30  C   UNL     1      38.389 -10.858   3.644  1.00  0.00     0.001 A 
HETATM   31  C   UNL     1      39.121  -9.764   3.190  1.00  0.00     0.000 A 
HETATM   32  C   UNL     1      40.349  -9.456   3.772  1.00  0.00     0.001 A 
HETATM   33  C   UNL     1      40.852 -10.246   4.806  1.00  0.00     0.009 A 
ENDBRANCH  27  28
ENDBRANCH   8  27
TORSDOF 4
ENDMDL
MODEL 7
REMARK VINA RESULT:      -8.0      2.605      3.945
REMARK  4 active torsions:
REMARK  status: ('A' for Active; 'I' for Inactive)
REMARK    1  A    between atoms: O_2  and  C_3 
REMARK    2  A    between atoms: C_3  and  C_4 
REMARK    3  A    between atoms: N_11  and  C_13 
REMARK    4  A    between atoms: C_13  and  C_14 
ROOT
HETATM    1  C   UNL     1      43.515 -16.280   5.376  1.00  0.00     0.290 C 
HETATM    2  N   UNL     1      43.190 -15.555   4.015  1.00  0.00    -0.047 N 
HETATM    3  H   UNL     1      44.118 -15.318   3.639  1.00  0.00     0.279 HD
HETATM    4  H   UNL     1      42.727 -14.681   4.293  1.00  0.00     0.279 HD
HETATM    5  C   UNL     1      42.418 -16.348   2.953  1.00  0.00     0.172 C 
HETATM    6  C   UNL     1      40.899 -16.389   3.212  1.00  0.00     0.073 C 
HETATM    7  C   UNL     1      40.212 -15.035   3.108  1.00  0.00     0.238 C 
HETATM    8  N   UNL     1      40.498 -14.431   1.753  1.00  0.00    -0.067 N 
HETATM    9  H   UNL     1      40.039 -15.022   1.043  1.00  0.00     0.280 HD
HETATM   10  C   UNL     1      41.964 -14.320   1.437  1.00  0.00     0.238 C 
HETATM   11  C   UNL     1      42.659 -15.669   1.586  1.00  0.00     0.073 C 
HETATM   12  C   UNL     1      42.972 -17.745   2.971  1.00  0.00     0.053 A 
HETATM   13  C   UNL     1      43.785 -18.308   3.940  1.00  0.00    -0.018 A 
HETATM   14  C   UNL     1      44.292 -17.576   5.131  1.00  0.00     0.085 C 
HETATM   15  N   UNL     1      42.718 -18.726   2.038  1.00  0.00    -0.356 N 
HETATM   16  H   UNL     1      42.144 -18.656   1.206  1.00  0.00     0.166 HD
HETATM   17  C   UNL     1      43.369 -19.889   2.379  1.00  0.00     0.043 A 
HETATM   18  C   UNL     1      44.049 -19.655   3.572  1.00  0.00    -0.001 A 
HETATM   19  C   UNL     1      43.402 -21.124   1.722  1.00  0.00     0.030 A 
HETATM   20  C   UNL     1      44.157 -22.147   2.303  1.00  0.00     0.002 A 
HETATM   21  C   UNL     1      44.848 -21.941   3.494  1.00  0.00     0.001 A 
HETATM   22  C   UNL     1      44.804 -20.700   4.139  1.00  0.00     0.014 A 
ENDROOT
BRANCH   1  23
HETATM   23  C   UNL     1      42.267 -16.375   6.249  1.00  0.00     0.289 C 
HETATM   24  O   UNL     1      41.402 -15.502   6.183  1.00  0.00    -0.263 OA
BRANCH  23  25
HETATM   25  O   UNL     1      42.278 -17.432   7.083  1.00  0.00    -0.325 OA
HETATM   26  C   UNL     1      43.147 -17.311   8.217  1.00  0.00     0.213 C 
ENDBRANCH  23  25
ENDBRANCH   1  23
BRANCH   8  27
HETATM   27  C   UNL     1      39.807 -13.068   1.564  1.00  0.00     0.273 C 
BRANCH  27  28
HETATM   28  C   UNL     1      39.858 -12.194   2.783  1.00  0.00    -0.033 A 
HETATM   29  C   UNL     1      38.670 -11.771   3.399  1.00  0.00     0.009 A 
HETATM   30  C   UNL     1      38.709 -10.939   4.518  1.00  0.00     0.001 A 
HETATM   31  C   UNL     1      39.934 -10.523   5.034  1.00  0.00     0.000 A 
HETATM   32  C   UNL     1      41.121 -10.944   4.439  1.00  0.00     0.001 A 
HETATM   33  C   UNL     1      41.087 -11.777   3.320  1.00  0.00     0.009 A 
ENDBRANCH  27  28
ENDBRANCH   8  27
TORSDOF 4
ENDMDL
MODEL 8
REMARK VINA RESULT:      -7.8      3.144      7.512
REMARK  4 active torsions:
REMARK  status: ('A' for Active; 'I' for Inactive)
REMARK    1  A    between atoms: O_2  and  C_3 
REMARK    2  A    between atoms: C_3  and  C_4 
REMARK    3  A    between atoms: N_11  and  C_13 
REMARK    4  A    between atoms: C_13  and  C_14 
ROOT
HETATM    1  C   UNL     1      41.669 -15.984   6.046  1.00  0.00     0.290 C 
HETATM    2  N   UNL     1      41.527 -16.915   4.782  1.00  0.00    -0.047 N 
HETATM    3  H   UNL     1      40.597 -17.340   4.897  1.00  0.00     0.279 HD
HETATM    4  H   UNL     1      42.232 -17.649   4.922  1.00  0.00     0.279 HD
HETATM    5  C   UNL     1      41.597 -16.253   3.400  1.00  0.00     0.172 C 
HETATM    6  C   UNL     1      43.038 -15.966   2.937  1.00  0.00     0.073 C 
HETATM    7  C   UNL     1      43.877 -17.212   2.696  1.00  0.00     0.238 C 
HETATM    8  N   UNL     1      43.174 -18.104   1.700  1.00  0.00    -0.067 N 
HETATM    9  H   UNL     1      43.158 -17.609   0.794  1.00  0.00     0.280 HD
HETATM   10  C   UNL     1      41.770 -18.465   2.096  1.00  0.00     0.238 C 
HETATM   11  C   UNL     1      40.943 -17.215   2.381  1.00  0.00     0.073 C 
HETATM   12  C   UNL     1      40.830 -14.965   3.500  1.00  0.00     0.053 A 
HETATM   13  C   UNL     1      40.409 -14.332   4.656  1.00  0.00    -0.018 A 
HETATM   14  C   UNL     1      40.615 -14.874   6.025  1.00  0.00     0.085 C 
HETATM   15  N   UNL     1      40.459 -14.163   2.443  1.00  0.00    -0.356 N 
HETATM   16  H   UNL     1      40.627 -14.320   1.456  1.00  0.00     0.166 HD
HETATM   17  C   UNL     1      39.792 -13.050   2.900  1.00  0.00     0.043 A 
HETATM   18  C   UNL     1      39.744 -13.130   4.290  1.00  0.00    -0.001 A 
HETATM   19  C   UNL     1      39.232 -11.984   2.187  1.00  0.00     0.030 A 
HETATM   20  C   UNL     1      38.603 -10.974   2.920  1.00  0.00     0.002 A 
HETATM   21  C   UNL     1      38.539 -11.028   4.310  1.00  0.00     0.001 A 
HETATM   22  C   UNL     1      39.105 -12.101   5.009  1.00  0.00     0.014 A 
ENDROOT
BRANCH   1  23
HETATM   23  C   UNL     1      43.121 -15.557   6.242  1.00  0.00     0.289 C 
HETATM   24  O   UNL     1      43.989 -16.404   6.446  1.00  0.00    -0.263 OA
BRANCH  23  25
HETATM   25  O   UNL     1      43.291 -14.221   6.227  1.00  0.00    -0.325 OA
HETATM   26  C   UNL     1      44.377 -13.732   7.026  1.00  0.00     0.213 C 
ENDBRANCH  23  25
ENDBRANCH   1  23
BRANCH   8  27
HETATM   27  C   UNL     1      43.983 -19.375   1.383  1.00  0.00     0.273 C 
BRANCH  27  28
HETATM   28  C   UNL     1      44.241 -20.238   2.583  1.00  0.00    -0.033 A 
HETATM   29  C   UNL     1      44.396 -19.656   3.851  1.00  0.00     0.009 A 
HETATM   30  C   UNL     1      44.659 -20.451   4.967  1.00  0.00     0.001 A 
HETATM   31  C   UNL     1      44.770 -21.832   4.830  1.00  0.00     0.000 A 
HETATM   32  C   UNL     1      44.608 -22.422   3.578  1.00  0.00     0.001 A 
HETATM   33  C   UNL     1      44.342 -21.633   2.458  1.00  0.00     0.009 A 
ENDBRANCH  27  28
ENDBRANCH   8  27
TORSDOF 4
ENDMDL
MODEL 9
REMARK VINA RESULT:      -7.8      1.630      2.423
REMARK  4 active torsions:
REMARK  status: ('A' for Active; 'I' for Inactive)
REMARK    1  A    between atoms: O_2  and  C_3 
REMARK    2  A    between atoms: C_3  and  C_4 
REMARK    3  A    between atoms: N_11  and  C_13 
REMARK    4  A    between atoms: C_13  and  C_14 
ROOT
HETATM    1  C   UNL     1      41.917 -13.738   3.910  1.00  0.00     0.290 C 
HETATM    2  N   UNL     1      41.745 -13.534   2.357  1.00  0.00    -0.047 N 
HETATM    3  H   UNL     1      42.682 -13.245   2.045  1.00  0.00     0.279 HD
HETATM    4  H   UNL     1      41.118 -12.725   2.272  1.00  0.00     0.279 HD
HETATM    5  C   UNL     1      41.302 -14.745   1.526  1.00  0.00     0.172 C 
HETATM    6  C   UNL     1      39.783 -15.000   1.588  1.00  0.00     0.073 C 
HETATM    7  C   UNL     1      38.939 -13.901   0.959  1.00  0.00     0.238 C 
HETATM    8  N   UNL     1      39.378 -13.689  -0.471  1.00  0.00    -0.067 N 
HETATM    9  H   UNL     1      39.146 -14.544  -0.999  1.00  0.00     0.280 HD
HETATM   10  C   UNL     1      40.845 -13.396  -0.617  1.00  0.00     0.238 C 
HETATM   11  C   UNL     1      41.688 -14.475   0.053  1.00  0.00     0.073 C 
HETATM   12  C   UNL     1      42.039 -15.936   2.071  1.00  0.00     0.053 A 
HETATM   13  C   UNL     1      42.733 -16.011   3.267  1.00  0.00    -0.018 A 
HETATM   14  C   UNL     1      42.904 -14.871   4.205  1.00  0.00     0.085 C 
HETATM   15  N   UNL     1      42.103 -17.181   1.487  1.00  0.00    -0.356 N 
HETATM   16  H   UNL     1      41.686 -17.478   0.613  1.00  0.00     0.166 HD
HETATM   17  C   UNL     1      42.841 -18.038   2.272  1.00  0.00     0.043 A 
HETATM   18  C   UNL     1      43.251 -17.328   3.398  1.00  0.00    -0.001 A 
HETATM   19  C   UNL     1      43.171 -19.383   2.066  1.00  0.00     0.030 A 
HETATM   20  C   UNL     1      43.946 -20.015   3.042  1.00  0.00     0.002 A 
HETATM   21  C   UNL     1      44.372 -19.331   4.176  1.00  0.00     0.001 A 
HETATM   22  C   UNL     1      44.033 -17.986   4.368  1.00  0.00     0.014 A 
ENDROOT
BRANCH   1  23
HETATM   23  C   UNL     1      40.558 -13.807   4.600  1.00  0.00     0.289 C 
HETATM   24  O   UNL     1      39.988 -14.891   4.728  1.00  0.00    -0.263 OA
BRANCH  23  25
HETATM   25  O   UNL     1      40.078 -12.601   4.959  1.00  0.00    -0.325 OA
HETATM   26  C   UNL     1      39.009 -12.099   4.147  1.00  0.00     0.213 C 
ENDBRANCH  23  25
ENDBRANCH   1  23
BRANCH   8  27
HETATM   27  C   UNL     1      38.544 -12.608  -1.183  1.00  0.00     0.273 C 
BRANCH  27  28
HETATM   28  C   UNL     1      37.790 -13.119  -2.376  1.00  0.00    -0.033 A 
HETATM   29  C   UNL     1      36.979 -12.250  -3.123  1.00  0.00     0.009 A 
HETATM   30  C   UNL     1      36.257 -12.723  -4.219  1.00  0.00     0.001 A 
HETATM   31  C   UNL     1      36.340 -14.065  -4.582  1.00  0.00     0.000 A 
HETATM   32  C   UNL     1      37.150 -14.934  -3.855  1.00  0.00     0.001 A 
HETATM   33  C   UNL     1      37.875 -14.467  -2.758  1.00  0.00     0.009 A 
ENDBRANCH  27  28
ENDBRANCH   8  27
TORSDOF 4
ENDMDL
MODEL 10
REMARK VINA RESULT:      -7.8      2.403      3.142
REMARK  4 active torsions:
REMARK  status: ('A' for Active; 'I' for Inactive)
REMARK    1  A    between atoms: O_2  and  C_3 
REMARK    2  A    between atoms: C_3  and  C_4 
REMARK    3  A    between atoms: N_11  and  C_13 
REMARK    4  A    between atoms: C_13  and  C_14 
ROOT
HETATM    1  C   UNL     1      43.889 -16.853   6.043  1.00  0.00     0.290 C 
HETATM    2  N   UNL     1      43.547 -15.867   4.862  1.00  0.00    -0.047 N 
HETATM    3  H   UNL     1      44.469 -15.610   4.486  1.00  0.00     0.279 HD
HETATM    4  H   UNL     1      43.150 -15.039   5.325  1.00  0.00     0.279 HD
HETATM    5  C   UNL     1      42.681 -16.404   3.716  1.00  0.00     0.172 C 
HETATM    6  C   UNL     1      41.176 -16.416   4.047  1.00  0.00     0.073 C 
HETATM    7  C   UNL     1      40.567 -15.034   4.238  1.00  0.00     0.238 C 
HETATM    8  N   UNL     1      40.827 -14.198   3.007  1.00  0.00    -0.067 N 
HETATM    9  H   UNL     1      40.301 -14.620   2.225  1.00  0.00     0.280 HD
HETATM   10  C   UNL     1      42.281 -14.103   2.635  1.00  0.00     0.238 C 
HETATM   11  C   UNL     1      42.900 -15.489   2.489  1.00  0.00     0.073 C 
HETATM   12  C   UNL     1      43.150 -17.804   3.440  1.00  0.00     0.053 A 
HETATM   13  C   UNL     1      43.971 -18.582   4.239  1.00  0.00    -0.018 A 
HETATM   14  C   UNL     1      44.575 -18.116   5.516  1.00  0.00     0.085 C 
HETATM   15  N   UNL     1      42.795 -18.575   2.355  1.00  0.00    -0.356 N 
HETATM   16  H   UNL     1      42.189 -18.319   1.585  1.00  0.00     0.166 HD
HETATM   17  C   UNL     1      43.390 -19.814   2.436  1.00  0.00     0.043 A 
HETATM   18  C   UNL     1      44.137 -19.846   3.611  1.00  0.00    -0.001 A 
HETATM   19  C   UNL     1      43.319 -20.901   1.557  1.00  0.00     0.030 A 
HETATM   20  C   UNL     1      44.036 -22.052   1.893  1.00  0.00     0.002 A 
HETATM   21  C   UNL     1      44.792 -22.112   3.061  1.00  0.00     0.001 A 
HETATM   22  C   UNL     1      44.853 -21.016   3.929  1.00  0.00     0.014 A 
ENDROOT
BRANCH   1  23
HETATM   23  C   UNL     1      42.679 -17.050   6.951  1.00  0.00     0.289 C 
HETATM   24  O   UNL     1      41.563 -17.216   6.460  1.00  0.00    -0.263 OA
BRANCH  23  25
HETATM   25  O   UNL     1      42.973 -16.956   8.262  1.00  0.00    -0.325 OA
HETATM   26  C   UNL     1      43.786 -18.013   8.787  1.00  0.00     0.213 C 
ENDBRANCH  23  25
ENDBRANCH   1  23
BRANCH   8  27
HETATM   27  C   UNL     1      40.211 -12.791   3.116  1.00  0.00     0.273 C 
BRANCH  27  28
HETATM   28  C   UNL     1      39.011 -12.590   2.237  1.00  0.00    -0.033 A 
HETATM   29  C   UNL     1      38.306 -11.377   2.273  1.00  0.00     0.009 A 
HETATM   30  C   UNL     1      37.176 -11.191   1.476  1.00  0.00     0.001 A 
HETATM   31  C   UNL     1      36.740 -12.213   0.636  1.00  0.00     0.000 A 
HETATM   32  C   UNL     1      37.437 -13.418   0.585  1.00  0.00     0.001 A 
HETATM   33  C   UNL     1      38.569 -13.609   1.378  1.00  0.00     0.009 A 
ENDBRANCH  27  28
ENDBRANCH   8  27
TORSDOF 4
ENDMDL
