MODEL 1
REMARK VINA RESULT:      -7.8      0.000      0.000
REMARK  6 active torsions:
REMARK  status: ('A' for Active; 'I' for Inactive)
REMARK    1  A    between atoms: C_2  and  N_3 
REMARK    2  A    between atoms: C_2  and  C_16 
REMARK    3  A    between atoms: N_3  and  C_6 
REMARK    4  A    between atoms: C_16  and  C_17 
REMARK       I    between atoms: C_17  and  N_18 
REMARK    5  A    between atoms: N_18  and  C_19 
REMARK    6  A    between atoms: C_21  and  O_22 
ROOT
HETATM    1  C   UNL     1      44.042 -14.019   5.719  1.00  0.00     0.040 C 
HETATM    2  C   UNL     1      42.740 -14.769   5.466  1.00  0.00     0.191 C 
ENDROOT
BRANCH   2   3
HETATM    3  N   UNL     1      43.010 -16.085   4.779  1.00  0.00    -0.063 N 
HETATM    4  H   UNL     1      42.559 -16.000   3.843  1.00  0.00     0.278 HD
HETATM    5  H   UNL     1      44.010 -16.164   4.570  1.00  0.00     0.278 HD
BRANCH   3   6
HETATM    6  C   UNL     1      42.531 -17.415   5.327  1.00  0.00     0.221 C 
HETATM    7  C   UNL     1      43.351 -18.595   4.865  1.00  0.00    -0.011 A 
HETATM    8  C   UNL     1      43.962 -19.494   5.752  1.00  0.00     0.009 A 
HETATM    9  C   UNL     1      43.478 -18.829   3.476  1.00  0.00     0.011 A 
HETATM   10  C   UNL     1      44.704 -20.574   5.247  1.00  0.00     0.019 A 
HETATM   11  S   UNL     1      43.824 -19.399   7.524  1.00  0.00    -0.129 SA
HETATM   12  C   UNL     1      44.842 -20.771   3.875  1.00  0.00     0.001 A 
HETATM   13  C   UNL     1      44.224 -19.902   2.988  1.00  0.00     0.001 A 
HETATM   14  C   UNL     1      43.328 -17.680   7.753  1.00  0.00     0.082 C 
HETATM   15  C   UNL     1      42.192 -17.312   6.818  1.00  0.00     0.048 C 
ENDBRANCH   3   6
ENDBRANCH   2   3
BRANCH   2  16
HETATM   16  C   UNL     1      41.806 -13.901   4.591  1.00  0.00     0.135 C 
BRANCH  16  17
HETATM   17  C   UNL     1      40.394 -14.436   4.602  1.00  0.00     0.224 C 
HETATM   18  N   UNL     1      39.836 -15.045   3.527  1.00  0.00    -0.327 N 
HETATM   19  H   UNL     1      38.842 -15.213   3.661  1.00  0.00     0.169 HD
HETATM   20  O   UNL     1      39.730 -14.315   5.642  1.00  0.00    -0.273 OA
BRANCH  18  21
HETATM   21  C   UNL     1      40.341 -15.461   2.277  1.00  0.00     0.037 A 
HETATM   22  C   UNL     1      40.574 -14.623   1.181  1.00  0.00     0.066 A 
HETATM   23  C   UNL     1      41.082 -15.144  -0.017  1.00  0.00     0.070 A 
HETATM   24  C   UNL     1      41.359 -16.507  -0.116  1.00  0.00     0.037 A 
HETATM   25  C   UNL     1      41.162 -17.345   0.976  1.00  0.00     0.005 A 
HETATM   26  C   UNL     1      40.665 -16.821   2.168  1.00  0.00     0.029 A 
BRANCH  23  27
HETATM   27  O   UNL     1      41.347 -14.432  -1.154  1.00  0.00    -0.356 OA
HETATM   28  C   UNL     1      41.004 -15.023  -2.400  1.00  0.00     0.210 C 
ENDBRANCH  23  27
ENDBRANCH  18  21
ENDBRANCH  16  17
ENDBRANCH   2  16
TORSDOF 6
ENDMDL
MODEL 2
REMARK VINA RESULT:      -7.5      2.182      3.312
REMARK  6 active torsions:
REMARK  status: ('A' for Active; 'I' for Inactive)
REMARK    1  A    between atoms: C_2  and  N_3 
REMARK    2  A    between atoms: C_2  and  C_16 
REMARK    3  A    between atoms: N_3  and  C_6 
REMARK    4  A    between atoms: C_16  and  C_17 
REMARK       I    between atoms: C_17  and  N_18 
REMARK    5  A    between atoms: N_18  and  C_19 
REMARK    6  A    between atoms: C_21  and  O_22 
ROOT
HETATM    1  C   UNL     1      41.061 -17.111   1.013  1.00  0.00     0.040 C 
HETATM    2  C   UNL     1      42.140 -16.110   1.403  1.00  0.00     0.191 C 
ENDROOT
BRANCH   2   3
HETATM    3  N   UNL     1      43.123 -16.734   2.362  1.00  0.00    -0.063 N 
HETATM    4  H   UNL     1      43.815 -17.228   1.758  1.00  0.00     0.278 HD
HETATM    5  H   UNL     1      43.670 -15.998   2.820  1.00  0.00     0.278 HD
BRANCH   3   6
HETATM    6  C   UNL     1      42.720 -17.751   3.411  1.00  0.00     0.221 C 
HETATM    7  C   UNL     1      43.385 -19.095   3.244  1.00  0.00    -0.011 A 
HETATM    8  C   UNL     1      44.133 -19.709   4.262  1.00  0.00     0.009 A 
HETATM    9  C   UNL     1      43.216 -19.788   2.023  1.00  0.00     0.011 A 
HETATM   10  C   UNL     1      44.716 -20.965   4.035  1.00  0.00     0.019 A 
HETATM   11  S   UNL     1      44.365 -19.019   5.886  1.00  0.00    -0.129 SA
HETATM   12  C   UNL     1      44.563 -21.619   2.813  1.00  0.00     0.001 A 
HETATM   13  C   UNL     1      43.807 -21.033   1.809  1.00  0.00     0.001 A 
HETATM   14  C   UNL     1      43.988 -17.280   5.594  1.00  0.00     0.082 C 
HETATM   15  C   UNL     1      42.698 -17.126   4.811  1.00  0.00     0.048 C 
ENDBRANCH   3   6
ENDBRANCH   2   3
BRANCH   2  16
HETATM   16  C   UNL     1      41.484 -14.871   2.056  1.00  0.00     0.135 C 
BRANCH  16  17
HETATM   17  C   UNL     1      42.019 -13.591   1.460  1.00  0.00     0.224 C 
HETATM   18  N   UNL     1      41.642 -13.142   0.237  1.00  0.00    -0.327 N 
HETATM   19  H   UNL     1      42.203 -12.348  -0.064  1.00  0.00     0.169 HD
HETATM   20  O   UNL     1      42.829 -12.928   2.125  1.00  0.00    -0.273 OA
BRANCH  18  21
HETATM   21  C   UNL     1      40.667 -13.560  -0.692  1.00  0.00     0.037 A 
HETATM   22  C   UNL     1      40.930 -14.234  -1.891  1.00  0.00     0.066 A 
HETATM   23  C   UNL     1      39.881 -14.606  -2.742  1.00  0.00     0.070 A 
HETATM   24  C   UNL     1      38.565 -14.306  -2.390  1.00  0.00     0.037 A 
HETATM   25  C   UNL     1      38.289 -13.667  -1.187  1.00  0.00     0.005 A 
HETATM   26  C   UNL     1      39.335 -13.306  -0.339  1.00  0.00     0.029 A 
BRANCH  23  27
HETATM   27  O   UNL     1      40.009 -15.260  -3.935  1.00  0.00    -0.356 OA
HETATM   28  C   UNL     1      39.007 -16.207  -4.281  1.00  0.00     0.210 C 
ENDBRANCH  23  27
ENDBRANCH  18  21
ENDBRANCH  16  17
ENDBRANCH   2  16
TORSDOF 6
ENDMDL
MODEL 3
REMARK VINA RESULT:      -7.5      2.113      3.560
REMARK  6 active torsions:
REMARK  status: ('A' for Active; 'I' for Inactive)
REMARK    1  A    between atoms: C_2  and  N_3 
REMARK    2  A    between atoms: C_2  and  C_16 
REMARK    3  A    between atoms: N_3  and  C_6 
REMARK    4  A    between atoms: C_16  and  C_17 
REMARK       I    between atoms: C_17  and  N_18 
REMARK    5  A    between atoms: N_18  and  C_19 
REMARK    6  A    between atoms: C_21  and  O_22 
ROOT
HETATM    1  C   UNL     1      39.552 -15.482   2.064  1.00  0.00     0.040 C 
HETATM    2  C   UNL     1      40.303 -16.795   2.242  1.00  0.00     0.191 C 
ENDROOT
BRANCH   2   3
HETATM    3  N   UNL     1      41.314 -16.683   3.357  1.00  0.00    -0.063 N 
HETATM    4  H   UNL     1      42.242 -16.689   2.882  1.00  0.00     0.278 HD
HETATM    5  H   UNL     1      41.254 -15.751   3.781  1.00  0.00     0.278 HD
BRANCH   3   6
HETATM    6  C   UNL     1      41.434 -17.706   4.469  1.00  0.00     0.221 C 
HETATM    7  C   UNL     1      42.736 -18.467   4.459  1.00  0.00    -0.011 A 
HETATM    8  C   UNL     1      43.598 -18.521   5.567  1.00  0.00     0.009 A 
HETATM    9  C   UNL     1      43.090 -19.191   3.297  1.00  0.00     0.011 A 
HETATM   10  C   UNL     1      44.790 -19.256   5.485  1.00  0.00     0.019 A 
HETATM   11  S   UNL     1      43.260 -17.747   7.134  1.00  0.00    -0.129 SA
HETATM   12  C   UNL     1      45.135 -19.939   4.321  1.00  0.00     0.001 A 
HETATM   13  C   UNL     1      44.282 -19.912   3.228  1.00  0.00     0.001 A 
HETATM   14  C   UNL     1      42.025 -16.518   6.667  1.00  0.00     0.082 C 
HETATM   15  C   UNL     1      40.941 -17.135   5.804  1.00  0.00     0.048 C 
ENDBRANCH   3   6
ENDBRANCH   2   3
BRANCH   2  16
HETATM   16  C   UNL     1      41.017 -17.166   0.921  1.00  0.00     0.135 C 
BRANCH  16  17
HETATM   17  C   UNL     1      42.043 -16.125   0.543  1.00  0.00     0.224 C 
HETATM   18  N   UNL     1      41.898 -15.315  -0.535  1.00  0.00    -0.327 N 
HETATM   19  H   UNL     1      42.742 -14.778  -0.720  1.00  0.00     0.169 HD
HETATM   20  O   UNL     1      43.049 -16.007   1.257  1.00  0.00    -0.273 OA
BRANCH  18  21
HETATM   21  C   UNL     1      40.846 -15.093  -1.447  1.00  0.00     0.037 A 
HETATM   22  C   UNL     1      39.813 -14.163  -1.278  1.00  0.00     0.066 A 
HETATM   23  C   UNL     1      38.816 -14.022  -2.252  1.00  0.00     0.070 A 
HETATM   24  C   UNL     1      38.855 -14.812  -3.400  1.00  0.00     0.037 A 
HETATM   25  C   UNL     1      39.893 -15.716  -3.596  1.00  0.00     0.005 A 
HETATM   26  C   UNL     1      40.888 -15.846  -2.628  1.00  0.00     0.029 A 
BRANCH  23  27
HETATM   27  O   UNL     1      37.759 -13.157  -2.200  1.00  0.00    -0.356 OA
HETATM   28  C   UNL     1      37.301 -12.597  -3.423  1.00  0.00     0.210 C 
ENDBRANCH  23  27
ENDBRANCH  18  21
ENDBRANCH  16  17
ENDBRANCH   2  16
TORSDOF 6
ENDMDL
MODEL 4
REMARK VINA RESULT:      -7.3      3.242      6.313
REMARK  6 active torsions:
REMARK  status: ('A' for Active; 'I' for Inactive)
REMARK    1  A    between atoms: C_2  and  N_3 
REMARK    2  A    between atoms: C_2  and  C_16 
REMARK    3  A    between atoms: N_3  and  C_6 
REMARK    4  A    between atoms: C_16  and  C_17 
REMARK       I    between atoms: C_17  and  N_18 
REMARK    5  A    between atoms: N_18  and  C_19 
REMARK    6  A    between atoms: C_21  and  O_22 
ROOT
HETATM    1  C   UNL     1      44.033 -14.160   6.780  1.00  0.00     0.040 C 
HETATM    2  C   UNL     1      43.478 -15.467   6.227  1.00  0.00     0.191 C 
ENDROOT
BRANCH   2   3
HETATM    3  N   UNL     1      42.088 -15.721   6.757  1.00  0.00    -0.063 N 
HETATM    4  H   UNL     1      42.167 -16.600   7.313  1.00  0.00     0.278 HD
HETATM    5  H   UNL     1      41.851 -15.005   7.452  1.00  0.00     0.278 HD
BRANCH   3   6
HETATM    6  C   UNL     1      40.887 -15.929   5.858  1.00  0.00     0.221 C 
HETATM    7  C   UNL     1      40.349 -14.655   5.254  1.00  0.00    -0.011 A 
HETATM    8  C   UNL     1      40.196 -14.471   3.870  1.00  0.00     0.009 A 
HETATM    9  C   UNL     1      39.944 -13.613   6.120  1.00  0.00     0.011 A 
HETATM   10  C   UNL     1      39.682 -13.259   3.383  1.00  0.00     0.019 A 
HETATM   11  S   UNL     1      40.568 -15.712   2.650  1.00  0.00    -0.129 SA
HETATM   12  C   UNL     1      39.316 -12.233   4.251  1.00  0.00     0.001 A 
HETATM   13  C   UNL     1      39.441 -12.411   5.621  1.00  0.00     0.001 A 
HETATM   14  C   UNL     1      41.667 -16.804   3.574  1.00  0.00     0.082 C 
HETATM   15  C   UNL     1      41.086 -17.137   4.935  1.00  0.00     0.048 C 
ENDBRANCH   3   6
ENDBRANCH   2   3
BRANCH   2  16
HETATM   16  C   UNL     1      44.413 -16.634   6.622  1.00  0.00     0.135 C 
BRANCH  16  17
HETATM   17  C   UNL     1      43.726 -17.587   7.570  1.00  0.00     0.224 C 
HETATM   18  N   UNL     1      43.506 -18.890   7.263  1.00  0.00    -0.327 N 
HETATM   19  H   UNL     1      42.911 -19.346   7.951  1.00  0.00     0.169 HD
HETATM   20  O   UNL     1      43.358 -17.155   8.673  1.00  0.00    -0.273 OA
BRANCH  18  21
HETATM   21  C   UNL     1      43.909 -19.716   6.193  1.00  0.00     0.037 A 
HETATM   22  C   UNL     1      44.102 -19.291   4.873  1.00  0.00     0.066 A 
HETATM   23  C   UNL     1      44.506 -20.198   3.886  1.00  0.00     0.070 A 
HETATM   24  C   UNL     1      44.721 -21.535   4.221  1.00  0.00     0.037 A 
HETATM   25  C   UNL     1      44.564 -21.963   5.534  1.00  0.00     0.005 A 
HETATM   26  C   UNL     1      44.170 -21.054   6.516  1.00  0.00     0.029 A 
BRANCH  23  27
HETATM   27  O   UNL     1      44.723 -19.908   2.568  1.00  0.00    -0.356 OA
HETATM   28  C   UNL     1      44.079 -18.762   2.028  1.00  0.00     0.210 C 
ENDBRANCH  23  27
ENDBRANCH  18  21
ENDBRANCH  16  17
ENDBRANCH   2  16
TORSDOF 6
ENDMDL
MODEL 5
REMARK VINA RESULT:      -7.3      2.539      3.928
REMARK  6 active torsions:
REMARK  status: ('A' for Active; 'I' for Inactive)
REMARK    1  A    between atoms: C_2  and  N_3 
REMARK    2  A    between atoms: C_2  and  C_16 
REMARK    3  A    between atoms: N_3  and  C_6 
REMARK    4  A    between atoms: C_16  and  C_17 
REMARK       I    between atoms: C_17  and  N_18 
REMARK    5  A    between atoms: N_18  and  C_19 
REMARK    6  A    between atoms: C_21  and  O_22 
ROOT
HETATM    1  C   UNL     1      44.671 -18.396   7.668  1.00  0.00     0.040 C 
HETATM    2  C   UNL     1      43.792 -17.423   6.892  1.00  0.00     0.191 C 
ENDROOT
BRANCH   2   3
HETATM    3  N   UNL     1      43.234 -18.082   5.654  1.00  0.00    -0.063 N 
HETATM    4  H   UNL     1      42.940 -19.033   5.963  1.00  0.00     0.278 HD
HETATM    5  H   UNL     1      42.357 -17.622   5.387  1.00  0.00     0.278 HD
BRANCH   3   6
HETATM    6  C   UNL     1      44.053 -18.310   4.400  1.00  0.00     0.221 C 
HETATM    7  C   UNL     1      44.227 -19.766   4.042  1.00  0.00    -0.011 A 
HETATM    8  C   UNL     1      43.863 -20.294   2.792  1.00  0.00     0.009 A 
HETATM    9  C   UNL     1      44.817 -20.631   4.991  1.00  0.00     0.011 A 
HETATM   10  C   UNL     1      44.061 -21.658   2.530  1.00  0.00     0.019 A 
HETATM   11  S   UNL     1      43.196 -19.327   1.455  1.00  0.00    -0.129 SA
HETATM   12  C   UNL     1      44.618 -22.501   3.489  1.00  0.00     0.001 A 
HETATM   13  C   UNL     1      45.002 -21.987   4.719  1.00  0.00     0.001 A 
HETATM   14  C   UNL     1      42.597 -17.869   2.332  1.00  0.00     0.082 C 
HETATM   15  C   UNL     1      43.648 -17.337   3.287  1.00  0.00     0.048 C 
ENDBRANCH   3   6
ENDBRANCH   2   3
BRANCH   2  16
HETATM   16  C   UNL     1      44.623 -16.180   6.495  1.00  0.00     0.135 C 
BRANCH  16  17
HETATM   17  C   UNL     1      44.037 -14.920   7.087  1.00  0.00     0.224 C 
HETATM   18  N   UNL     1      43.230 -14.090   6.381  1.00  0.00    -0.327 N 
HETATM   19  H   UNL     1      43.044 -13.225   6.884  1.00  0.00     0.169 HD
HETATM   20  O   UNL     1      44.304 -14.646   8.266  1.00  0.00    -0.273 OA
BRANCH  18  21
HETATM   21  C   UNL     1      42.629 -14.171   5.108  1.00  0.00     0.037 A 
HETATM   22  C   UNL     1      41.327 -14.620   4.856  1.00  0.00     0.066 A 
HETATM   23  C   UNL     1      40.829 -14.657   3.547  1.00  0.00     0.070 A 
HETATM   24  C   UNL     1      41.635 -14.240   2.488  1.00  0.00     0.037 A 
HETATM   25  C   UNL     1      42.918 -13.762   2.728  1.00  0.00     0.005 A 
HETATM   26  C   UNL     1      43.407 -13.718   4.033  1.00  0.00     0.029 A 
BRANCH  23  27
HETATM   27  O   UNL     1      39.583 -15.076   3.173  1.00  0.00    -0.356 OA
HETATM   28  C   UNL     1      39.191 -14.866   1.824  1.00  0.00     0.210 C 
ENDBRANCH  23  27
ENDBRANCH  18  21
ENDBRANCH  16  17
ENDBRANCH   2  16
TORSDOF 6
ENDMDL
MODEL 6
REMARK VINA RESULT:      -7.2      2.075      2.921
REMARK  6 active torsions:
REMARK  status: ('A' for Active; 'I' for Inactive)
REMARK    1  A    between atoms: C_2  and  N_3 
REMARK    2  A    between atoms: C_2  and  C_16 
REMARK    3  A    between atoms: N_3  and  C_6 
REMARK    4  A    between atoms: C_16  and  C_17 
REMARK       I    between atoms: C_17  and  N_18 
REMARK    5  A    between atoms: N_18  and  C_19 
REMARK    6  A    between atoms: C_21  and  O_22 
ROOT
HETATM    1  C   UNL     1      43.604 -14.089   3.475  1.00  0.00     0.040 C 
HETATM    2  C   UNL     1      42.513 -15.053   3.026  1.00  0.00     0.191 C 
ENDROOT
BRANCH   2   3
HETATM    3  N   UNL     1      43.066 -16.450   2.881  1.00  0.00    -0.063 N 
HETATM    4  H   UNL     1      42.738 -16.775   1.947  1.00  0.00     0.278 HD
HETATM    5  H   UNL     1      44.086 -16.407   2.789  1.00  0.00     0.278 HD
BRANCH   3   6
HETATM    6  C   UNL     1      42.720 -17.577   3.834  1.00  0.00     0.221 C 
HETATM    7  C   UNL     1      43.368 -18.893   3.481  1.00  0.00    -0.011 A 
HETATM    8  C   UNL     1      44.172 -19.614   4.379  1.00  0.00     0.009 A 
HETATM    9  C   UNL     1      43.125 -19.447   2.203  1.00  0.00     0.011 A 
HETATM   10  C   UNL     1      44.736 -20.836   3.981  1.00  0.00     0.019 A 
HETATM   11  S   UNL     1      44.502 -19.107   6.053  1.00  0.00    -0.129 SA
HETATM   12  C   UNL     1      44.508 -21.351   2.706  1.00  0.00     0.001 A 
HETATM   13  C   UNL     1      43.697 -20.660   1.818  1.00  0.00     0.001 A 
HETATM   14  C   UNL     1      44.116 -17.347   5.977  1.00  0.00     0.082 C 
HETATM   15  C   UNL     1      42.783 -17.110   5.293  1.00  0.00     0.048 C 
ENDBRANCH   3   6
ENDBRANCH   2   3
BRANCH   2  16
HETATM   16  C   UNL     1      41.926 -14.578   1.677  1.00  0.00     0.135 C 
BRANCH  16  17
HETATM   17  C   UNL     1      40.577 -15.205   1.417  1.00  0.00     0.224 C 
HETATM   18  N   UNL     1      39.924 -15.067   0.237  1.00  0.00    -0.327 N 
HETATM   19  H   UNL     1      38.975 -15.431   0.285  1.00  0.00     0.169 HD
HETATM   20  O   UNL     1      40.058 -15.876   2.321  1.00  0.00    -0.273 OA
BRANCH  18  21
HETATM   21  C   UNL     1      40.279 -14.510  -1.010  1.00  0.00     0.037 A 
HETATM   22  C   UNL     1      40.097 -13.172  -1.378  1.00  0.00     0.066 A 
HETATM   23  C   UNL     1      40.490 -12.723  -2.645  1.00  0.00     0.070 A 
HETATM   24  C   UNL     1      41.069 -13.617  -3.547  1.00  0.00     0.037 A 
HETATM   25  C   UNL     1      41.284 -14.941  -3.182  1.00  0.00     0.005 A 
HETATM   26  C   UNL     1      40.900 -15.381  -1.916  1.00  0.00     0.029 A 
BRANCH  23  27
HETATM   27  O   UNL     1      40.363 -11.448  -3.122  1.00  0.00    -0.356 OA
HETATM   28  C   UNL     1      41.140 -10.430  -2.505  1.00  0.00     0.210 C 
ENDBRANCH  23  27
ENDBRANCH  18  21
ENDBRANCH  16  17
ENDBRANCH   2  16
TORSDOF 6
ENDMDL
MODEL 7
REMARK VINA RESULT:      -7.2      1.900      3.140
REMARK  6 active torsions:
REMARK  status: ('A' for Active; 'I' for Inactive)
REMARK    1  A    between atoms: C_2  and  N_3 
REMARK    2  A    between atoms: C_2  and  C_16 
REMARK    3  A    between atoms: N_3  and  C_6 
REMARK    4  A    between atoms: C_16  and  C_17 
REMARK       I    between atoms: C_17  and  N_18 
REMARK    5  A    between atoms: N_18  and  C_19 
REMARK    6  A    between atoms: C_21  and  O_22 
ROOT
HETATM    1  C   UNL     1      44.598 -16.921   6.914  1.00  0.00     0.040 C 
HETATM    2  C   UNL     1      43.118 -17.226   6.727  1.00  0.00     0.191 C 
ENDROOT
BRANCH   2   3
HETATM    3  N   UNL     1      42.918 -18.234   5.622  1.00  0.00    -0.063 N 
HETATM    4  H   UNL     1      42.831 -19.153   6.107  1.00  0.00     0.278 HD
HETATM    5  H   UNL     1      42.001 -18.090   5.188  1.00  0.00     0.278 HD
BRANCH   3   6
HETATM    6  C   UNL     1      43.934 -18.465   4.522  1.00  0.00     0.221 C 
HETATM    7  C   UNL     1      44.204 -19.922   4.236  1.00  0.00    -0.011 A 
HETATM    8  C   UNL     1      44.060 -20.489   2.960  1.00  0.00     0.009 A 
HETATM    9  C   UNL     1      44.658 -20.746   5.291  1.00  0.00     0.011 A 
HETATM   10  C   UNL     1      44.336 -21.852   2.769  1.00  0.00     0.019 A 
HETATM   11  S   UNL     1      43.590 -19.575   1.507  1.00  0.00    -0.129 SA
HETATM   12  C   UNL     1      44.755 -22.655   3.829  1.00  0.00     0.001 A 
HETATM   13  C   UNL     1      44.922 -22.101   5.089  1.00  0.00     0.001 A 
HETATM   14  C   UNL     1      42.818 -18.117   2.236  1.00  0.00     0.082 C 
HETATM   15  C   UNL     1      43.686 -17.530   3.332  1.00  0.00     0.048 C 
ENDBRANCH   3   6
ENDBRANCH   2   3
BRANCH   2  16
HETATM   16  C   UNL     1      42.359 -15.921   6.390  1.00  0.00     0.135 C 
BRANCH  16  17
HETATM   17  C   UNL     1      40.953 -16.211   5.924  1.00  0.00     0.224 C 
HETATM   18  N   UNL     1      40.421 -15.646   4.812  1.00  0.00    -0.327 N 
HETATM   19  H   UNL     1      39.426 -15.840   4.727  1.00  0.00     0.169 HD
HETATM   20  O   UNL     1      40.267 -17.004   6.586  1.00  0.00    -0.273 OA
BRANCH  18  21
HETATM   21  C   UNL     1      40.953 -14.839   3.784  1.00  0.00     0.037 A 
HETATM   22  C   UNL     1      40.900 -15.133   2.417  1.00  0.00     0.066 A 
HETATM   23  C   UNL     1      41.460 -14.256   1.479  1.00  0.00     0.070 A 
HETATM   24  C   UNL     1      42.074 -13.081   1.911  1.00  0.00     0.037 A 
HETATM   25  C   UNL     1      42.105 -12.761   3.263  1.00  0.00     0.005 A 
HETATM   26  C   UNL     1      41.538 -13.632   4.193  1.00  0.00     0.029 A 
BRANCH  23  27
HETATM   27  O   UNL     1      41.476 -14.433   0.123  1.00  0.00    -0.356 OA
HETATM   28  C   UNL     1      41.337 -15.757  -0.374  1.00  0.00     0.210 C 
ENDBRANCH  23  27
ENDBRANCH  18  21
ENDBRANCH  16  17
ENDBRANCH   2  16
TORSDOF 6
ENDMDL
MODEL 8
REMARK VINA RESULT:      -7.2      2.346      5.636
REMARK  6 active torsions:
REMARK  status: ('A' for Active; 'I' for Inactive)
REMARK    1  A    between atoms: C_2  and  N_3 
REMARK    2  A    between atoms: C_2  and  C_16 
REMARK    3  A    between atoms: N_3  and  C_6 
REMARK    4  A    between atoms: C_16  and  C_17 
REMARK       I    between atoms: C_17  and  N_18 
REMARK    5  A    between atoms: N_18  and  C_19 
REMARK    6  A    between atoms: C_21  and  O_22 
ROOT
HETATM    1  C   UNL     1      39.495 -15.608   1.913  1.00  0.00     0.040 C 
HETATM    2  C   UNL     1      40.476 -16.565   2.578  1.00  0.00     0.191 C 
ENDROOT
BRANCH   2   3
HETATM    3  N   UNL     1      41.696 -15.822   3.065  1.00  0.00    -0.063 N 
HETATM    4  H   UNL     1      42.432 -16.552   3.176  1.00  0.00     0.278 HD
HETATM    5  H   UNL     1      42.052 -15.219   2.315  1.00  0.00     0.278 HD
BRANCH   3   6
HETATM    6  C   UNL     1      41.722 -15.037   4.360  1.00  0.00     0.221 C 
HETATM    7  C   UNL     1      42.222 -15.829   5.543  1.00  0.00    -0.011 A 
HETATM    8  C   UNL     1      43.299 -15.411   6.342  1.00  0.00     0.009 A 
HETATM    9  C   UNL     1      41.553 -17.025   5.889  1.00  0.00     0.011 A 
HETATM   10  C   UNL     1      43.703 -16.199   7.431  1.00  0.00     0.019 A 
HETATM   11  S   UNL     1      44.189 -13.888   6.103  1.00  0.00    -0.129 SA
HETATM   12  C   UNL     1      43.049 -17.390   7.738  1.00  0.00     0.001 A 
HETATM   13  C   UNL     1      41.969 -17.802   6.971  1.00  0.00     0.001 A 
HETATM   14  C   UNL     1      43.778 -13.499   4.390  1.00  0.00     0.082 C 
HETATM   15  C   UNL     1      42.287 -13.628   4.145  1.00  0.00     0.048 C 
ENDBRANCH   3   6
ENDBRANCH   2   3
BRANCH   2  16
HETATM   16  C   UNL     1      40.896 -17.659   1.569  1.00  0.00     0.135 C 
BRANCH  16  17
HETATM   17  C   UNL     1      42.195 -17.305   0.887  1.00  0.00     0.224 C 
HETATM   18  N   UNL     1      43.381 -17.856   1.246  1.00  0.00    -0.327 N 
HETATM   19  H   UNL     1      44.165 -17.402   0.783  1.00  0.00     0.169 HD
HETATM   20  O   UNL     1      42.166 -16.484  -0.042  1.00  0.00    -0.273 OA
BRANCH  18  21
HETATM   21  C   UNL     1      43.742 -18.891   2.134  1.00  0.00     0.037 A 
HETATM   22  C   UNL     1      43.976 -18.736   3.505  1.00  0.00     0.066 A 
HETATM   23  C   UNL     1      44.327 -19.837   4.296  1.00  0.00     0.070 A 
HETATM   24  C   UNL     1      44.440 -21.099   3.713  1.00  0.00     0.037 A 
HETATM   25  C   UNL     1      44.178 -21.273   2.359  1.00  0.00     0.005 A 
HETATM   26  C   UNL     1      43.820 -20.175   1.577  1.00  0.00     0.029 A 
BRANCH  23  27
HETATM   27  O   UNL     1      44.585 -19.813   5.638  1.00  0.00    -0.356 OA
HETATM   28  C   UNL     1      44.009 -20.835   6.441  1.00  0.00     0.210 C 
ENDBRANCH  23  27
ENDBRANCH  18  21
ENDBRANCH  16  17
ENDBRANCH   2  16
TORSDOF 6
ENDMDL
MODEL 9
REMARK VINA RESULT:      -7.0      3.056      4.553
REMARK  6 active torsions:
REMARK  status: ('A' for Active; 'I' for Inactive)
REMARK    1  A    between atoms: C_2  and  N_3 
REMARK    2  A    between atoms: C_2  and  C_16 
REMARK    3  A    between atoms: N_3  and  C_6 
REMARK    4  A    between atoms: C_16  and  C_17 
REMARK       I    between atoms: C_17  and  N_18 
REMARK    5  A    between atoms: N_18  and  C_19 
REMARK    6  A    between atoms: C_21  and  O_22 
ROOT
HETATM    1  C   UNL     1      44.497 -16.704   6.839  1.00  0.00     0.040 C 
HETATM    2  C   UNL     1      43.040 -17.118   6.678  1.00  0.00     0.191 C 
ENDROOT
BRANCH   2   3
HETATM    3  N   UNL     1      42.907 -18.205   5.640  1.00  0.00    -0.063 N 
HETATM    4  H   UNL     1      42.906 -19.097   6.180  1.00  0.00     0.278 HD
HETATM    5  H   UNL     1      41.973 -18.165   5.219  1.00  0.00     0.278 HD
BRANCH   3   6
HETATM    6  C   UNL     1      43.920 -18.417   4.533  1.00  0.00     0.221 C 
HETATM    7  C   UNL     1      44.190 -19.869   4.223  1.00  0.00    -0.011 A 
HETATM    8  C   UNL     1      44.043 -20.416   2.938  1.00  0.00     0.009 A 
HETATM    9  C   UNL     1      44.648 -20.710   5.263  1.00  0.00     0.011 A 
HETATM   10  C   UNL     1      44.320 -21.776   2.726  1.00  0.00     0.019 A 
HETATM   11  S   UNL     1      43.567 -19.479   1.502  1.00  0.00    -0.129 SA
HETATM   12  C   UNL     1      44.742 -22.595   3.770  1.00  0.00     0.001 A 
HETATM   13  C   UNL     1      44.913 -22.061   5.039  1.00  0.00     0.001 A 
HETATM   14  C   UNL     1      42.795 -18.035   2.257  1.00  0.00     0.082 C 
HETATM   15  C   UNL     1      43.667 -17.464   3.359  1.00  0.00     0.048 C 
ENDBRANCH   3   6
ENDBRANCH   2   3
BRANCH   2  16
HETATM   16  C   UNL     1      42.196 -15.890   6.262  1.00  0.00     0.135 C 
BRANCH  16  17
HETATM   17  C   UNL     1      40.723 -16.217   6.248  1.00  0.00     0.224 C 
HETATM   18  N   UNL     1      39.781 -15.326   5.852  1.00  0.00    -0.327 N 
HETATM   19  H   UNL     1      38.839 -15.662   6.040  1.00  0.00     0.169 HD
HETATM   20  O   UNL     1      40.370 -17.350   6.608  1.00  0.00    -0.273 OA
BRANCH  18  21
HETATM   21  C   UNL     1      39.843 -14.044   5.266  1.00  0.00     0.037 A 
HETATM   22  C   UNL     1      39.823 -12.833   5.968  1.00  0.00     0.066 A 
HETATM   23  C   UNL     1      39.893 -11.613   5.284  1.00  0.00     0.070 A 
HETATM   24  C   UNL     1      39.986 -11.605   3.892  1.00  0.00     0.037 A 
HETATM   25  C   UNL     1      40.040 -12.800   3.186  1.00  0.00     0.005 A 
HETATM   26  C   UNL     1      39.979 -14.013   3.871  1.00  0.00     0.029 A 
BRANCH  23  27
HETATM   27  O   UNL     1      39.878 -10.371   5.854  1.00  0.00    -0.356 OA
HETATM   28  C   UNL     1      40.270 -10.262   7.215  1.00  0.00     0.210 C 
ENDBRANCH  23  27
ENDBRANCH  18  21
ENDBRANCH  16  17
ENDBRANCH   2  16
TORSDOF 6
ENDMDL
MODEL 10
REMARK VINA RESULT:      -6.7      2.133      2.503
REMARK  6 active torsions:
REMARK  status: ('A' for Active; 'I' for Inactive)
REMARK    1  A    between atoms: C_2  and  N_3 
REMARK    2  A    between atoms: C_2  and  C_16 
REMARK    3  A    between atoms: N_3  and  C_6 
REMARK    4  A    between atoms: C_16  and  C_17 
REMARK       I    between atoms: C_17  and  N_18 
REMARK    5  A    between atoms: N_18  and  C_19 
REMARK    6  A    between atoms: C_21  and  O_22 
ROOT
HETATM    1  C   UNL     1      43.557 -14.840   2.997  1.00  0.00     0.040 C 
HETATM    2  C   UNL     1      42.567 -14.834   4.154  1.00  0.00     0.191 C 
ENDROOT
BRANCH   2   3
HETATM    3  N   UNL     1      41.456 -15.825   3.907  1.00  0.00    -0.063 N 
HETATM    4  H   UNL     1      40.591 -15.352   4.247  1.00  0.00     0.278 HD
HETATM    5  H   UNL     1      41.306 -15.927   2.897  1.00  0.00     0.278 HD
BRANCH   3   6
HETATM    6  C   UNL     1      41.424 -17.204   4.535  1.00  0.00     0.221 C 
HETATM    7  C   UNL     1      42.479 -18.141   4.001  1.00  0.00    -0.011 A 
HETATM    8  C   UNL     1      43.408 -18.795   4.826  1.00  0.00     0.009 A 
HETATM    9  C   UNL     1      42.511 -18.405   2.612  1.00  0.00     0.011 A 
HETATM   10  C   UNL     1      44.357 -19.659   4.257  1.00  0.00     0.019 A 
HETATM   11  S   UNL     1      43.446 -18.648   6.599  1.00  0.00    -0.129 SA
HETATM   12  C   UNL     1      44.391 -19.883   2.882  1.00  0.00     0.001 A 
HETATM   13  C   UNL     1      43.464 -19.261   2.059  1.00  0.00     0.001 A 
HETATM   14  C   UNL     1      42.527 -17.117   6.851  1.00  0.00     0.082 C 
HETATM   15  C   UNL     1      41.237 -17.118   6.054  1.00  0.00     0.048 C 
ENDBRANCH   3   6
ENDBRANCH   2   3
BRANCH   2  16
HETATM   16  C   UNL     1      41.977 -13.415   4.324  1.00  0.00     0.135 C 
BRANCH  16  17
HETATM   17  C   UNL     1      40.531 -13.369   3.894  1.00  0.00     0.224 C 
HETATM   18  N   UNL     1      40.157 -13.086   2.621  1.00  0.00    -0.327 N 
HETATM   19  H   UNL     1      39.151 -12.958   2.542  1.00  0.00     0.169 HD
HETATM   20  O   UNL     1      39.659 -13.608   4.741  1.00  0.00    -0.273 OA
BRANCH  18  21
HETATM   21  C   UNL     1      40.869 -12.911   1.416  1.00  0.00     0.037 A 
HETATM   22  C   UNL     1      41.740 -11.851   1.139  1.00  0.00     0.066 A 
HETATM   23  C   UNL     1      42.400 -11.777  -0.094  1.00  0.00     0.070 A 
HETATM   24  C   UNL     1      42.190 -12.769  -1.052  1.00  0.00     0.037 A 
HETATM   25  C   UNL     1      41.353 -13.844  -0.777  1.00  0.00     0.005 A 
HETATM   26  C   UNL     1      40.705 -13.919   0.456  1.00  0.00     0.029 A 
BRANCH  23  27
HETATM   27  O   UNL     1      43.267 -10.794  -0.484  1.00  0.00    -0.356 OA
HETATM   28  C   UNL     1      43.037 -10.169  -1.740  1.00  0.00     0.210 C 
ENDBRANCH  23  27
ENDBRANCH  18  21
ENDBRANCH  16  17
ENDBRANCH   2  16
TORSDOF 6
ENDMDL
