MODEL 1
REMARK VINA RESULT:      -8.5      0.000      0.000
REMARK  10 active torsions:
REMARK  status: ('A' for Active; 'I' for Inactive)
REMARK    1  A    between atoms: C_3  and  N_4 
REMARK    2  A    between atoms: C_5  and  S_6 
REMARK    3  A    between atoms: S_6  and  C_7 
REMARK    4  A    between atoms: C_7  and  C_8 
REMARK       I    between atoms: C_8  and  N_9 
REMARK    5  A    between atoms: N_9  and  C_10 
REMARK    6  A    between atoms: C_10  and  C_11 
REMARK    7  A    between atoms: C_11  and  C_12 
REMARK    8  A    between atoms: C_14  and  O_15 
REMARK    9  A    between atoms: C_17  and  O_18 
REMARK   10  A    between atoms: C_26  and  N_27 
ROOT
HETATM    1  N   UNL     1      41.459 -15.305   3.028  1.00  0.00    -0.275 N 
HETATM    2  C   UNL     1      42.181 -14.093   3.194  1.00  0.00     0.177 A 
HETATM    3  N   UNL     1      41.808 -12.910   2.770  1.00  0.00    -0.204 NA
HETATM    4  C   UNL     1      40.597 -12.907   2.169  1.00  0.00     0.162 A 
HETATM    5  C   UNL     1      39.742 -13.948   1.932  1.00  0.00     0.081 A 
HETATM    6  C   UNL     1      40.166 -15.247   2.364  1.00  0.00     0.124 A 
HETATM    7  N   UNL     1      39.965 -11.804   1.677  1.00  0.00    -0.260 N 
HETATM    8  H   UNL     1      40.295 -10.846   1.682  1.00  0.00     0.191 HD
HETATM    9  N   UNL     1      38.761 -12.084   1.131  1.00  0.00    -0.177 NA
HETATM   10  C   UNL     1      38.614 -13.409   1.294  1.00  0.00     0.068 A 
HETATM   11  C   UNL     1      37.379 -14.071   0.816  1.00  0.00     0.073 C 
ENDROOT
BRANCH   2  12
HETATM   12  S   UNL     1      43.769 -14.118   3.987  1.00  0.00    -0.082 SA
BRANCH  12  13
HETATM   13  C   UNL     1      43.285 -13.664   5.674  1.00  0.00     0.185 C 
BRANCH  13  14
HETATM   14  C   UNL     1      44.057 -14.451   6.727  1.00  0.00     0.227 C 
HETATM   15  N   UNL     1      44.464 -13.775   7.849  1.00  0.00    -0.360 N 
HETATM   16  H   UNL     1      45.002 -14.343   8.497  1.00  0.00     0.162 HD
HETATM   17  O   UNL     1      44.306 -15.655   6.639  1.00  0.00    -0.273 OA
BRANCH  15  18
HETATM   18  C   UNL     1      44.262 -12.366   8.153  1.00  0.00     0.127 C 
BRANCH  18  19
HETATM   19  C   UNL     1      45.045 -11.892   9.383  1.00  0.00     0.058 C 
BRANCH  19  20
HETATM   20  C   UNL     1      44.171 -11.384  10.509  1.00  0.00    -0.054 A 
HETATM   21  C   UNL     1      43.596 -10.104  10.461  1.00  0.00     0.046 A 
HETATM   22  C   UNL     1      42.802  -9.630  11.513  1.00  0.00     0.102 A 
HETATM   23  C   UNL     1      42.543 -10.462  12.619  1.00  0.00     0.101 A 
HETATM   24  C   UNL     1      43.093 -11.745  12.656  1.00  0.00     0.040 A 
HETATM   25  C   UNL     1      43.901 -12.203  11.610  1.00  0.00     0.010 A 
BRANCH  22  26
HETATM   26  O   UNL     1      42.222  -8.385  11.542  1.00  0.00    -0.353 OA
HETATM   27  C   UNL     1      41.210  -8.109  10.585  1.00  0.00     0.210 C 
ENDBRANCH  22  26
BRANCH  23  28
HETATM   28  O   UNL     1      41.751  -9.926  13.605  1.00  0.00    -0.353 OA
HETATM   29  C   UNL     1      42.267  -9.906  14.927  1.00  0.00     0.210 C 
ENDBRANCH  23  28
ENDBRANCH  19  20
ENDBRANCH  18  19
ENDBRANCH  15  18
ENDBRANCH  13  14
ENDBRANCH  12  13
ENDBRANCH   2  12
BRANCH   1  30
HETATM   30  C   UNL     1      41.927 -16.538   3.575  1.00  0.00     0.051 A 
HETATM   31  C   UNL     1      41.632 -16.929   4.900  1.00  0.00    -0.035 A 
HETATM   32  C   UNL     1      40.706 -16.149   5.793  1.00  0.00     0.050 C 
HETATM   33  C   UNL     1      42.178 -18.126   5.395  1.00  0.00     0.011 A 
HETATM   34  C   UNL     1      43.038 -18.899   4.614  1.00  0.00     0.024 A 
HETATM   35  C   UNL     1      43.343 -18.496   3.319  1.00  0.00     0.036 A 
HETATM   36  C   UNL     1      42.792 -17.329   2.796  1.00  0.00     0.054 A 
HETATM   37 CL   UNL     1      44.429 -19.427   2.365  1.00  0.00    -0.084 Cl
ENDBRANCH   1  30
BRANCH   6  38
HETATM   38  N   UNL     1      39.429 -16.317   2.141  1.00  0.00    -0.384 N 
HETATM   39  H   UNL     1      38.479 -16.389   2.471  1.00  0.00     0.157 HD
HETATM   40  H   UNL     1      39.816 -17.092   1.617  1.00  0.00     0.157 HD
ENDBRANCH   6  38
TORSDOF 10
ENDMDL
MODEL 2
REMARK VINA RESULT:      -8.2      4.041      5.935
REMARK  10 active torsions:
REMARK  status: ('A' for Active; 'I' for Inactive)
REMARK    1  A    between atoms: C_3  and  N_4 
REMARK    2  A    between atoms: C_5  and  S_6 
REMARK    3  A    between atoms: S_6  and  C_7 
REMARK    4  A    between atoms: C_7  and  C_8 
REMARK       I    between atoms: C_8  and  N_9 
REMARK    5  A    between atoms: N_9  and  C_10 
REMARK    6  A    between atoms: C_10  and  C_11 
REMARK    7  A    between atoms: C_11  and  C_12 
REMARK    8  A    between atoms: C_14  and  O_15 
REMARK    9  A    between atoms: C_17  and  O_18 
REMARK   10  A    between atoms: C_26  and  N_27 
ROOT
HETATM    1  N   UNL     1      41.902 -14.102   0.522  1.00  0.00    -0.275 N 
HETATM    2  C   UNL     1      42.194 -12.970   1.327  1.00  0.00     0.177 A 
HETATM    3  N   UNL     1      42.337 -11.738   0.901  1.00  0.00    -0.204 NA
HETATM    4  C   UNL     1      42.131 -11.597  -0.428  1.00  0.00     0.162 A 
HETATM    5  C   UNL     1      41.822 -12.545  -1.364  1.00  0.00     0.081 A 
HETATM    6  C   UNL     1      41.701 -13.896  -0.904  1.00  0.00     0.124 A 
HETATM    7  N   UNL     1      42.180 -10.419  -1.112  1.00  0.00    -0.260 N 
HETATM    8  H   UNL     1      42.375  -9.495  -0.743  1.00  0.00     0.191 HD
HETATM    9  N   UNL     1      41.930 -10.562  -2.432  1.00  0.00    -0.177 NA
HETATM   10  C   UNL     1      41.699 -11.876  -2.592  1.00  0.00     0.068 A 
HETATM   11  C   UNL     1      41.371 -12.400  -3.938  1.00  0.00     0.073 C 
ENDROOT
BRANCH   2  12
HETATM   12  S   UNL     1      42.461 -13.175   3.070  1.00  0.00    -0.082 SA
BRANCH  12  13
HETATM   13  C   UNL     1      41.534 -11.751   3.700  1.00  0.00     0.185 C 
BRANCH  13  14
HETATM   14  C   UNL     1      40.028 -11.933   3.557  1.00  0.00     0.227 C 
HETATM   15  N   UNL     1      39.390 -12.696   4.501  1.00  0.00    -0.360 N 
HETATM   16  H   UNL     1      38.394 -12.809   4.333  1.00  0.00     0.162 HD
HETATM   17  O   UNL     1      39.355 -11.412   2.664  1.00  0.00    -0.273 OA
BRANCH  15  18
HETATM   18  C   UNL     1      39.991 -13.385   5.634  1.00  0.00     0.127 C 
BRANCH  18  19
HETATM   19  C   UNL     1      39.913 -14.912   5.529  1.00  0.00     0.058 C 
BRANCH  19  20
HETATM   20  C   UNL     1      41.217 -15.616   5.832  1.00  0.00    -0.054 A 
HETATM   21  C   UNL     1      42.382 -14.891   6.129  1.00  0.00     0.046 A 
HETATM   22  C   UNL     1      43.592 -15.545   6.392  1.00  0.00     0.102 A 
HETATM   23  C   UNL     1      43.636 -16.952   6.397  1.00  0.00     0.101 A 
HETATM   24  C   UNL     1      42.471 -17.675   6.127  1.00  0.00     0.040 A 
HETATM   25  C   UNL     1      41.273 -17.013   5.846  1.00  0.00     0.010 A 
BRANCH  22  26
HETATM   26  O   UNL     1      44.772 -14.900   6.674  1.00  0.00    -0.353 OA
HETATM   27  C   UNL     1      44.715 -13.771   7.533  1.00  0.00     0.210 C 
ENDBRANCH  22  26
BRANCH  23  28
HETATM   28  O   UNL     1      44.857 -17.517   6.669  1.00  0.00    -0.353 OA
HETATM   29  C   UNL     1      45.256 -18.634   5.889  1.00  0.00     0.210 C 
ENDBRANCH  23  28
ENDBRANCH  19  20
ENDBRANCH  18  19
ENDBRANCH  15  18
ENDBRANCH  13  14
ENDBRANCH  12  13
ENDBRANCH   2  12
BRANCH   1  30
HETATM   30  C   UNL     1      41.713 -15.398   1.091  1.00  0.00     0.051 A 
HETATM   31  C   UNL     1      40.476 -15.801   1.641  1.00  0.00    -0.035 A 
HETATM   32  C   UNL     1      39.234 -14.955   1.560  1.00  0.00     0.050 C 
HETATM   33  C   UNL     1      40.377 -17.068   2.242  1.00  0.00     0.011 A 
HETATM   34  C   UNL     1      41.491 -17.904   2.341  1.00  0.00     0.024 A 
HETATM   35  C   UNL     1      42.711 -17.491   1.819  1.00  0.00     0.036 A 
HETATM   36  C   UNL     1      42.827 -16.252   1.193  1.00  0.00     0.054 A 
HETATM   37 CL   UNL     1      44.093 -18.503   1.969  1.00  0.00    -0.084 Cl
ENDBRANCH   1  30
BRANCH   6  38
HETATM   38  N   UNL     1      41.448 -14.884  -1.740  1.00  0.00    -0.384 N 
HETATM   39  H   UNL     1      41.335 -15.835  -1.423  1.00  0.00     0.157 HD
HETATM   40  H   UNL     1      41.355 -14.693  -2.729  1.00  0.00     0.157 HD
ENDBRANCH   6  38
TORSDOF 10
ENDMDL
MODEL 3
REMARK VINA RESULT:      -8.1      6.386      9.351
REMARK  10 active torsions:
REMARK  status: ('A' for Active; 'I' for Inactive)
REMARK    1  A    between atoms: C_3  and  N_4 
REMARK    2  A    between atoms: C_5  and  S_6 
REMARK    3  A    between atoms: S_6  and  C_7 
REMARK    4  A    between atoms: C_7  and  C_8 
REMARK       I    between atoms: C_8  and  N_9 
REMARK    5  A    between atoms: N_9  and  C_10 
REMARK    6  A    between atoms: C_10  and  C_11 
REMARK    7  A    between atoms: C_11  and  C_12 
REMARK    8  A    between atoms: C_14  and  O_15 
REMARK    9  A    between atoms: C_17  and  O_18 
REMARK   10  A    between atoms: C_26  and  N_27 
ROOT
HETATM    1  N   UNL     1      39.952 -12.519  -1.880  1.00  0.00    -0.275 N 
HETATM    2  C   UNL     1      40.087 -13.863  -1.442  1.00  0.00     0.177 A 
HETATM    3  N   UNL     1      39.308 -14.863  -1.774  1.00  0.00    -0.204 NA
HETATM    4  C   UNL     1      38.335 -14.524  -2.649  1.00  0.00     0.162 A 
HETATM    5  C   UNL     1      38.050 -13.307  -3.203  1.00  0.00     0.081 A 
HETATM    6  C   UNL     1      38.881 -12.206  -2.812  1.00  0.00     0.124 A 
HETATM    7  N   UNL     1      37.419 -15.383  -3.181  1.00  0.00    -0.260 N 
HETATM    8  H   UNL     1      37.327 -16.377  -3.006  1.00  0.00     0.191 HD
HETATM    9  N   UNL     1      36.561 -14.781  -4.034  1.00  0.00    -0.177 NA
HETATM   10  C   UNL     1      36.953 -13.497  -4.057  1.00  0.00     0.068 A 
HETATM   11  C   UNL     1      36.231 -12.529  -4.915  1.00  0.00     0.073 C 
ENDROOT
BRANCH   2  12
HETATM   12  S   UNL     1      41.372 -14.288  -0.294  1.00  0.00    -0.082 SA
BRANCH  12  13
HETATM   13  C   UNL     1      40.529 -13.927   1.270  1.00  0.00     0.185 C 
BRANCH  13  14
HETATM   14  C   UNL     1      39.477 -14.975   1.614  1.00  0.00     0.227 C 
HETATM   15  N   UNL     1      39.910 -16.139   2.196  1.00  0.00    -0.360 N 
HETATM   16  H   UNL     1      39.168 -16.811   2.370  1.00  0.00     0.162 HD
HETATM   17  O   UNL     1      38.268 -14.822   1.426  1.00  0.00    -0.273 OA
BRANCH  15  18
HETATM   18  C   UNL     1      41.281 -16.511   2.512  1.00  0.00     0.127 C 
BRANCH  18  19
HETATM   19  C   UNL     1      41.777 -17.730   1.726  1.00  0.00     0.058 C 
BRANCH  19  20
HETATM   20  C   UNL     1      42.733 -18.612   2.498  1.00  0.00    -0.054 A 
HETATM   21  C   UNL     1      42.937 -18.430   3.875  1.00  0.00     0.046 A 
HETATM   22  C   UNL     1      43.837 -19.236   4.584  1.00  0.00     0.102 A 
HETATM   23  C   UNL     1      44.521 -20.269   3.916  1.00  0.00     0.101 A 
HETATM   24  C   UNL     1      44.300 -20.467   2.551  1.00  0.00     0.040 A 
HETATM   25  C   UNL     1      43.414 -19.645   1.848  1.00  0.00     0.010 A 
BRANCH  22  26
HETATM   26  O   UNL     1      44.098 -19.105   5.926  1.00  0.00    -0.353 OA
HETATM   27  C   UNL     1      44.896 -18.004   6.336  1.00  0.00     0.210 C 
ENDBRANCH  22  26
BRANCH  23  28
HETATM   28  O   UNL     1      45.380 -21.018   4.682  1.00  0.00    -0.353 OA
HETATM   29  C   UNL     1      45.006 -22.355   4.975  1.00  0.00     0.210 C 
ENDBRANCH  23  28
ENDBRANCH  19  20
ENDBRANCH  18  19
ENDBRANCH  15  18
ENDBRANCH  13  14
ENDBRANCH  12  13
ENDBRANCH   2  12
BRANCH   1  30
HETATM   30  C   UNL     1      40.889 -11.509  -1.502  1.00  0.00     0.051 A 
HETATM   31  C   UNL     1      42.113 -11.331  -2.183  1.00  0.00    -0.035 A 
HETATM   32  C   UNL     1      42.472 -12.097  -3.428  1.00  0.00     0.050 C 
HETATM   33  C   UNL     1      43.017 -10.360  -1.719  1.00  0.00     0.011 A 
HETATM   34  C   UNL     1      42.739  -9.611  -0.574  1.00  0.00     0.024 A 
HETATM   35  C   UNL     1      41.543  -9.808   0.105  1.00  0.00     0.036 A 
HETATM   36  C   UNL     1      40.619 -10.744  -0.352  1.00  0.00     0.054 A 
HETATM   37 CL   UNL     1      41.211  -8.911   1.534  1.00  0.00    -0.084 Cl
ENDBRANCH   1  30
BRANCH   6  38
HETATM   38  N   UNL     1      38.657 -10.986  -3.260  1.00  0.00    -0.384 N 
HETATM   39  H   UNL     1      37.815 -10.480  -3.029  1.00  0.00     0.157 HD
HETATM   40  H   UNL     1      39.346 -10.532  -3.845  1.00  0.00     0.157 HD
ENDBRANCH   6  38
TORSDOF 10
ENDMDL
MODEL 4
REMARK VINA RESULT:      -8.1      5.099      8.844
REMARK  10 active torsions:
REMARK  status: ('A' for Active; 'I' for Inactive)
REMARK    1  A    between atoms: C_3  and  N_4 
REMARK    2  A    between atoms: C_5  and  S_6 
REMARK    3  A    between atoms: S_6  and  C_7 
REMARK    4  A    between atoms: C_7  and  C_8 
REMARK       I    between atoms: C_8  and  N_9 
REMARK    5  A    between atoms: N_9  and  C_10 
REMARK    6  A    between atoms: C_10  and  C_11 
REMARK    7  A    between atoms: C_11  and  C_12 
REMARK    8  A    between atoms: C_14  and  O_15 
REMARK    9  A    between atoms: C_17  and  O_18 
REMARK   10  A    between atoms: C_26  and  N_27 
ROOT
HETATM    1  N   UNL     1      40.081 -12.264   1.830  1.00  0.00    -0.275 N 
HETATM    2  C   UNL     1      41.159 -12.528   0.946  1.00  0.00     0.177 A 
HETATM    3  N   UNL     1      42.343 -12.975   1.287  1.00  0.00    -0.204 NA
HETATM    4  C   UNL     1      42.466 -13.228   2.609  1.00  0.00     0.162 A 
HETATM    5  C   UNL     1      41.552 -13.065   3.614  1.00  0.00     0.081 A 
HETATM    6  C   UNL     1      40.270 -12.543   3.246  1.00  0.00     0.124 A 
HETATM    7  N   UNL     1      43.578 -13.734   3.214  1.00  0.00    -0.260 N 
HETATM    8  H   UNL     1      44.458 -13.989   2.781  1.00  0.00     0.191 HD
HETATM    9  N   UNL     1      43.429 -13.894   4.548  1.00  0.00    -0.177 NA
HETATM   10  C   UNL     1      42.173 -13.489   4.799  1.00  0.00     0.068 A 
HETATM   11  C   UNL     1      41.653 -13.541   6.185  1.00  0.00     0.073 C 
ENDROOT
BRANCH   2  12
HETATM   12  S   UNL     1      40.978 -12.189  -0.787  1.00  0.00    -0.082 SA
BRANCH  12  13
HETATM   13  C   UNL     1      41.651 -13.724  -1.479  1.00  0.00     0.185 C 
BRANCH  13  14
HETATM   14  C   UNL     1      40.574 -14.778  -1.703  1.00  0.00     0.227 C 
HETATM   15  N   UNL     1      40.621 -15.906  -0.923  1.00  0.00    -0.360 N 
HETATM   16  H   UNL     1      39.899 -16.586  -1.142  1.00  0.00     0.162 HD
HETATM   17  O   UNL     1      39.656 -14.660  -2.516  1.00  0.00    -0.273 OA
BRANCH  15  18
HETATM   18  C   UNL     1      41.606 -16.234   0.097  1.00  0.00     0.127 C 
BRANCH  18  19
HETATM   19  C   UNL     1      40.986 -16.776   1.390  1.00  0.00     0.058 C 
BRANCH  19  20
HETATM   20  C   UNL     1      41.978 -17.449   2.312  1.00  0.00    -0.054 A 
HETATM   21  C   UNL     1      42.118 -17.044   3.649  1.00  0.00     0.046 A 
HETATM   22  C   UNL     1      43.050 -17.658   4.495  1.00  0.00     0.102 A 
HETATM   23  C   UNL     1      43.833 -18.723   4.011  1.00  0.00     0.101 A 
HETATM   24  C   UNL     1      43.677 -19.144   2.689  1.00  0.00     0.040 A 
HETATM   25  C   UNL     1      42.757 -18.513   1.846  1.00  0.00     0.010 A 
BRANCH  22  26
HETATM   26  O   UNL     1      43.252 -17.303   5.806  1.00  0.00    -0.353 OA
HETATM   27  C   UNL     1      42.107 -17.175   6.636  1.00  0.00     0.210 C 
ENDBRANCH  22  26
BRANCH  23  28
HETATM   28  O   UNL     1      44.718 -19.275   4.904  1.00  0.00    -0.353 OA
HETATM   29  C   UNL     1      44.767 -20.691   4.993  1.00  0.00     0.210 C 
ENDBRANCH  23  28
ENDBRANCH  19  20
ENDBRANCH  18  19
ENDBRANCH  15  18
ENDBRANCH  13  14
ENDBRANCH  12  13
ENDBRANCH   2  12
BRANCH   1  30
HETATM   30  C   UNL     1      38.807 -11.827   1.352  1.00  0.00     0.051 A 
HETATM   31  C   UNL     1      37.822 -12.737   0.910  1.00  0.00    -0.035 A 
HETATM   32  C   UNL     1      37.981 -14.229   1.024  1.00  0.00     0.050 C 
HETATM   33  C   UNL     1      36.615 -12.237   0.392  1.00  0.00     0.011 A 
HETATM   34  C   UNL     1      36.403 -10.862   0.268  1.00  0.00     0.024 A 
HETATM   35  C   UNL     1      37.387  -9.973   0.683  1.00  0.00     0.036 A 
HETATM   36  C   UNL     1      38.580 -10.445   1.226  1.00  0.00     0.054 A 
HETATM   37 CL   UNL     1      37.144  -8.281   0.500  1.00  0.00    -0.084 Cl
ENDBRANCH   1  30
BRANCH   6  38
HETATM   38  N   UNL     1      39.339 -12.311   4.150  1.00  0.00    -0.384 N 
HETATM   39  H   UNL     1      39.208 -12.914   4.948  1.00  0.00     0.157 HD
HETATM   40  H   UNL     1      38.739 -11.501   4.056  1.00  0.00     0.157 HD
ENDBRANCH   6  38
TORSDOF 10
ENDMDL
MODEL 5
REMARK VINA RESULT:      -8.1      6.264      9.190
REMARK  10 active torsions:
REMARK  status: ('A' for Active; 'I' for Inactive)
REMARK    1  A    between atoms: C_3  and  N_4 
REMARK    2  A    between atoms: C_5  and  S_6 
REMARK    3  A    between atoms: S_6  and  C_7 
REMARK    4  A    between atoms: C_7  and  C_8 
REMARK       I    between atoms: C_8  and  N_9 
REMARK    5  A    between atoms: N_9  and  C_10 
REMARK    6  A    between atoms: C_10  and  C_11 
REMARK    7  A    between atoms: C_11  and  C_12 
REMARK    8  A    between atoms: C_14  and  O_15 
REMARK    9  A    between atoms: C_17  and  O_18 
REMARK   10  A    between atoms: C_26  and  N_27 
ROOT
HETATM    1  N   UNL     1      40.852 -12.314  -1.999  1.00  0.00    -0.275 N 
HETATM    2  C   UNL     1      41.750 -12.729  -0.981  1.00  0.00     0.177 A 
HETATM    3  N   UNL     1      42.790 -12.057  -0.550  1.00  0.00    -0.204 NA
HETATM    4  C   UNL     1      42.935 -10.848  -1.138  1.00  0.00     0.162 A 
HETATM    5  C   UNL     1      42.176 -10.259  -2.111  1.00  0.00     0.081 A 
HETATM    6  C   UNL     1      41.061 -11.009  -2.607  1.00  0.00     0.124 A 
HETATM    7  N   UNL     1      43.908  -9.940  -0.842  1.00  0.00    -0.260 N 
HETATM    8  H   UNL     1      44.652 -10.028  -0.160  1.00  0.00     0.191 HD
HETATM    9  N   UNL     1      43.819  -8.810  -1.578  1.00  0.00    -0.177 NA
HETATM   10  C   UNL     1      42.743  -8.999  -2.359  1.00  0.00     0.068 A 
HETATM   11  C   UNL     1      42.331  -7.935  -3.304  1.00  0.00     0.073 C 
ENDROOT
BRANCH   2  12
HETATM   12  S   UNL     1      41.542 -14.319  -0.220  1.00  0.00    -0.082 SA
BRANCH  12  13
HETATM   13  C   UNL     1      40.625 -13.837   1.268  1.00  0.00     0.185 C 
BRANCH  13  14
HETATM   14  C   UNL     1      39.512 -14.823   1.605  1.00  0.00     0.227 C 
HETATM   15  N   UNL     1      39.868 -15.986   2.239  1.00  0.00    -0.360 N 
HETATM   16  H   UNL     1      39.089 -16.616   2.406  1.00  0.00     0.162 HD
HETATM   17  O   UNL     1      38.320 -14.620   1.367  1.00  0.00    -0.273 OA
BRANCH  15  18
HETATM   18  C   UNL     1      41.207 -16.411   2.619  1.00  0.00     0.127 C 
BRANCH  18  19
HETATM   19  C   UNL     1      41.724 -17.597   1.797  1.00  0.00     0.058 C 
BRANCH  19  20
HETATM   20  C   UNL     1      42.676 -18.498   2.552  1.00  0.00    -0.054 A 
HETATM   21  C   UNL     1      42.914 -18.318   3.924  1.00  0.00     0.046 A 
HETATM   22  C   UNL     1      43.809 -19.143   4.616  1.00  0.00     0.102 A 
HETATM   23  C   UNL     1      44.454 -20.194   3.937  1.00  0.00     0.101 A 
HETATM   24  C   UNL     1      44.199 -20.391   2.578  1.00  0.00     0.040 A 
HETATM   25  C   UNL     1      43.318 -19.550   1.891  1.00  0.00     0.010 A 
BRANCH  22  26
HETATM   26  O   UNL     1      44.101 -19.014   5.952  1.00  0.00    -0.353 OA
HETATM   27  C   UNL     1      44.844 -17.872   6.355  1.00  0.00     0.210 C 
ENDBRANCH  22  26
BRANCH  23  28
HETATM   28  O   UNL     1      45.310 -20.961   4.687  1.00  0.00    -0.353 OA
HETATM   29  C   UNL     1      44.938 -22.307   4.942  1.00  0.00     0.210 C 
ENDBRANCH  23  28
ENDBRANCH  19  20
ENDBRANCH  18  19
ENDBRANCH  15  18
ENDBRANCH  13  14
ENDBRANCH  12  13
ENDBRANCH   2  12
BRANCH   1  30
HETATM   30  C   UNL     1      39.715 -13.098  -2.362  1.00  0.00     0.051 A 
HETATM   31  C   UNL     1      38.456 -12.920  -1.747  1.00  0.00    -0.035 A 
HETATM   32  C   UNL     1      38.180 -11.818  -0.760  1.00  0.00     0.050 C 
HETATM   33  C   UNL     1      37.395 -13.769  -2.106  1.00  0.00     0.011 A 
HETATM   34  C   UNL     1      37.585 -14.806  -3.022  1.00  0.00     0.024 A 
HETATM   35  C   UNL     1      38.832 -14.990  -3.606  1.00  0.00     0.036 A 
HETATM   36  C   UNL     1      39.892 -14.143  -3.286  1.00  0.00     0.054 A 
HETATM   37 CL   UNL     1      39.080 -16.286  -4.708  1.00  0.00    -0.084 Cl
ENDBRANCH   1  30
BRANCH   6  38
HETATM   38  N   UNL     1      40.297 -10.542  -3.576  1.00  0.00    -0.384 N 
HETATM   39  H   UNL     1      39.831  -9.650  -3.504  1.00  0.00     0.157 HD
HETATM   40  H   UNL     1      40.176 -11.081  -4.423  1.00  0.00     0.157 HD
ENDBRANCH   6  38
TORSDOF 10
ENDMDL
MODEL 6
REMARK VINA RESULT:      -8.0      5.041      7.859
REMARK  10 active torsions:
REMARK  status: ('A' for Active; 'I' for Inactive)
REMARK    1  A    between atoms: C_3  and  N_4 
REMARK    2  A    between atoms: C_5  and  S_6 
REMARK    3  A    between atoms: S_6  and  C_7 
REMARK    4  A    between atoms: C_7  and  C_8 
REMARK       I    between atoms: C_8  and  N_9 
REMARK    5  A    between atoms: N_9  and  C_10 
REMARK    6  A    between atoms: C_10  and  C_11 
REMARK    7  A    between atoms: C_11  and  C_12 
REMARK    8  A    between atoms: C_14  and  O_15 
REMARK    9  A    between atoms: C_17  and  O_18 
REMARK   10  A    between atoms: C_26  and  N_27 
ROOT
HETATM    1  N   UNL     1      39.680 -12.812   2.282  1.00  0.00    -0.275 N 
HETATM    2  C   UNL     1      39.611 -14.093   2.891  1.00  0.00     0.177 A 
HETATM    3  N   UNL     1      39.528 -14.332   4.177  1.00  0.00    -0.204 NA
HETATM    4  C   UNL     1      39.462 -13.212   4.932  1.00  0.00     0.162 A 
HETATM    5  C   UNL     1      39.490 -11.901   4.546  1.00  0.00     0.081 A 
HETATM    6  C   UNL     1      39.617 -11.640   3.143  1.00  0.00     0.124 A 
HETATM    7  N   UNL     1      39.332 -13.184   6.289  1.00  0.00    -0.260 N 
HETATM    8  H   UNL     1      39.270 -13.973   6.922  1.00  0.00     0.191 HD
HETATM    9  N   UNL     1      39.286 -11.930   6.791  1.00  0.00    -0.177 NA
HETATM   10  C   UNL     1      39.375 -11.132   5.714  1.00  0.00     0.068 A 
HETATM   11  C   UNL     1      39.342  -9.661   5.891  1.00  0.00     0.073 C 
ENDROOT
BRANCH   2  12
HETATM   12  S   UNL     1      39.699 -15.551   1.881  1.00  0.00    -0.082 SA
BRANCH  12  13
HETATM   13  C   UNL     1      41.494 -15.803   1.849  1.00  0.00     0.185 C 
BRANCH  13  14
HETATM   14  C   UNL     1      41.983 -16.298   0.493  1.00  0.00     0.227 C 
HETATM   15  N   UNL     1      43.138 -17.037   0.469  1.00  0.00    -0.360 N 
HETATM   16  H   UNL     1      43.431 -17.309  -0.465  1.00  0.00     0.162 HD
HETATM   17  O   UNL     1      41.387 -16.097  -0.567  1.00  0.00    -0.273 OA
BRANCH  15  18
HETATM   18  C   UNL     1      43.982 -17.396   1.599  1.00  0.00     0.127 C 
BRANCH  18  19
HETATM   19  C   UNL     1      43.801 -18.848   2.056  1.00  0.00     0.058 C 
BRANCH  19  20
HETATM   20  C   UNL     1      43.748 -19.016   3.559  1.00  0.00    -0.054 A 
HETATM   21  C   UNL     1      42.906 -18.218   4.350  1.00  0.00     0.046 A 
HETATM   22  C   UNL     1      42.873 -18.364   5.742  1.00  0.00     0.102 A 
HETATM   23  C   UNL     1      43.666 -19.351   6.358  1.00  0.00     0.101 A 
HETATM   24  C   UNL     1      44.485 -20.163   5.569  1.00  0.00     0.040 A 
HETATM   25  C   UNL     1      44.526 -19.997   4.182  1.00  0.00     0.010 A 
BRANCH  22  26
HETATM   26  O   UNL     1      42.088 -17.609   6.579  1.00  0.00    -0.353 OA
HETATM   27  C   UNL     1      41.367 -16.528   6.005  1.00  0.00     0.210 C 
ENDBRANCH  22  26
BRANCH  23  28
HETATM   28  O   UNL     1      43.572 -19.435   7.725  1.00  0.00    -0.353 OA
HETATM   29  C   UNL     1      44.560 -18.768   8.496  1.00  0.00     0.210 C 
ENDBRANCH  23  28
ENDBRANCH  19  20
ENDBRANCH  18  19
ENDBRANCH  15  18
ENDBRANCH  13  14
ENDBRANCH  12  13
ENDBRANCH   2  12
BRANCH   1  30
HETATM   30  C   UNL     1      39.715 -12.656   0.863  1.00  0.00     0.051 A 
HETATM   31  C   UNL     1      38.537 -12.611   0.086  1.00  0.00    -0.035 A 
HETATM   32  C   UNL     1      37.160 -12.596   0.694  1.00  0.00     0.050 C 
HETATM   33  C   UNL     1      38.645 -12.520  -1.313  1.00  0.00     0.011 A 
HETATM   34  C   UNL     1      39.894 -12.521  -1.937  1.00  0.00     0.024 A 
HETATM   35  C   UNL     1      41.049 -12.589  -1.167  1.00  0.00     0.036 A 
HETATM   36  C   UNL     1      40.968 -12.652   0.222  1.00  0.00     0.054 A 
HETATM   37 CL   UNL     1      42.588 -12.626  -1.933  1.00  0.00    -0.084 Cl
ENDBRANCH   1  30
BRANCH   6  38
HETATM   38  N   UNL     1      39.696 -10.408   2.679  1.00  0.00    -0.384 N 
HETATM   39  H   UNL     1      40.544 -10.046   2.270  1.00  0.00     0.157 HD
HETATM   40  H   UNL     1      38.886  -9.804   2.721  1.00  0.00     0.157 HD
ENDBRANCH   6  38
TORSDOF 10
ENDMDL
MODEL 7
REMARK VINA RESULT:      -8.0      4.612      7.264
REMARK  10 active torsions:
REMARK  status: ('A' for Active; 'I' for Inactive)
REMARK    1  A    between atoms: C_3  and  N_4 
REMARK    2  A    between atoms: C_5  and  S_6 
REMARK    3  A    between atoms: S_6  and  C_7 
REMARK    4  A    between atoms: C_7  and  C_8 
REMARK       I    between atoms: C_8  and  N_9 
REMARK    5  A    between atoms: N_9  and  C_10 
REMARK    6  A    between atoms: C_10  and  C_11 
REMARK    7  A    between atoms: C_11  and  C_12 
REMARK    8  A    between atoms: C_14  and  O_15 
REMARK    9  A    between atoms: C_17  and  O_18 
REMARK   10  A    between atoms: C_26  and  N_27 
ROOT
HETATM    1  N   UNL     1      40.927 -13.718   0.495  1.00  0.00    -0.275 N 
HETATM    2  C   UNL     1      41.561 -12.822   1.395  1.00  0.00     0.177 A 
HETATM    3  N   UNL     1      42.472 -13.137   2.283  1.00  0.00    -0.204 NA
HETATM    4  C   UNL     1      42.827 -14.442   2.254  1.00  0.00     0.162 A 
HETATM    5  C   UNL     1      42.360 -15.452   1.460  1.00  0.00     0.081 A 
HETATM    6  C   UNL     1      41.338 -15.114   0.514  1.00  0.00     0.124 A 
HETATM    7  N   UNL     1      43.777 -15.017   3.045  1.00  0.00    -0.260 N 
HETATM    8  H   UNL     1      44.346 -14.571   3.755  1.00  0.00     0.191 HD
HETATM    9  N   UNL     1      43.936 -16.338   2.806  1.00  0.00    -0.177 NA
HETATM   10  C   UNL     1      43.066 -16.610   1.819  1.00  0.00     0.068 A 
HETATM   11  C   UNL     1      42.977 -17.989   1.286  1.00  0.00     0.073 C 
ENDROOT
BRANCH   2  12
HETATM   12  S   UNL     1      41.082 -11.112   1.416  1.00  0.00    -0.082 SA
BRANCH  12  13
HETATM   13  C   UNL     1      40.716 -10.910   3.180  1.00  0.00     0.185 C 
BRANCH  13  14
HETATM   14  C   UNL     1      39.287 -11.315   3.523  1.00  0.00     0.227 C 
HETATM   15  N   UNL     1      39.117 -12.397   4.348  1.00  0.00    -0.360 N 
HETATM   16  H   UNL     1      38.144 -12.638   4.512  1.00  0.00     0.162 HD
HETATM   17  O   UNL     1      38.288 -10.710   3.128  1.00  0.00    -0.273 OA
BRANCH  15  18
HETATM   18  C   UNL     1      40.154 -13.236   4.930  1.00  0.00     0.127 C 
BRANCH  18  19
HETATM   19  C   UNL     1      39.932 -14.734   4.688  1.00  0.00     0.058 C 
BRANCH  19  20
HETATM   20  C   UNL     1      41.039 -15.613   5.226  1.00  0.00    -0.054 A 
HETATM   21  C   UNL     1      42.047 -15.089   6.050  1.00  0.00     0.046 A 
HETATM   22  C   UNL     1      43.080 -15.902   6.533  1.00  0.00     0.102 A 
HETATM   23  C   UNL     1      43.090 -17.274   6.219  1.00  0.00     0.101 A 
HETATM   24  C   UNL     1      42.073 -17.803   5.420  1.00  0.00     0.040 A 
HETATM   25  C   UNL     1      41.056 -16.979   4.928  1.00  0.00     0.010 A 
BRANCH  22  26
HETATM   26  O   UNL     1      44.107 -15.455   7.328  1.00  0.00    -0.353 OA
HETATM   27  C   UNL     1      44.834 -14.318   6.886  1.00  0.00     0.210 C 
ENDBRANCH  22  26
BRANCH  23  28
HETATM   28  O   UNL     1      44.132 -18.004   6.735  1.00  0.00    -0.353 OA
HETATM   29  C   UNL     1      44.929 -18.749   5.826  1.00  0.00     0.210 C 
ENDBRANCH  23  28
ENDBRANCH  19  20
ENDBRANCH  18  19
ENDBRANCH  15  18
ENDBRANCH  13  14
ENDBRANCH  12  13
ENDBRANCH   2  12
BRANCH   1  30
HETATM   30  C   UNL     1      39.981 -13.264  -0.475  1.00  0.00     0.051 A 
HETATM   31  C   UNL     1      38.589 -13.411  -0.287  1.00  0.00    -0.035 A 
HETATM   32  C   UNL     1      37.990 -13.935   0.990  1.00  0.00     0.050 C 
HETATM   33  C   UNL     1      37.716 -13.000  -1.309  1.00  0.00     0.011 A 
HETATM   34  C   UNL     1      38.210 -12.497  -2.514  1.00  0.00     0.024 A 
HETATM   35  C   UNL     1      39.581 -12.378  -2.701  1.00  0.00     0.036 A 
HETATM   36  C   UNL     1      40.466 -12.752  -1.692  1.00  0.00     0.054 A 
HETATM   37 CL   UNL     1      40.195 -11.792  -4.197  1.00  0.00    -0.084 Cl
ENDBRANCH   1  30
BRANCH   6  38
HETATM   38  N   UNL     1      40.795 -16.029  -0.265  1.00  0.00    -0.384 N 
HETATM   39  H   UNL     1      40.152 -15.787  -1.003  1.00  0.00     0.157 HD
HETATM   40  H   UNL     1      41.031 -17.004  -0.133  1.00  0.00     0.157 HD
ENDBRANCH   6  38
TORSDOF 10
ENDMDL
MODEL 8
REMARK VINA RESULT:      -8.0      4.956      8.155
REMARK  10 active torsions:
REMARK  status: ('A' for Active; 'I' for Inactive)
REMARK    1  A    between atoms: C_3  and  N_4 
REMARK    2  A    between atoms: C_5  and  S_6 
REMARK    3  A    between atoms: S_6  and  C_7 
REMARK    4  A    between atoms: C_7  and  C_8 
REMARK       I    between atoms: C_8  and  N_9 
REMARK    5  A    between atoms: N_9  and  C_10 
REMARK    6  A    between atoms: C_10  and  C_11 
REMARK    7  A    between atoms: C_11  and  C_12 
REMARK    8  A    between atoms: C_14  and  O_15 
REMARK    9  A    between atoms: C_17  and  O_18 
REMARK   10  A    between atoms: C_26  and  N_27 
ROOT
HETATM    1  N   UNL     1      41.189 -13.345   4.999  1.00  0.00    -0.275 N 
HETATM    2  C   UNL     1      40.828 -13.595   3.649  1.00  0.00     0.177 A 
HETATM    3  N   UNL     1      39.965 -12.907   2.942  1.00  0.00    -0.204 NA
HETATM    4  C   UNL     1      39.440 -11.852   3.605  1.00  0.00     0.162 A 
HETATM    5  C   UNL     1      39.668 -11.431   4.886  1.00  0.00     0.081 A 
HETATM    6  C   UNL     1      40.586 -12.203   5.670  1.00  0.00     0.124 A 
HETATM    7  N   UNL     1      38.552 -10.958   3.086  1.00  0.00    -0.260 N 
HETATM    8  H   UNL     1      38.157 -10.947   2.152  1.00  0.00     0.191 HD
HETATM    9  N   UNL     1      38.193  -9.996   3.965  1.00  0.00    -0.177 NA
HETATM   10  C   UNL     1      38.889 -10.280   5.079  1.00  0.00     0.068 A 
HETATM   11  C   UNL     1      38.749  -9.407   6.267  1.00  0.00     0.073 C 
ENDROOT
BRANCH   2  12
HETATM   12  S   UNL     1      41.529 -14.985   2.795  1.00  0.00    -0.082 SA
BRANCH  12  13
HETATM   13  C   UNL     1      40.632 -14.873   1.224  1.00  0.00     0.185 C 
BRANCH  13  14
HETATM   14  C   UNL     1      41.551 -15.046   0.020  1.00  0.00     0.227 C 
HETATM   15  N   UNL     1      42.224 -16.235  -0.096  1.00  0.00    -0.360 N 
HETATM   16  H   UNL     1      42.846 -16.277  -0.898  1.00  0.00     0.162 HD
HETATM   17  O   UNL     1      41.697 -14.195  -0.860  1.00  0.00    -0.273 OA
BRANCH  15  18
HETATM   18  C   UNL     1      42.183 -17.367   0.819  1.00  0.00     0.127 C 
BRANCH  18  19
HETATM   19  C   UNL     1      43.556 -18.004   1.059  1.00  0.00     0.058 C 
BRANCH  19  20
HETATM   20  C   UNL     1      43.716 -18.617   2.434  1.00  0.00    -0.054 A 
HETATM   21  C   UNL     1      44.467 -19.787   2.624  1.00  0.00     0.046 A 
HETATM   22  C   UNL     1      44.598 -20.362   3.894  1.00  0.00     0.102 A 
HETATM   23  C   UNL     1      44.000 -19.738   5.006  1.00  0.00     0.101 A 
HETATM   24  C   UNL     1      43.274 -18.559   4.822  1.00  0.00     0.040 A 
HETATM   25  C   UNL     1      43.132 -18.003   3.547  1.00  0.00     0.010 A 
BRANCH  22  26
HETATM   26  O   UNL     1      45.303 -21.512   4.152  1.00  0.00    -0.353 OA
HETATM   27  C   UNL     1      44.620 -22.748   4.003  1.00  0.00     0.210 C 
ENDBRANCH  22  26
BRANCH  23  28
HETATM   28  O   UNL     1      44.181 -20.360   6.216  1.00  0.00    -0.353 OA
HETATM   29  C   UNL     1      43.813 -19.644   7.386  1.00  0.00     0.210 C 
ENDBRANCH  23  28
ENDBRANCH  19  20
ENDBRANCH  18  19
ENDBRANCH  15  18
ENDBRANCH  13  14
ENDBRANCH  12  13
ENDBRANCH   2  12
BRANCH   1  30
HETATM   30  C   UNL     1      42.183 -14.123   5.667  1.00  0.00     0.051 A 
HETATM   31  C   UNL     1      41.883 -15.365   6.267  1.00  0.00    -0.035 A 
HETATM   32  C   UNL     1      40.536 -16.025   6.146  1.00  0.00     0.050 C 
HETATM   33  C   UNL     1      42.896 -16.049   6.963  1.00  0.00     0.011 A 
HETATM   34  C   UNL     1      44.169 -15.494   7.104  1.00  0.00     0.024 A 
HETATM   35  C   UNL     1      44.450 -14.260   6.530  1.00  0.00     0.036 A 
HETATM   36  C   UNL     1      43.472 -13.577   5.812  1.00  0.00     0.054 A 
HETATM   37 CL   UNL     1      46.007 -13.557   6.730  1.00  0.00    -0.084 Cl
ENDBRANCH   1  30
BRANCH   6  38
HETATM   38  N   UNL     1      40.836 -11.900   6.928  1.00  0.00    -0.384 N 
HETATM   39  H   UNL     1      41.753 -12.016   7.333  1.00  0.00     0.157 HD
HETATM   40  H   UNL     1      40.096 -11.531   7.512  1.00  0.00     0.157 HD
ENDBRANCH   6  38
TORSDOF 10
ENDMDL
MODEL 9
REMARK VINA RESULT:      -8.0      4.743      8.342
REMARK  10 active torsions:
REMARK  status: ('A' for Active; 'I' for Inactive)
REMARK    1  A    between atoms: C_3  and  N_4 
REMARK    2  A    between atoms: C_5  and  S_6 
REMARK    3  A    between atoms: S_6  and  C_7 
REMARK    4  A    between atoms: C_7  and  C_8 
REMARK       I    between atoms: C_8  and  N_9 
REMARK    5  A    between atoms: N_9  and  C_10 
REMARK    6  A    between atoms: C_10  and  C_11 
REMARK    7  A    between atoms: C_11  and  C_12 
REMARK    8  A    between atoms: C_14  and  O_15 
REMARK    9  A    between atoms: C_17  and  O_18 
REMARK   10  A    between atoms: C_26  and  N_27 
ROOT
HETATM    1  N   UNL     1      40.815 -12.341   2.037  1.00  0.00    -0.275 N 
HETATM    2  C   UNL     1      40.723 -13.723   1.726  1.00  0.00     0.177 A 
HETATM    3  N   UNL     1      41.146 -14.295   0.625  1.00  0.00    -0.204 NA
HETATM    4  C   UNL     1      41.755 -13.441  -0.229  1.00  0.00     0.162 A 
HETATM    5  C   UNL     1      41.964 -12.095  -0.109  1.00  0.00     0.081 A 
HETATM    6  C   UNL     1      41.469 -11.464   1.078  1.00  0.00     0.124 A 
HETATM    7  N   UNL     1      42.317 -13.787  -1.422  1.00  0.00    -0.260 N 
HETATM    8  H   UNL     1      42.361 -14.708  -1.842  1.00  0.00     0.191 HD
HETATM    9  N   UNL     1      42.863 -12.737  -2.075  1.00  0.00    -0.177 NA
HETATM   10  C   UNL     1      42.654 -11.688  -1.262  1.00  0.00     0.068 A 
HETATM   11  C   UNL     1      43.143 -10.348  -1.660  1.00  0.00     0.073 C 
ENDROOT
BRANCH   2  12
HETATM   12  S   UNL     1      39.920 -14.828   2.860  1.00  0.00    -0.082 SA
BRANCH  12  13
HETATM   13  C   UNL     1      41.327 -15.270   3.916  1.00  0.00     0.185 C 
BRANCH  13  14
HETATM   14  C   UNL     1      41.008 -15.113   5.398  1.00  0.00     0.227 C 
HETATM   15  N   UNL     1      42.019 -15.357   6.292  1.00  0.00    -0.360 N 
HETATM   16  H   UNL     1      41.737 -15.268   7.264  1.00  0.00     0.162 HD
HETATM   17  O   UNL     1      39.911 -14.753   5.830  1.00  0.00    -0.273 OA
BRANCH  15  18
HETATM   18  C   UNL     1      43.381 -15.776   5.993  1.00  0.00     0.127 C 
BRANCH  18  19
HETATM   19  C   UNL     1      43.689 -17.208   6.443  1.00  0.00     0.058 C 
BRANCH  19  20
HETATM   20  C   UNL     1      43.957 -18.166   5.304  1.00  0.00    -0.054 A 
HETATM   21  C   UNL     1      43.734 -17.789   3.970  1.00  0.00     0.046 A 
HETATM   22  C   UNL     1      43.967 -18.684   2.918  1.00  0.00     0.102 A 
HETATM   23  C   UNL     1      44.468 -19.969   3.196  1.00  0.00     0.101 A 
HETATM   24  C   UNL     1      44.715 -20.337   4.521  1.00  0.00     0.040 A 
HETATM   25  C   UNL     1      44.461 -19.444   5.566  1.00  0.00     0.010 A 
BRANCH  22  26
HETATM   26  O   UNL     1      43.755 -18.389   1.593  1.00  0.00    -0.353 OA
HETATM   27  C   UNL     1      42.550 -17.720   1.253  1.00  0.00     0.210 C 
ENDBRANCH  22  26
BRANCH  23  28
HETATM   28  O   UNL     1      44.675 -20.784   2.111  1.00  0.00    -0.353 OA
HETATM   29  C   UNL     1      43.801 -21.890   1.940  1.00  0.00     0.210 C 
ENDBRANCH  23  28
ENDBRANCH  19  20
ENDBRANCH  18  19
ENDBRANCH  15  18
ENDBRANCH  13  14
ENDBRANCH  12  13
ENDBRANCH   2  12
BRANCH   1  30
HETATM   30  C   UNL     1      40.369 -11.823   3.292  1.00  0.00     0.051 A 
HETATM   31  C   UNL     1      39.076 -11.283   3.461  1.00  0.00    -0.035 A 
HETATM   32  C   UNL     1      38.028 -11.321   2.382  1.00  0.00     0.050 C 
HETATM   33  C   UNL     1      38.724 -10.732   4.706  1.00  0.00     0.011 A 
HETATM   34  C   UNL     1      39.649 -10.674   5.751  1.00  0.00     0.024 A 
HETATM   35  C   UNL     1      40.927 -11.186   5.569  1.00  0.00     0.036 A 
HETATM   36  C   UNL     1      41.290 -11.762   4.354  1.00  0.00     0.054 A 
HETATM   37 CL   UNL     1      42.080 -11.086   6.842  1.00  0.00    -0.084 Cl
ENDBRANCH   1  30
BRANCH   6  38
HETATM   38  N   UNL     1      41.585 -10.164   1.263  1.00  0.00    -0.384 N 
HETATM   39  H   UNL     1      42.482  -9.720   1.385  1.00  0.00     0.157 HD
HETATM   40  H   UNL     1      40.756  -9.584   1.275  1.00  0.00     0.157 HD
ENDBRANCH   6  38
TORSDOF 10
ENDMDL
MODEL 10
REMARK VINA RESULT:      -7.9      6.124      8.872
REMARK  10 active torsions:
REMARK  status: ('A' for Active; 'I' for Inactive)
REMARK    1  A    between atoms: C_3  and  N_4 
REMARK    2  A    between atoms: C_5  and  S_6 
REMARK    3  A    between atoms: S_6  and  C_7 
REMARK    4  A    between atoms: C_7  and  C_8 
REMARK       I    between atoms: C_8  and  N_9 
REMARK    5  A    between atoms: N_9  and  C_10 
REMARK    6  A    between atoms: C_10  and  C_11 
REMARK    7  A    between atoms: C_11  and  C_12 
REMARK    8  A    between atoms: C_14  and  O_15 
REMARK    9  A    between atoms: C_17  and  O_18 
REMARK   10  A    between atoms: C_26  and  N_27 
ROOT
HETATM    1  N   UNL     1      38.601 -12.196  -0.719  1.00  0.00    -0.275 N 
HETATM    2  C   UNL     1      38.819 -12.112   0.681  1.00  0.00     0.177 A 
HETATM    3  N   UNL     1      37.966 -11.663   1.569  1.00  0.00    -0.204 NA
HETATM    4  C   UNL     1      36.773 -11.306   1.041  1.00  0.00     0.162 A 
HETATM    5  C   UNL     1      36.358 -11.331  -0.261  1.00  0.00     0.081 A 
HETATM    6  C   UNL     1      37.303 -11.788  -1.236  1.00  0.00     0.124 A 
HETATM    7  N   UNL     1      35.703 -10.847   1.751  1.00  0.00    -0.260 N 
HETATM    8  H   UNL     1      35.639 -10.703   2.752  1.00  0.00     0.191 HD
HETATM    9  N   UNL     1      34.633 -10.568   0.974  1.00  0.00    -0.177 NA
HETATM   10  C   UNL     1      35.031 -10.875  -0.272  1.00  0.00     0.068 A 
HETATM   11  C   UNL     1      34.088 -10.702  -1.401  1.00  0.00     0.073 C 
ENDROOT
BRANCH   2  12
HETATM   12  S   UNL     1      40.392 -12.586   1.355  1.00  0.00    -0.082 SA
BRANCH  12  13
HETATM   13  C   UNL     1      39.845 -13.455   2.849  1.00  0.00     0.185 C 
BRANCH  13  14
HETATM   14  C   UNL     1      39.599 -14.938   2.597  1.00  0.00     0.227 C 
HETATM   15  N   UNL     1      40.375 -15.834   3.288  1.00  0.00    -0.360 N 
HETATM   16  H   UNL     1      40.188 -16.804   3.053  1.00  0.00     0.162 HD
HETATM   17  O   UNL     1      38.730 -15.371   1.838  1.00  0.00    -0.273 OA
BRANCH  15  18
HETATM   18  C   UNL     1      41.440 -15.535   4.235  1.00  0.00     0.127 C 
BRANCH  18  19
HETATM   19  C   UNL     1      42.840 -15.601   3.616  1.00  0.00     0.058 C 
BRANCH  19  20
HETATM   20  C   UNL     1      43.319 -17.008   3.330  1.00  0.00    -0.054 A 
HETATM   21  C   UNL     1      43.671 -17.880   4.372  1.00  0.00     0.046 A 
HETATM   22  C   UNL     1      44.131 -19.176   4.104  1.00  0.00     0.102 A 
HETATM   23  C   UNL     1      44.207 -19.626   2.772  1.00  0.00     0.101 A 
HETATM   24  C   UNL     1      43.833 -18.767   1.736  1.00  0.00     0.040 A 
HETATM   25  C   UNL     1      43.393 -17.469   2.012  1.00  0.00     0.010 A 
BRANCH  22  26
HETATM   26  O   UNL     1      44.508 -20.076   5.071  1.00  0.00    -0.353 OA
HETATM   27  C   UNL     1      43.914 -19.949   6.354  1.00  0.00     0.210 C 
ENDBRANCH  22  26
BRANCH  23  28
HETATM   28  O   UNL     1      44.662 -20.909   2.594  1.00  0.00    -0.353 OA
HETATM   29  C   UNL     1      43.896 -21.769   1.763  1.00  0.00     0.210 C 
ENDBRANCH  23  28
ENDBRANCH  19  20
ENDBRANCH  18  19
ENDBRANCH  15  18
ENDBRANCH  13  14
ENDBRANCH  12  13
ENDBRANCH   2  12
BRANCH   1  30
HETATM   30  C   UNL     1      39.579 -12.752  -1.599  1.00  0.00     0.051 A 
HETATM   31  C   UNL     1      40.565 -11.955  -2.221  1.00  0.00    -0.035 A 
HETATM   32  C   UNL     1      40.744 -10.492  -1.913  1.00  0.00     0.050 C 
HETATM   33  C   UNL     1      41.458 -12.555  -3.125  1.00  0.00     0.011 A 
HETATM   34  C   UNL     1      41.349 -13.910  -3.447  1.00  0.00     0.024 A 
HETATM   35  C   UNL     1      40.361 -14.683  -2.849  1.00  0.00     0.036 A 
HETATM   36  C   UNL     1      39.483 -14.116  -1.928  1.00  0.00     0.054 A 
HETATM   37 CL   UNL     1      40.202 -16.343  -3.267  1.00  0.00    -0.084 Cl
ENDBRANCH   1  30
BRANCH   6  38
HETATM   38  N   UNL     1      37.009 -11.807  -2.521  1.00  0.00    -0.384 N 
HETATM   39  H   UNL     1      36.147 -11.422  -2.876  1.00  0.00     0.157 HD
HETATM   40  H   UNL     1      37.664 -12.208  -3.180  1.00  0.00     0.157 HD
ENDBRANCH   6  38
TORSDOF 10
ENDMDL
