MODEL 1
REMARK VINA RESULT:      -9.2      0.000      0.000
REMARK  6 active torsions:
REMARK  status: ('A' for Active; 'I' for Inactive)
REMARK    1  A    between atoms: C_2  and  O_3 
REMARK    2  A    between atoms: C_2  and  C_10 
REMARK    3  A    between atoms: O_3  and  C_4 
REMARK       I    between atoms: C_10  and  N_11 
REMARK    4  A    between atoms: N_11  and  C_12 
REMARK    5  A    between atoms: N_13  and  C_14 
REMARK    6  A    between atoms: C_26  and  C_27 
ROOT
HETATM    1  C   UNL     1      42.300 -14.557   4.055  1.00  0.00     0.152 A 
HETATM    2  N   UNL     1      41.793 -13.537   3.265  1.00  0.00    -0.044 N 
HETATM    3  N   UNL     1      41.198 -12.552   4.001  1.00  0.00    -0.150 NA
HETATM    4  C   UNL     1      41.337 -12.962   5.270  1.00  0.00     0.099 A 
HETATM    5  C   UNL     1      42.019 -14.197   5.353  1.00  0.00     0.086 A 
ENDROOT
BRANCH   1   6
HETATM    6  N   UNL     1      42.928 -15.667   3.512  1.00  0.00    -0.309 N 
HETATM    7  C   UNL     1      42.339 -16.912   3.402  1.00  0.00     0.252 C 
HETATM    8  O   UNL     1      41.210 -17.212   3.783  1.00  0.00    -0.270 OA
HETATM    9  H   UNL     1      43.905 -15.572   3.217  1.00  0.00     0.170 HD
BRANCH   7  10
HETATM   10  C   UNL     1      43.227 -17.930   2.666  1.00  0.00     0.217 C 
HETATM   11  C   UNL     1      43.954 -17.204   1.538  1.00  0.00     0.050 C 
BRANCH  10  12
HETATM   12  O   UNL     1      44.237 -18.495   3.507  1.00  0.00    -0.337 OA
BRANCH  12  13
HETATM   13  C   UNL     1      44.365 -19.856   3.481  1.00  0.00     0.070 A 
HETATM   14  C   UNL     1      44.702 -20.442   4.703  1.00  0.00     0.037 A 
HETATM   15  C   UNL     1      44.854 -21.825   4.807  1.00  0.00     0.003 A 
HETATM   16  C   UNL     1      44.653 -22.631   3.689  1.00  0.00     0.000 A 
HETATM   17  C   UNL     1      44.294 -22.053   2.472  1.00  0.00     0.003 A 
HETATM   18  C   UNL     1      44.148 -20.666   2.366  1.00  0.00     0.037 A 
ENDBRANCH  12  13
ENDBRANCH  10  12
ENDBRANCH   7  10
ENDBRANCH   1   6
BRANCH   2  19
HETATM   19  C   UNL     1      41.818 -13.440   1.860  1.00  0.00     0.732 A 
HETATM   20  N   UNL     1      41.423 -14.395   1.080  1.00  0.00    -0.067 NA
HETATM   21  C   UNL     1      41.501 -14.147  -0.272  1.00  0.00     0.065 A 
HETATM   22  C   UNL     1      41.938 -12.991  -0.806  1.00  0.00     0.036 A 
HETATM   23  C   UNL     1      41.034 -15.284  -1.153  1.00  0.00     0.060 C 
HETATM   24  C   UNL     1      42.030 -12.715  -2.277  1.00  0.00     0.046 C 
HETATM   25  C   UNL     1      42.370 -11.914   0.122  1.00  0.00     0.268 A 
HETATM   26  C   UNL     1      41.867 -13.973  -3.133  1.00  0.00     0.005 C 
HETATM   27  C   UNL     1      40.753 -14.864  -2.597  1.00  0.00     0.006 C 
HETATM   28  O   UNL     1      42.761 -10.823  -0.274  1.00  0.00    -0.267 OA
HETATM   29  N   UNL     1      42.291 -12.229   1.442  1.00  0.00    -0.152 N 
HETATM   30  H   UNL     1      42.566 -11.538   2.132  1.00  0.00     0.188 HD
ENDBRANCH   2  19
BRANCH   4  31
HETATM   31  C   UNL     1      40.800 -12.163   6.422  1.00  0.00     0.035 A 
HETATM   32  S   UNL     1      41.634 -10.876   7.177  1.00  0.00    -0.100 SA
HETATM   33  C   UNL     1      40.359 -10.613   8.287  1.00  0.00     0.050 A 
HETATM   34  C   UNL     1      39.314 -11.487   8.088  1.00  0.00     0.008 A 
HETATM   35  C   UNL     1      39.568 -12.384   7.007  1.00  0.00     0.022 A 
ENDBRANCH   4  31
TORSDOF 6
ENDMDL
MODEL 2
REMARK VINA RESULT:      -9.2      3.698      8.493
REMARK  6 active torsions:
REMARK  status: ('A' for Active; 'I' for Inactive)
REMARK    1  A    between atoms: C_2  and  O_3 
REMARK    2  A    between atoms: C_2  and  C_10 
REMARK    3  A    between atoms: O_3  and  C_4 
REMARK       I    between atoms: C_10  and  N_11 
REMARK    4  A    between atoms: N_11  and  C_12 
REMARK    5  A    between atoms: N_13  and  C_14 
REMARK    6  A    between atoms: C_26  and  C_27 
ROOT
HETATM    1  C   UNL     1      44.036 -15.672   6.602  1.00  0.00     0.152 A 
HETATM    2  N   UNL     1      43.308 -15.452   5.443  1.00  0.00    -0.044 N 
HETATM    3  N   UNL     1      43.283 -16.546   4.625  1.00  0.00    -0.150 NA
HETATM    4  C   UNL     1      44.005 -17.463   5.284  1.00  0.00     0.099 A 
HETATM    5  C   UNL     1      44.487 -16.969   6.517  1.00  0.00     0.086 A 
ENDROOT
BRANCH   1   6
HETATM    6  N   UNL     1      44.207 -14.688   7.563  1.00  0.00    -0.309 N 
HETATM    7  C   UNL     1      45.106 -13.644   7.450  1.00  0.00     0.252 C 
HETATM    8  O   UNL     1      45.881 -13.458   6.516  1.00  0.00    -0.270 OA
HETATM    9  H   UNL     1      43.667 -14.764   8.431  1.00  0.00     0.170 HD
BRANCH   7  10
HETATM   10  C   UNL     1      45.008 -12.645   8.615  1.00  0.00     0.217 C 
HETATM   11  C   UNL     1      46.224 -11.724   8.561  1.00  0.00     0.050 C 
BRANCH  10  12
HETATM   12  O   UNL     1      43.855 -11.803   8.529  1.00  0.00    -0.337 OA
BRANCH  12  13
HETATM   13  C   UNL     1      43.485 -11.152   9.674  1.00  0.00     0.070 A 
HETATM   14  C   UNL     1      42.486 -10.189   9.510  1.00  0.00     0.037 A 
HETATM   15  C   UNL     1      42.018  -9.461  10.605  1.00  0.00     0.003 A 
HETATM   16  C   UNL     1      42.538  -9.706  11.874  1.00  0.00     0.000 A 
HETATM   17  C   UNL     1      43.519 -10.683  12.045  1.00  0.00     0.003 A 
HETATM   18  C   UNL     1      43.992 -11.408  10.948  1.00  0.00     0.037 A 
ENDBRANCH  12  13
ENDBRANCH  10  12
ENDBRANCH   7  10
ENDBRANCH   1   6
BRANCH   2  19
HETATM   19  C   UNL     1      42.649 -14.271   5.048  1.00  0.00     0.732 A 
HETATM   20  N   UNL     1      41.971 -13.533   5.869  1.00  0.00    -0.067 NA
HETATM   21  C   UNL     1      41.390 -12.405   5.334  1.00  0.00     0.065 A 
HETATM   22  C   UNL     1      41.503 -12.035   4.044  1.00  0.00     0.036 A 
HETATM   23  C   UNL     1      40.606 -11.569   6.319  1.00  0.00     0.060 C 
HETATM   24  C   UNL     1      40.871 -10.810   3.454  1.00  0.00     0.046 C 
HETATM   25  C   UNL     1      42.300 -12.900   3.138  1.00  0.00     0.268 A 
HETATM   26  C   UNL     1      39.830 -10.170   4.376  1.00  0.00     0.005 C 
HETATM   27  C   UNL     1      40.312 -10.152   5.821  1.00  0.00     0.006 C 
HETATM   28  O   UNL     1      42.473 -12.630   1.955  1.00  0.00    -0.267 OA
HETATM   29  N   UNL     1      42.826 -14.010   3.720  1.00  0.00    -0.152 N 
HETATM   30  H   UNL     1      43.386 -14.644   3.159  1.00  0.00     0.188 HD
ENDBRANCH   2  19
BRANCH   4  31
HETATM   31  C   UNL     1      44.246 -18.834   4.720  1.00  0.00     0.035 A 
HETATM   32  S   UNL     1      44.031 -19.254   3.077  1.00  0.00    -0.100 SA
HETATM   33  C   UNL     1      44.490 -20.877   3.364  1.00  0.00     0.050 A 
HETATM   34  C   UNL     1      44.805 -21.098   4.686  1.00  0.00     0.008 A 
HETATM   35  C   UNL     1      44.665 -19.915   5.471  1.00  0.00     0.022 A 
ENDBRANCH   4  31
TORSDOF 6
ENDMDL
MODEL 3
REMARK VINA RESULT:      -9.2      3.010      7.361
REMARK  6 active torsions:
REMARK  status: ('A' for Active; 'I' for Inactive)
REMARK    1  A    between atoms: C_2  and  O_3 
REMARK    2  A    between atoms: C_2  and  C_10 
REMARK    3  A    between atoms: O_3  and  C_4 
REMARK       I    between atoms: C_10  and  N_11 
REMARK    4  A    between atoms: N_11  and  C_12 
REMARK    5  A    between atoms: N_13  and  C_14 
REMARK    6  A    between atoms: C_26  and  C_27 
ROOT
HETATM    1  C   UNL     1      41.164 -16.355   2.408  1.00  0.00     0.152 A 
HETATM    2  N   UNL     1      41.781 -16.463   1.171  1.00  0.00    -0.044 N 
HETATM    3  N   UNL     1      42.641 -17.522   1.105  1.00  0.00    -0.150 NA
HETATM    4  C   UNL     1      42.559 -18.086   2.319  1.00  0.00     0.099 A 
HETATM    5  C   UNL     1      41.652 -17.401   3.159  1.00  0.00     0.086 A 
ENDROOT
BRANCH   1   6
HETATM    6  N   UNL     1      40.268 -15.340   2.699  1.00  0.00    -0.309 N 
HETATM    7  C   UNL     1      40.628 -14.126   3.255  1.00  0.00     0.252 C 
HETATM    8  O   UNL     1      41.763 -13.792   3.585  1.00  0.00    -0.270 OA
HETATM    9  H   UNL     1      39.271 -15.515   2.536  1.00  0.00     0.170 HD
BRANCH   7  10
HETATM   10  C   UNL     1      39.445 -13.150   3.372  1.00  0.00     0.217 C 
HETATM   11  C   UNL     1      39.481 -12.515   4.759  1.00  0.00     0.050 C 
BRANCH  10  12
HETATM   12  O   UNL     1      39.516 -12.076   2.429  1.00  0.00    -0.337 OA
BRANCH  12  13
HETATM   13  C   UNL     1      38.984 -12.312   1.191  1.00  0.00     0.070 A 
HETATM   14  C   UNL     1      39.014 -11.222   0.317  1.00  0.00     0.037 A 
HETATM   15  C   UNL     1      38.507 -11.339  -0.977  1.00  0.00     0.003 A 
HETATM   16  C   UNL     1      37.982 -12.554  -1.410  1.00  0.00     0.000 A 
HETATM   17  C   UNL     1      37.971 -13.651  -0.548  1.00  0.00     0.003 A 
HETATM   18  C   UNL     1      38.473 -13.532   0.751  1.00  0.00     0.037 A 
ENDBRANCH  12  13
ENDBRANCH  10  12
ENDBRANCH   7  10
ENDBRANCH   1   6
BRANCH   2  19
HETATM   19  C   UNL     1      41.626 -15.621   0.054  1.00  0.00     0.732 A 
HETATM   20  N   UNL     1      41.991 -14.378   0.050  1.00  0.00    -0.067 NA
HETATM   21  C   UNL     1      41.780 -13.686  -1.122  1.00  0.00     0.065 A 
HETATM   22  C   UNL     1      41.244 -14.224  -2.233  1.00  0.00     0.036 A 
HETATM   23  C   UNL     1      42.218 -12.239  -1.090  1.00  0.00     0.060 C 
HETATM   24  C   UNL     1      41.007 -13.475  -3.511  1.00  0.00     0.046 C 
HETATM   25  C   UNL     1      40.849 -15.655  -2.193  1.00  0.00     0.268 A 
HETATM   26  C   UNL     1      41.149 -11.960  -3.352  1.00  0.00     0.005 C 
HETATM   27  C   UNL     1      42.347 -11.608  -2.478  1.00  0.00     0.006 C 
HETATM   28  O   UNL     1      40.373 -16.232  -3.164  1.00  0.00    -0.267 OA
HETATM   29  N   UNL     1      41.061 -16.276  -1.003  1.00  0.00    -0.152 N 
HETATM   30  H   UNL     1      40.818 -17.256  -0.907  1.00  0.00     0.188 HD
ENDBRANCH   2  19
BRANCH   4  31
HETATM   31  C   UNL     1      43.370 -19.296   2.685  1.00  0.00     0.035 A 
HETATM   32  S   UNL     1      44.229 -19.475   4.152  1.00  0.00    -0.100 SA
HETATM   33  C   UNL     1      44.801 -21.024   3.704  1.00  0.00     0.050 A 
HETATM   34  C   UNL     1      44.346 -21.402   2.460  1.00  0.00     0.008 A 
HETATM   35  C   UNL     1      43.516 -20.402   1.871  1.00  0.00     0.022 A 
ENDBRANCH   4  31
TORSDOF 6
ENDMDL
MODEL 4
REMARK VINA RESULT:      -9.1      2.654      3.264
REMARK  6 active torsions:
REMARK  status: ('A' for Active; 'I' for Inactive)
REMARK    1  A    between atoms: C_2  and  O_3 
REMARK    2  A    between atoms: C_2  and  C_10 
REMARK    3  A    between atoms: O_3  and  C_4 
REMARK       I    between atoms: C_10  and  N_11 
REMARK    4  A    between atoms: N_11  and  C_12 
REMARK    5  A    between atoms: N_13  and  C_14 
REMARK    6  A    between atoms: C_26  and  C_27 
ROOT
HETATM    1  C   UNL     1      43.552 -14.677   5.916  1.00  0.00     0.152 A 
HETATM    2  N   UNL     1      42.815 -13.549   5.586  1.00  0.00    -0.044 N 
HETATM    3  N   UNL     1      42.997 -12.528   6.474  1.00  0.00    -0.150 NA
HETATM    4  C   UNL     1      43.862 -13.023   7.371  1.00  0.00     0.099 A 
HETATM    5  C   UNL     1      44.239 -14.350   7.063  1.00  0.00     0.086 A 
ENDROOT
BRANCH   1   6
HETATM    6  N   UNL     1      43.502 -15.837   5.160  1.00  0.00    -0.309 N 
HETATM    7  C   UNL     1      42.960 -17.028   5.608  1.00  0.00     0.252 C 
HETATM    8  O   UNL     1      42.480 -17.229   6.720  1.00  0.00    -0.270 OA
HETATM    9  H   UNL     1      43.933 -15.827   4.230  1.00  0.00     0.170 HD
BRANCH   7  10
HETATM   10  C   UNL     1      42.942 -18.120   4.524  1.00  0.00     0.217 C 
HETATM   11  C   UNL     1      42.331 -17.528   3.256  1.00  0.00     0.050 C 
BRANCH  10  12
HETATM   12  O   UNL     1      44.252 -18.574   4.172  1.00  0.00    -0.337 OA
BRANCH  12  13
HETATM   13  C   UNL     1      44.394 -19.914   3.941  1.00  0.00     0.070 A 
HETATM   14  C   UNL     1      44.687 -20.682   5.071  1.00  0.00     0.037 A 
HETATM   15  C   UNL     1      44.850 -22.063   4.966  1.00  0.00     0.003 A 
HETATM   16  C   UNL     1      44.702 -22.687   3.730  1.00  0.00     0.000 A 
HETATM   17  C   UNL     1      44.387 -21.928   2.603  1.00  0.00     0.003 A 
HETATM   18  C   UNL     1      44.230 -20.543   2.707  1.00  0.00     0.037 A 
ENDBRANCH  12  13
ENDBRANCH  10  12
ENDBRANCH   7  10
ENDBRANCH   1   6
BRANCH   2  19
HETATM   19  C   UNL     1      41.937 -13.380   4.499  1.00  0.00     0.732 A 
HETATM   20  N   UNL     1      41.226 -14.346   4.009  1.00  0.00    -0.067 NA
HETATM   21  C   UNL     1      40.409 -14.021   2.949  1.00  0.00     0.065 A 
HETATM   22  C   UNL     1      40.303 -12.786   2.424  1.00  0.00     0.036 A 
HETATM   23  C   UNL     1      39.595 -15.172   2.402  1.00  0.00     0.060 C 
HETATM   24  C   UNL     1      39.418 -12.426   1.268  1.00  0.00     0.046 C 
HETATM   25  C   UNL     1      41.125 -11.703   3.022  1.00  0.00     0.268 A 
HETATM   26  C   UNL     1      38.865 -13.650   0.535  1.00  0.00     0.005 C 
HETATM   27  C   UNL     1      38.427 -14.730   1.517  1.00  0.00     0.006 C 
HETATM   28  O   UNL     1      41.077 -10.546   2.623  1.00  0.00    -0.267 OA
HETATM   29  N   UNL     1      41.928 -12.091   4.048  1.00  0.00    -0.152 N 
HETATM   30  H   UNL     1      42.514 -11.401   4.505  1.00  0.00     0.188 HD
ENDBRANCH   2  19
BRANCH   4  31
HETATM   31  C   UNL     1      44.330 -12.217   8.548  1.00  0.00     0.035 A 
HETATM   32  S   UNL     1      43.327 -11.186   9.473  1.00  0.00    -0.100 SA
HETATM   33  C   UNL     1      44.623 -10.731  10.492  1.00  0.00     0.050 A 
HETATM   34  C   UNL     1      45.800 -11.352  10.139  1.00  0.00     0.008 A 
HETATM   35  C   UNL     1      45.630 -12.214   9.014  1.00  0.00     0.022 A 
ENDBRANCH   4  31
TORSDOF 6
ENDMDL
MODEL 5
REMARK VINA RESULT:      -9.0      3.112      7.516
REMARK  6 active torsions:
REMARK  status: ('A' for Active; 'I' for Inactive)
REMARK    1  A    between atoms: C_2  and  O_3 
REMARK    2  A    between atoms: C_2  and  C_10 
REMARK    3  A    between atoms: O_3  and  C_4 
REMARK       I    between atoms: C_10  and  N_11 
REMARK    4  A    between atoms: N_11  and  C_12 
REMARK    5  A    between atoms: N_13  and  C_14 
REMARK    6  A    between atoms: C_26  and  C_27 
ROOT
HETATM    1  C   UNL     1      43.037 -14.984   5.594  1.00  0.00     0.152 A 
HETATM    2  N   UNL     1      43.843 -15.869   6.295  1.00  0.00    -0.044 N 
HETATM    3  N   UNL     1      44.600 -15.246   7.245  1.00  0.00    -0.150 NA
HETATM    4  C   UNL     1      44.263 -13.953   7.138  1.00  0.00     0.099 A 
HETATM    5  C   UNL     1      43.293 -13.743   6.132  1.00  0.00     0.086 A 
ENDROOT
BRANCH   1   6
HETATM    6  N   UNL     1      42.201 -15.400   4.571  1.00  0.00    -0.309 N 
HETATM    7  C   UNL     1      42.447 -15.171   3.229  1.00  0.00     0.252 C 
HETATM    8  O   UNL     1      43.406 -14.560   2.766  1.00  0.00    -0.270 OA
HETATM    9  H   UNL     1      41.323 -15.866   4.824  1.00  0.00     0.170 HD
BRANCH   7  10
HETATM   10  C   UNL     1      41.407 -15.836   2.311  1.00  0.00     0.217 C 
HETATM   11  C   UNL     1      41.340 -17.321   2.656  1.00  0.00     0.050 C 
BRANCH  10  12
HETATM   12  O   UNL     1      40.088 -15.313   2.496  1.00  0.00    -0.337 OA
BRANCH  12  13
HETATM   13  C   UNL     1      39.482 -14.775   1.395  1.00  0.00     0.070 A 
HETATM   14  C   UNL     1      40.303 -14.647   0.271  1.00  0.00     0.037 A 
HETATM   15  C   UNL     1      39.798 -14.116  -0.917  1.00  0.00     0.003 A 
HETATM   16  C   UNL     1      38.463 -13.727  -0.991  1.00  0.00     0.000 A 
HETATM   17  C   UNL     1      37.635 -13.874   0.121  1.00  0.00     0.003 A 
HETATM   18  C   UNL     1      38.141 -14.399   1.314  1.00  0.00     0.037 A 
ENDBRANCH  12  13
ENDBRANCH  10  12
ENDBRANCH   7  10
ENDBRANCH   1   6
BRANCH   2  19
HETATM   19  C   UNL     1      43.957 -17.260   6.113  1.00  0.00     0.732 A 
HETATM   20  N   UNL     1      44.149 -17.808   4.955  1.00  0.00    -0.067 NA
HETATM   21  C   UNL     1      44.247 -19.181   4.940  1.00  0.00     0.065 A 
HETATM   22  C   UNL     1      44.171 -19.958   6.038  1.00  0.00     0.036 A 
HETATM   23  C   UNL     1      44.470 -19.786   3.573  1.00  0.00     0.060 C 
HETATM   24  C   UNL     1      44.273 -21.454   6.029  1.00  0.00     0.046 C 
HETATM   25  C   UNL     1      43.963 -19.292   7.349  1.00  0.00     0.268 A 
HETATM   26  C   UNL     1      44.169 -22.052   4.625  1.00  0.00     0.005 C 
HETATM   27  C   UNL     1      44.965 -21.233   3.616  1.00  0.00     0.006 C 
HETATM   28  O   UNL     1      43.903 -19.917   8.401  1.00  0.00    -0.267 OA
HETATM   29  N   UNL     1      43.851 -17.938   7.294  1.00  0.00    -0.152 N 
HETATM   30  H   UNL     1      43.711 -17.418   8.154  1.00  0.00     0.188 HD
ENDBRANCH   2  19
BRANCH   4  31
HETATM   31  C   UNL     1      44.885 -12.899   8.007  1.00  0.00     0.035 A 
HETATM   32  S   UNL     1      44.033 -11.978   9.169  1.00  0.00    -0.100 SA
HETATM   33  C   UNL     1      45.439 -11.110   9.609  1.00  0.00     0.050 A 
HETATM   34  C   UNL     1      46.541 -11.513   8.888  1.00  0.00     0.008 A 
HETATM   35  C   UNL     1      46.220 -12.550   7.961  1.00  0.00     0.022 A 
ENDBRANCH   4  31
TORSDOF 6
ENDMDL
MODEL 6
REMARK VINA RESULT:      -8.8      2.621      7.952
REMARK  6 active torsions:
REMARK  status: ('A' for Active; 'I' for Inactive)
REMARK    1  A    between atoms: C_2  and  O_3 
REMARK    2  A    between atoms: C_2  and  C_10 
REMARK    3  A    between atoms: O_3  and  C_4 
REMARK       I    between atoms: C_10  and  N_11 
REMARK    4  A    between atoms: N_11  and  C_12 
REMARK    5  A    between atoms: N_13  and  C_14 
REMARK    6  A    between atoms: C_26  and  C_27 
ROOT
HETATM    1  C   UNL     1      42.793 -16.589   1.938  1.00  0.00     0.152 A 
HETATM    2  N   UNL     1      42.841 -16.466   3.318  1.00  0.00    -0.044 N 
HETATM    3  N   UNL     1      43.266 -17.609   3.932  1.00  0.00    -0.150 NA
HETATM    4  C   UNL     1      43.488 -18.461   2.920  1.00  0.00     0.099 A 
HETATM    5  C   UNL     1      43.214 -17.871   1.665  1.00  0.00     0.086 A 
ENDROOT
BRANCH   1   6
HETATM    6  N   UNL     1      42.370 -15.555   1.119  1.00  0.00    -0.309 N 
HETATM    7  C   UNL     1      41.051 -15.335   0.768  1.00  0.00     0.252 C 
HETATM    8  O   UNL     1      40.091 -16.024   1.104  1.00  0.00    -0.270 OA
HETATM    9  H   UNL     1      43.083 -14.941   0.711  1.00  0.00     0.170 HD
BRANCH   7  10
HETATM   10  C   UNL     1      40.860 -14.055  -0.063  1.00  0.00     0.217 C 
HETATM   11  C   UNL     1      41.862 -13.012   0.424  1.00  0.00     0.050 C 
BRANCH  10  12
HETATM   12  O   UNL     1      41.121 -14.253  -1.455  1.00  0.00    -0.337 OA
BRANCH  12  13
HETATM   13  C   UNL     1      40.053 -14.604  -2.235  1.00  0.00     0.070 A 
HETATM   14  C   UNL     1      40.305 -15.618  -3.162  1.00  0.00     0.037 A 
HETATM   15  C   UNL     1      39.294 -16.068  -4.011  1.00  0.00     0.003 A 
HETATM   16  C   UNL     1      38.018 -15.517  -3.923  1.00  0.00     0.000 A 
HETATM   17  C   UNL     1      37.756 -14.521  -2.983  1.00  0.00     0.003 A 
HETATM   18  C   UNL     1      38.771 -14.065  -2.137  1.00  0.00     0.037 A 
ENDBRANCH  12  13
ENDBRANCH  10  12
ENDBRANCH   7  10
ENDBRANCH   1   6
BRANCH   2  19
HETATM   19  C   UNL     1      42.494 -15.345   4.096  1.00  0.00     0.732 A 
HETATM   20  N   UNL     1      41.342 -14.758   4.016  1.00  0.00    -0.067 NA
HETATM   21  C   UNL     1      41.151 -13.678   4.848  1.00  0.00     0.065 A 
HETATM   22  C   UNL     1      42.067 -13.225   5.724  1.00  0.00     0.036 A 
HETATM   23  C   UNL     1      39.796 -13.017   4.727  1.00  0.00     0.060 C 
HETATM   24  C   UNL     1      41.867 -12.046   6.630  1.00  0.00     0.046 C 
HETATM   25  C   UNL     1      43.371 -13.931   5.796  1.00  0.00     0.268 A 
HETATM   26  C   UNL     1      40.640 -11.211   6.262  1.00  0.00     0.005 C 
HETATM   27  C   UNL     1      39.455 -12.099   5.902  1.00  0.00     0.006 C 
HETATM   28  O   UNL     1      44.255 -13.602   6.578  1.00  0.00    -0.267 OA
HETATM   29  N   UNL     1      43.507 -14.974   4.933  1.00  0.00    -0.152 N 
HETATM   30  H   UNL     1      44.372 -15.504   4.932  1.00  0.00     0.188 HD
ENDBRANCH   2  19
BRANCH   4  31
HETATM   31  C   UNL     1      43.963 -19.865   3.157  1.00  0.00     0.035 A 
HETATM   32  S   UNL     1      44.671 -20.412   4.614  1.00  0.00    -0.100 SA
HETATM   33  C   UNL     1      44.879 -21.994   3.996  1.00  0.00     0.050 A 
HETATM   34  C   UNL     1      44.415 -22.108   2.704  1.00  0.00     0.008 A 
HETATM   35  C   UNL     1      43.883 -20.876   2.219  1.00  0.00     0.022 A 
ENDBRANCH   4  31
TORSDOF 6
ENDMDL
MODEL 7
REMARK VINA RESULT:      -8.7      2.488      5.357
REMARK  6 active torsions:
REMARK  status: ('A' for Active; 'I' for Inactive)
REMARK    1  A    between atoms: C_2  and  O_3 
REMARK    2  A    between atoms: C_2  and  C_10 
REMARK    3  A    between atoms: O_3  and  C_4 
REMARK       I    between atoms: C_10  and  N_11 
REMARK    4  A    between atoms: N_11  and  C_12 
REMARK    5  A    between atoms: N_13  and  C_14 
REMARK    6  A    between atoms: C_26  and  C_27 
ROOT
HETATM    1  C   UNL     1      40.740 -12.817   3.832  1.00  0.00     0.152 A 
HETATM    2  N   UNL     1      41.182 -13.138   5.106  1.00  0.00    -0.044 N 
HETATM    3  N   UNL     1      40.777 -12.233   6.045  1.00  0.00    -0.150 NA
HETATM    4  C   UNL     1      40.070 -11.333   5.347  1.00  0.00     0.099 A 
HETATM    5  C   UNL     1      40.014 -11.656   3.973  1.00  0.00     0.086 A 
ENDROOT
BRANCH   1   6
HETATM    6  N   UNL     1      41.053 -13.590   2.726  1.00  0.00    -0.309 N 
HETATM    7  C   UNL     1      40.179 -14.484   2.135  1.00  0.00     0.252 C 
HETATM    8  O   UNL     1      39.037 -14.733   2.513  1.00  0.00    -0.270 OA
HETATM    9  H   UNL     1      42.004 -13.530   2.349  1.00  0.00     0.170 HD
BRANCH   7  10
HETATM   10  C   UNL     1      40.754 -15.127   0.861  1.00  0.00     0.217 C 
HETATM   11  C   UNL     1      40.582 -14.143  -0.293  1.00  0.00     0.050 C 
BRANCH  10  12
HETATM   12  O   UNL     1      42.155 -15.398   0.961  1.00  0.00    -0.337 OA
BRANCH  12  13
HETATM   13  C   UNL     1      42.509 -16.680   1.281  1.00  0.00     0.070 A 
HETATM   14  C   UNL     1      43.870 -16.873   1.531  1.00  0.00     0.037 A 
HETATM   15  C   UNL     1      44.355 -18.135   1.874  1.00  0.00     0.003 A 
HETATM   16  C   UNL     1      43.475 -19.209   1.986  1.00  0.00     0.000 A 
HETATM   17  C   UNL     1      42.113 -19.017   1.759  1.00  0.00     0.003 A 
HETATM   18  C   UNL     1      41.628 -17.753   1.409  1.00  0.00     0.037 A 
ENDBRANCH  12  13
ENDBRANCH  10  12
ENDBRANCH   7  10
ENDBRANCH   1   6
BRANCH   2  19
HETATM   19  C   UNL     1      41.978 -14.234   5.492  1.00  0.00     0.732 A 
HETATM   20  N   UNL     1      41.668 -15.462   5.219  1.00  0.00    -0.067 NA
HETATM   21  C   UNL     1      42.551 -16.423   5.657  1.00  0.00     0.065 A 
HETATM   22  C   UNL     1      43.692 -16.157   6.321  1.00  0.00     0.036 A 
HETATM   23  C   UNL     1      42.158 -17.845   5.322  1.00  0.00     0.060 C 
HETATM   24  C   UNL     1      44.656 -17.199   6.805  1.00  0.00     0.046 C 
HETATM   25  C   UNL     1      44.019 -14.737   6.604  1.00  0.00     0.268 A 
HETATM   26  C   UNL     1      44.084 -18.617   6.746  1.00  0.00     0.005 C 
HETATM   27  C   UNL     1      43.308 -18.845   5.455  1.00  0.00     0.006 C 
HETATM   28  O   UNL     1      45.045 -14.401   7.183  1.00  0.00    -0.267 OA
HETATM   29  N   UNL     1      43.097 -13.838   6.167  1.00  0.00    -0.152 N 
HETATM   30  H   UNL     1      43.258 -12.849   6.323  1.00  0.00     0.188 HD
ENDBRANCH   2  19
BRANCH   4  31
HETATM   31  C   UNL     1      39.443 -10.138   6.006  1.00  0.00     0.035 A 
HETATM   32  S   UNL     1      38.631  -8.888   5.168  1.00  0.00    -0.100 SA
HETATM   33  C   UNL     1      38.301  -8.041   6.617  1.00  0.00     0.050 A 
HETATM   34  C   UNL     1      38.797  -8.696   7.722  1.00  0.00     0.008 A 
HETATM   35  C   UNL     1      39.457  -9.911   7.368  1.00  0.00     0.022 A 
ENDBRANCH   4  31
TORSDOF 6
ENDMDL
MODEL 8
REMARK VINA RESULT:      -8.7      3.002      7.881
REMARK  6 active torsions:
REMARK  status: ('A' for Active; 'I' for Inactive)
REMARK    1  A    between atoms: C_2  and  O_3 
REMARK    2  A    between atoms: C_2  and  C_10 
REMARK    3  A    between atoms: O_3  and  C_4 
REMARK       I    between atoms: C_10  and  N_11 
REMARK    4  A    between atoms: N_11  and  C_12 
REMARK    5  A    between atoms: N_13  and  C_14 
REMARK    6  A    between atoms: C_26  and  C_27 
ROOT
HETATM    1  C   UNL     1      43.090 -17.404   2.069  1.00  0.00     0.152 A 
HETATM    2  N   UNL     1      43.065 -17.147   3.432  1.00  0.00    -0.044 N 
HETATM    3  N   UNL     1      43.485 -18.214   4.173  1.00  0.00    -0.150 NA
HETATM    4  C   UNL     1      43.778 -19.152   3.260  1.00  0.00     0.099 A 
HETATM    5  C   UNL     1      43.555 -18.693   1.943  1.00  0.00     0.086 A 
ENDROOT
BRANCH   1   6
HETATM    6  N   UNL     1      42.687 -16.464   1.134  1.00  0.00    -0.309 N 
HETATM    7  C   UNL     1      41.428 -16.433   0.563  1.00  0.00     0.252 C 
HETATM    8  O   UNL     1      40.518 -17.229   0.779  1.00  0.00    -0.270 OA
HETATM    9  H   UNL     1      43.376 -15.778   0.811  1.00  0.00     0.170 HD
BRANCH   7  10
HETATM   10  C   UNL     1      41.223 -15.220  -0.361  1.00  0.00     0.217 C 
HETATM   11  C   UNL     1      41.098 -15.726  -1.796  1.00  0.00     0.050 C 
BRANCH  10  12
HETATM   12  O   UNL     1      40.020 -14.502  -0.075  1.00  0.00    -0.337 OA
BRANCH  12  13
HETATM   13  C   UNL     1      40.131 -13.433   0.771  1.00  0.00     0.070 A 
HETATM   14  C   UNL     1      41.440 -13.080   1.110  1.00  0.00     0.037 A 
HETATM   15  C   UNL     1      41.685 -12.003   1.961  1.00  0.00     0.003 A 
HETATM   16  C   UNL     1      40.619 -11.261   2.466  1.00  0.00     0.000 A 
HETATM   17  C   UNL     1      39.312 -11.595   2.112  1.00  0.00     0.003 A 
HETATM   18  C   UNL     1      39.066 -12.679   1.264  1.00  0.00     0.037 A 
ENDBRANCH  12  13
ENDBRANCH  10  12
ENDBRANCH   7  10
ENDBRANCH   1   6
BRANCH   2  19
HETATM   19  C   UNL     1      42.654 -15.966   4.080  1.00  0.00     0.732 A 
HETATM   20  N   UNL     1      41.416 -15.589   4.141  1.00  0.00    -0.067 NA
HETATM   21  C   UNL     1      41.171 -14.414   4.816  1.00  0.00     0.065 A 
HETATM   22  C   UNL     1      42.123 -13.670   5.410  1.00  0.00     0.036 A 
HETATM   23  C   UNL     1      39.717 -14.005   4.867  1.00  0.00     0.060 C 
HETATM   24  C   UNL     1      41.864 -12.388   6.144  1.00  0.00     0.046 C 
HETATM   25  C   UNL     1      43.528 -14.142   5.329  1.00  0.00     0.268 A 
HETATM   26  C   UNL     1      40.458 -11.834   5.903  1.00  0.00     0.005 C 
HETATM   27  C   UNL     1      39.416 -12.945   5.929  1.00  0.00     0.006 C 
HETATM   28  O   UNL     1      44.455 -13.540   5.858  1.00  0.00    -0.267 OA
HETATM   29  N   UNL     1      43.707 -15.294   4.630  1.00  0.00    -0.152 N 
HETATM   30  H   UNL     1      44.642 -15.676   4.538  1.00  0.00     0.188 HD
ENDBRANCH   2  19
BRANCH   4  31
HETATM   31  C   UNL     1      44.272 -20.514   3.656  1.00  0.00     0.035 A 
HETATM   32  S   UNL     1      44.351 -21.857   2.601  1.00  0.00    -0.100 SA
HETATM   33  C   UNL     1      44.970 -22.871   3.832  1.00  0.00     0.050 A 
HETATM   34  C   UNL     1      45.118 -22.200   5.026  1.00  0.00     0.008 A 
HETATM   35  C   UNL     1      44.715 -20.836   4.924  1.00  0.00     0.022 A 
ENDBRANCH   4  31
TORSDOF 6
ENDMDL
MODEL 9
REMARK VINA RESULT:      -8.6      2.881      7.288
REMARK  6 active torsions:
REMARK  status: ('A' for Active; 'I' for Inactive)
REMARK    1  A    between atoms: C_2  and  O_3 
REMARK    2  A    between atoms: C_2  and  C_10 
REMARK    3  A    between atoms: O_3  and  C_4 
REMARK       I    between atoms: C_10  and  N_11 
REMARK    4  A    between atoms: N_11  and  C_12 
REMARK    5  A    between atoms: N_13  and  C_14 
REMARK    6  A    between atoms: C_26  and  C_27 
ROOT
HETATM    1  C   UNL     1      42.935 -16.431   3.541  1.00  0.00     0.152 A 
HETATM    2  N   UNL     1      42.323 -16.711   2.329  1.00  0.00    -0.044 N 
HETATM    3  N   UNL     1      42.543 -17.994   1.916  1.00  0.00    -0.150 NA
HETATM    4  C   UNL     1      43.303 -18.524   2.885  1.00  0.00     0.099 A 
HETATM    5  C   UNL     1      43.566 -17.594   3.916  1.00  0.00     0.086 A 
ENDROOT
BRANCH   1   6
HETATM    6  N   UNL     1      42.856 -15.181   4.135  1.00  0.00    -0.309 N 
HETATM    7  C   UNL     1      41.801 -14.765   4.925  1.00  0.00     0.252 C 
HETATM    8  O   UNL     1      40.794 -15.418   5.186  1.00  0.00    -0.270 OA
HETATM    9  H   UNL     1      43.604 -14.507   3.940  1.00  0.00     0.170 HD
BRANCH   7  10
HETATM   10  C   UNL     1      42.028 -13.372   5.538  1.00  0.00     0.217 C 
HETATM   11  C   UNL     1      43.348 -13.395   6.304  1.00  0.00     0.050 C 
BRANCH  10  12
HETATM   12  O   UNL     1      42.146 -12.344   4.551  1.00  0.00    -0.337 OA
BRANCH  12  13
HETATM   13  C   UNL     1      40.987 -11.934   3.952  1.00  0.00     0.070 A 
HETATM   14  C   UNL     1      41.115 -11.553   2.614  1.00  0.00     0.037 A 
HETATM   15  C   UNL     1      40.002 -11.122   1.891  1.00  0.00     0.003 A 
HETATM   16  C   UNL     1      38.750 -11.086   2.501  1.00  0.00     0.000 A 
HETATM   17  C   UNL     1      38.614 -11.487   3.829  1.00  0.00     0.003 A 
HETATM   18  C   UNL     1      39.730 -11.913   4.556  1.00  0.00     0.037 A 
ENDBRANCH  12  13
ENDBRANCH  10  12
ENDBRANCH   7  10
ENDBRANCH   1   6
BRANCH   2  19
HETATM   19  C   UNL     1      41.559 -15.842   1.526  1.00  0.00     0.732 A 
HETATM   20  N   UNL     1      42.048 -15.211   0.506  1.00  0.00    -0.067 NA
HETATM   21  C   UNL     1      41.173 -14.402  -0.184  1.00  0.00     0.065 A 
HETATM   22  C   UNL     1      39.873 -14.251   0.129  1.00  0.00     0.036 A 
HETATM   23  C   UNL     1      41.778 -13.681  -1.368  1.00  0.00     0.060 C 
HETATM   24  C   UNL     1      38.916 -13.369  -0.616  1.00  0.00     0.046 C 
HETATM   25  C   UNL     1      39.347 -15.001   1.298  1.00  0.00     0.268 A 
HETATM   26  C   UNL     1      39.614 -12.415  -1.587  1.00  0.00     0.005 C 
HETATM   27  C   UNL     1      40.738 -13.118  -2.338  1.00  0.00     0.006 C 
HETATM   28  O   UNL     1      38.173 -14.941   1.643  1.00  0.00    -0.267 OA
HETATM   29  N   UNL     1      40.264 -15.763   1.951  1.00  0.00    -0.152 N 
HETATM   30  H   UNL     1      39.972 -16.306   2.757  1.00  0.00     0.188 HD
ENDBRANCH   2  19
BRANCH   4  31
HETATM   31  C   UNL     1      43.792 -19.942   2.820  1.00  0.00     0.035 A 
HETATM   32  S   UNL     1      44.681 -20.715   4.060  1.00  0.00    -0.100 SA
HETATM   33  C   UNL     1      44.792 -22.168   3.164  1.00  0.00     0.050 A 
HETATM   34  C   UNL     1      44.163 -22.071   1.943  1.00  0.00     0.008 A 
HETATM   35  C   UNL     1      43.583 -20.783   1.744  1.00  0.00     0.022 A 
ENDBRANCH   4  31
TORSDOF 6
ENDMDL
MODEL 10
REMARK VINA RESULT:      -8.6      2.661      8.319
REMARK  6 active torsions:
REMARK  status: ('A' for Active; 'I' for Inactive)
REMARK    1  A    between atoms: C_2  and  O_3 
REMARK    2  A    between atoms: C_2  and  C_10 
REMARK    3  A    between atoms: O_3  and  C_4 
REMARK       I    between atoms: C_10  and  N_11 
REMARK    4  A    between atoms: N_11  and  C_12 
REMARK    5  A    between atoms: N_13  and  C_14 
REMARK    6  A    between atoms: C_26  and  C_27 
ROOT
HETATM    1  C   UNL     1      42.801 -16.304   1.510  1.00  0.00     0.152 A 
HETATM    2  N   UNL     1      42.712 -16.237   2.892  1.00  0.00    -0.044 N 
HETATM    3  N   UNL     1      43.066 -17.409   3.497  1.00  0.00    -0.150 NA
HETATM    4  C   UNL     1      43.382 -18.221   2.478  1.00  0.00     0.099 A 
HETATM    5  C   UNL     1      43.239 -17.578   1.228  1.00  0.00     0.086 A 
ENDROOT
BRANCH   1   6
HETATM    6  N   UNL     1      42.470 -15.232   0.697  1.00  0.00    -0.309 N 
HETATM    7  C   UNL     1      41.580 -15.308  -0.358  1.00  0.00     0.252 C 
HETATM    8  O   UNL     1      40.989 -16.318  -0.732  1.00  0.00    -0.270 OA
HETATM    9  H   UNL     1      42.947 -14.340   0.857  1.00  0.00     0.170 HD
BRANCH   7  10
HETATM   10  C   UNL     1      41.322 -13.944  -1.021  1.00  0.00     0.217 C 
HETATM   11  C   UNL     1      40.361 -13.155  -0.136  1.00  0.00     0.050 C 
BRANCH  10  12
HETATM   12  O   UNL     1      42.508 -13.153  -1.142  1.00  0.00    -0.337 OA
BRANCH  12  13
HETATM   13  C   UNL     1      42.498 -12.178  -2.101  1.00  0.00     0.070 A 
HETATM   14  C   UNL     1      42.912 -10.917  -1.667  1.00  0.00     0.037 A 
HETATM   15  C   UNL     1      42.951  -9.840  -2.554  1.00  0.00     0.003 A 
HETATM   16  C   UNL     1      42.593 -10.027  -3.887  1.00  0.00     0.000 A 
HETATM   17  C   UNL     1      42.201 -11.289  -4.330  1.00  0.00     0.003 A 
HETATM   18  C   UNL     1      42.155 -12.367  -3.440  1.00  0.00     0.037 A 
ENDBRANCH  12  13
ENDBRANCH  10  12
ENDBRANCH   7  10
ENDBRANCH   1   6
BRANCH   2  19
HETATM   19  C   UNL     1      42.298 -15.144   3.678  1.00  0.00     0.732 A 
HETATM   20  N   UNL     1      41.195 -14.499   3.464  1.00  0.00    -0.067 NA
HETATM   21  C   UNL     1      40.924 -13.457   4.323  1.00  0.00     0.065 A 
HETATM   22  C   UNL     1      41.715 -13.098   5.351  1.00  0.00     0.036 A 
HETATM   23  C   UNL     1      39.630 -12.726   4.043  1.00  0.00     0.060 C 
HETATM   24  C   UNL     1      41.428 -11.963   6.288  1.00  0.00     0.046 C 
HETATM   25  C   UNL     1      42.964 -13.871   5.572  1.00  0.00     0.268 A 
HETATM   26  C   UNL     1      40.305 -11.049   5.794  1.00  0.00     0.005 C 
HETATM   27  C   UNL     1      39.153 -11.857   5.209  1.00  0.00     0.006 C 
HETATM   28  O   UNL     1      43.732 -13.628   6.495  1.00  0.00    -0.267 OA
HETATM   29  N   UNL     1      43.187 -14.870   4.677  1.00  0.00    -0.152 N 
HETATM   30  H   UNL     1      44.020 -15.441   4.771  1.00  0.00     0.188 HD
ENDBRANCH   2  19
BRANCH   4  31
HETATM   31  C   UNL     1      43.820 -19.639   2.703  1.00  0.00     0.035 A 
HETATM   32  S   UNL     1      44.605 -20.195   4.117  1.00  0.00    -0.100 SA
HETATM   33  C   UNL     1      44.713 -21.790   3.510  1.00  0.00     0.050 A 
HETATM   34  C   UNL     1      44.160 -21.902   2.253  1.00  0.00     0.008 A 
HETATM   35  C   UNL     1      43.642 -20.657   1.787  1.00  0.00     0.022 A 
ENDBRANCH   4  31
TORSDOF 6
ENDMDL
