MODEL 1
REMARK VINA RESULT:      -9.6      0.000      0.000
REMARK  7 active torsions:
REMARK  status: ('A' for Active; 'I' for Inactive)
REMARK    1  A    between atoms: C_4  and  O_5 
REMARK    2  A    between atoms: O_5  and  C_6 
REMARK    3  A    between atoms: C_6  and  C_7 
REMARK       I    between atoms: C_7  and  N_8 
REMARK    4  A    between atoms: N_8  and  N_9 
REMARK       I    between atoms: N_9  and  C_10 
REMARK    5  A    between atoms: C_10  and  C_11 
REMARK    6  A    between atoms: C_13  and  C_14 
REMARK    7  A    between atoms: C_21  and  C_22 
ROOT
HETATM    1  N   UNL     1      44.147 -15.007   6.543  1.00  0.00    -0.262 N 
HETATM    2  C   UNL     1      43.381 -14.707   5.428  1.00  0.00     0.291 C 
HETATM    3  O   UNL     1      42.985 -13.567   5.189  1.00  0.00    -0.264 OA
HETATM    4  H   UNL     1      44.217 -15.984   6.825  1.00  0.00     0.190 HD
ENDROOT
BRANCH   2   5
HETATM    5  C   UNL     1      43.124 -15.863   4.582  1.00  0.00     0.159 A 
HETATM    6  N   UNL     1      43.768 -17.084   4.765  1.00  0.00    -0.216 NA
HETATM    7  C   UNL     1      43.325 -17.833   3.772  1.00  0.00     0.180 A 
HETATM    8  O   UNL     1      42.401 -17.213   2.978  1.00  0.00    -0.293 OA
HETATM    9  C   UNL     1      42.270 -15.956   3.501  1.00  0.00     0.094 A 
BRANCH   7  10
HETATM   10  C   UNL     1      43.705 -19.193   3.397  1.00  0.00     0.017 A 
HETATM   11  C   UNL     1      43.293 -19.715   2.162  1.00  0.00     0.016 A 
HETATM   12  C   UNL     1      43.621 -21.023   1.791  1.00  0.00     0.001 A 
HETATM   13  C   UNL     1      44.366 -21.826   2.652  1.00  0.00     0.000 A 
HETATM   14  C   UNL     1      44.785 -21.322   3.882  1.00  0.00     0.001 A 
HETATM   15  C   UNL     1      44.458 -20.015   4.251  1.00  0.00     0.016 A 
ENDBRANCH   7  10
BRANCH   9  16
HETATM   16  C   UNL     1      41.328 -14.900   2.954  1.00  0.00     0.046 A 
HETATM   17  C   UNL     1      40.058 -15.365   2.273  1.00  0.00     0.012 A 
HETATM   18  C   UNL     1      39.979 -14.747   3.626  1.00  0.00     0.012 A 
ENDBRANCH   9  16
ENDBRANCH   2   5
BRANCH   1  19
HETATM   19  N   UNL     1      44.259 -14.026   7.547  1.00  0.00    -0.265 N 
HETATM   20  C   UNL     1      45.424 -13.264   7.564  1.00  0.00     0.260 C 
HETATM   21  O   UNL     1      46.220 -13.246   6.630  1.00  0.00    -0.269 OA
HETATM   22  H   UNL     1      43.831 -14.285   8.433  1.00  0.00     0.190 HD
BRANCH  20  23
HETATM   23  C   UNL     1      45.586 -12.462   8.857  1.00  0.00     0.280 C 
BRANCH  23  24
HETATM   24  O   UNL     1      44.509 -12.727   9.743  1.00  0.00    -0.342 OA
BRANCH  24  25
HETATM   25  C   UNL     1      43.870 -11.651  10.293  1.00  0.00     0.069 A 
HETATM   26  C   UNL     1      44.007 -11.189  11.604  1.00  0.00     0.043 A 
HETATM   27  C   UNL     1      43.272 -10.077  12.048  1.00  0.00    -0.059 A 
HETATM   28  C   UNL     1      43.411  -9.568  13.453  1.00  0.00     0.048 C 
HETATM   29  C   UNL     1      42.414  -9.421  11.157  1.00  0.00     0.007 A 
HETATM   30  C   UNL     1      42.282  -9.874   9.846  1.00  0.00     0.003 A 
HETATM   31  C   UNL     1      43.008 -10.985   9.419  1.00  0.00     0.037 A 
ENDBRANCH  24  25
ENDBRANCH  23  24
ENDBRANCH  20  23
ENDBRANCH   1  19
TORSDOF 7
ENDMDL
MODEL 2
REMARK VINA RESULT:      -9.0      4.065      8.820
REMARK  7 active torsions:
REMARK  status: ('A' for Active; 'I' for Inactive)
REMARK    1  A    between atoms: C_4  and  O_5 
REMARK    2  A    between atoms: O_5  and  C_6 
REMARK    3  A    between atoms: C_6  and  C_7 
REMARK       I    between atoms: C_7  and  N_8 
REMARK    4  A    between atoms: N_8  and  N_9 
REMARK       I    between atoms: N_9  and  C_10 
REMARK    5  A    between atoms: C_10  and  C_11 
REMARK    6  A    between atoms: C_13  and  C_14 
REMARK    7  A    between atoms: C_21  and  C_22 
ROOT
HETATM    1  N   UNL     1      41.700 -14.655   2.279  1.00  0.00    -0.262 N 
HETATM    2  C   UNL     1      42.920 -14.674   2.935  1.00  0.00     0.291 C 
HETATM    3  O   UNL     1      43.622 -13.669   3.050  1.00  0.00    -0.264 OA
HETATM    4  H   UNL     1      41.301 -15.546   1.988  1.00  0.00     0.190 HD
ENDROOT
BRANCH   2   5
HETATM    5  C   UNL     1      43.259 -15.982   3.477  1.00  0.00     0.159 A 
HETATM    6  N   UNL     1      43.551 -17.076   2.667  1.00  0.00    -0.216 NA
HETATM    7  C   UNL     1      43.728 -18.069   3.519  1.00  0.00     0.180 A 
HETATM    8  O   UNL     1      43.622 -17.701   4.832  1.00  0.00    -0.293 OA
HETATM    9  C   UNL     1      43.327 -16.365   4.802  1.00  0.00     0.094 A 
BRANCH   7  10
HETATM   10  C   UNL     1      43.984 -19.483   3.254  1.00  0.00     0.017 A 
HETATM   11  C   UNL     1      43.580 -20.047   2.034  1.00  0.00     0.016 A 
HETATM   12  C   UNL     1      43.790 -21.403   1.767  1.00  0.00     0.001 A 
HETATM   13  C   UNL     1      44.406 -22.214   2.718  1.00  0.00     0.000 A 
HETATM   14  C   UNL     1      44.815 -21.669   3.934  1.00  0.00     0.001 A 
HETATM   15  C   UNL     1      44.607 -20.313   4.199  1.00  0.00     0.016 A 
ENDBRANCH   7  10
BRANCH   9  16
HETATM   16  C   UNL     1      43.133 -15.509   6.039  1.00  0.00     0.046 A 
HETATM   17  C   UNL     1      43.727 -15.999   7.342  1.00  0.00     0.012 A 
HETATM   18  C   UNL     1      44.361 -14.851   6.636  1.00  0.00     0.012 A 
ENDBRANCH   9  16
ENDBRANCH   2   5
BRANCH   1  19
HETATM   19  N   UNL     1      41.381 -13.515   1.517  1.00  0.00    -0.265 N 
HETATM   20  C   UNL     1      40.094 -13.440   0.993  1.00  0.00     0.260 C 
HETATM   21  O   UNL     1      39.184 -14.181   1.356  1.00  0.00    -0.269 OA
HETATM   22  H   UNL     1      42.156 -13.151   0.966  1.00  0.00     0.190 HD
BRANCH  20  23
HETATM   23  C   UNL     1      39.948 -12.342  -0.063  1.00  0.00     0.280 C 
BRANCH  23  24
HETATM   24  O   UNL     1      40.695 -12.670  -1.224  1.00  0.00    -0.342 OA
BRANCH  24  25
HETATM   25  C   UNL     1      40.202 -13.659  -2.029  1.00  0.00     0.069 A 
HETATM   26  C   UNL     1      38.911 -13.729  -2.557  1.00  0.00     0.043 A 
HETATM   27  C   UNL     1      38.527 -14.818  -3.359  1.00  0.00    -0.059 A 
HETATM   28  C   UNL     1      37.144 -14.905  -3.934  1.00  0.00     0.048 C 
HETATM   29  C   UNL     1      39.458 -15.824  -3.641  1.00  0.00     0.007 A 
HETATM   30  C   UNL     1      40.750 -15.752  -3.124  1.00  0.00     0.003 A 
HETATM   31  C   UNL     1      41.117 -14.674  -2.320  1.00  0.00     0.037 A 
ENDBRANCH  24  25
ENDBRANCH  23  24
ENDBRANCH  20  23
ENDBRANCH   1  19
TORSDOF 7
ENDMDL
MODEL 3
REMARK VINA RESULT:      -9.0      1.494      2.259
REMARK  7 active torsions:
REMARK  status: ('A' for Active; 'I' for Inactive)
REMARK    1  A    between atoms: C_4  and  O_5 
REMARK    2  A    between atoms: O_5  and  C_6 
REMARK    3  A    between atoms: C_6  and  C_7 
REMARK       I    between atoms: C_7  and  N_8 
REMARK    4  A    between atoms: N_8  and  N_9 
REMARK       I    between atoms: N_9  and  C_10 
REMARK    5  A    between atoms: C_10  and  C_11 
REMARK    6  A    between atoms: C_13  and  C_14 
REMARK    7  A    between atoms: C_21  and  C_22 
ROOT
HETATM    1  N   UNL     1      42.492 -14.318   5.992  1.00  0.00    -0.262 N 
HETATM    2  C   UNL     1      43.298 -14.475   4.877  1.00  0.00     0.291 C 
HETATM    3  O   UNL     1      44.154 -13.649   4.561  1.00  0.00    -0.264 OA
HETATM    4  H   UNL     1      41.645 -14.880   6.052  1.00  0.00     0.190 HD
ENDROOT
BRANCH   2   5
HETATM    5  C   UNL     1      43.037 -15.710   4.151  1.00  0.00     0.159 A 
HETATM    6  N   UNL     1      43.722 -16.893   4.414  1.00  0.00    -0.216 NA
HETATM    7  C   UNL     1      43.258 -17.740   3.514  1.00  0.00     0.180 A 
HETATM    8  O   UNL     1      42.284 -17.218   2.709  1.00  0.00    -0.293 OA
HETATM    9  C   UNL     1      42.141 -15.921   3.122  1.00  0.00     0.094 A 
BRANCH   7  10
HETATM   10  C   UNL     1      43.660 -19.120   3.246  1.00  0.00     0.017 A 
HETATM   11  C   UNL     1      43.268 -19.739   2.050  1.00  0.00     0.016 A 
HETATM   12  C   UNL     1      43.618 -21.066   1.782  1.00  0.00     0.001 A 
HETATM   13  C   UNL     1      44.362 -21.791   2.709  1.00  0.00     0.000 A 
HETATM   14  C   UNL     1      44.761 -21.191   3.902  1.00  0.00     0.001 A 
HETATM   15  C   UNL     1      44.413 -19.864   4.168  1.00  0.00     0.016 A 
ENDBRANCH   7  10
BRANCH   9  16
HETATM   16  C   UNL     1      41.147 -14.943   2.525  1.00  0.00     0.046 A 
HETATM   17  C   UNL     1      39.885 -15.503   1.903  1.00  0.00     0.012 A 
HETATM   18  C   UNL     1      39.805 -14.798   3.213  1.00  0.00     0.012 A 
ENDBRANCH   9  16
ENDBRANCH   2   5
BRANCH   1  19
HETATM   19  N   UNL     1      42.491 -13.062   6.630  1.00  0.00    -0.265 N 
HETATM   20  C   UNL     1      41.359 -12.269   6.470  1.00  0.00     0.260 C 
HETATM   21  O   UNL     1      40.303 -12.701   6.014  1.00  0.00    -0.269 OA
HETATM   22  H   UNL     1      43.403 -12.612   6.668  1.00  0.00     0.190 HD
BRANCH  20  23
HETATM   23  C   UNL     1      41.579 -10.825   6.926  1.00  0.00     0.280 C 
BRANCH  23  24
HETATM   24  O   UNL     1      41.070 -10.637   8.238  1.00  0.00    -0.342 OA
BRANCH  24  25
HETATM   25  C   UNL     1      41.977 -10.419   9.237  1.00  0.00     0.069 A 
HETATM   26  C   UNL     1      43.269 -10.946   9.312  1.00  0.00     0.043 A 
HETATM   27  C   UNL     1      44.094 -10.655  10.411  1.00  0.00    -0.059 A 
HETATM   28  C   UNL     1      45.484 -11.212  10.503  1.00  0.00     0.048 C 
HETATM   29  C   UNL     1      43.618  -9.814  11.423  1.00  0.00     0.007 A 
HETATM   30  C   UNL     1      42.333  -9.279  11.347  1.00  0.00     0.003 A 
HETATM   31  C   UNL     1      41.518  -9.583  10.258  1.00  0.00     0.037 A 
ENDBRANCH  24  25
ENDBRANCH  23  24
ENDBRANCH  20  23
ENDBRANCH   1  19
TORSDOF 7
ENDMDL
MODEL 4
REMARK VINA RESULT:      -9.0      4.588      8.282
REMARK  7 active torsions:
REMARK  status: ('A' for Active; 'I' for Inactive)
REMARK    1  A    between atoms: C_4  and  O_5 
REMARK    2  A    between atoms: O_5  and  C_6 
REMARK    3  A    between atoms: C_6  and  C_7 
REMARK       I    between atoms: C_7  and  N_8 
REMARK    4  A    between atoms: N_8  and  N_9 
REMARK       I    between atoms: N_9  and  C_10 
REMARK    5  A    between atoms: C_10  and  C_11 
REMARK    6  A    between atoms: C_13  and  C_14 
REMARK    7  A    between atoms: C_21  and  C_22 
ROOT
HETATM    1  N   UNL     1      41.953 -14.391   2.804  1.00  0.00    -0.262 N 
HETATM    2  C   UNL     1      43.216 -14.618   3.326  1.00  0.00     0.291 C 
HETATM    3  O   UNL     1      44.061 -13.727   3.417  1.00  0.00    -0.264 OA
HETATM    4  H   UNL     1      41.405 -15.199   2.512  1.00  0.00     0.190 HD
ENDROOT
BRANCH   2   5
HETATM    5  C   UNL     1      43.416 -15.991   3.764  1.00  0.00     0.159 A 
HETATM    6  N   UNL     1      43.741 -17.019   2.882  1.00  0.00    -0.216 NA
HETATM    7  C   UNL     1      43.761 -18.099   3.641  1.00  0.00     0.180 A 
HETATM    8  O   UNL     1      43.522 -17.853   4.965  1.00  0.00    -0.293 OA
HETATM    9  C   UNL     1      43.307 -16.504   5.041  1.00  0.00     0.094 A 
BRANCH   7  10
HETATM   10  C   UNL     1      43.969 -19.495   3.261  1.00  0.00     0.017 A 
HETATM   11  C   UNL     1      43.438 -19.973   2.054  1.00  0.00     0.016 A 
HETATM   12  C   UNL     1      43.601 -21.311   1.680  1.00  0.00     0.001 A 
HETATM   13  C   UNL     1      44.295 -22.187   2.510  1.00  0.00     0.000 A 
HETATM   14  C   UNL     1      44.830 -21.728   3.712  1.00  0.00     0.001 A 
HETATM   15  C   UNL     1      44.669 -20.390   4.084  1.00  0.00     0.016 A 
ENDBRANCH   7  10
BRANCH   9  16
HETATM   16  C   UNL     1      43.017 -15.760   6.331  1.00  0.00     0.046 A 
HETATM   17  C   UNL     1      43.506 -16.369   7.628  1.00  0.00     0.012 A 
HETATM   18  C   UNL     1      44.194 -15.168   7.079  1.00  0.00     0.012 A 
ENDBRANCH   9  16
ENDBRANCH   2   5
BRANCH   1  19
HETATM   19  N   UNL     1      41.727 -13.171   2.137  1.00  0.00    -0.265 N 
HETATM   20  C   UNL     1      41.844 -13.174   0.750  1.00  0.00     0.260 C 
HETATM   21  O   UNL     1      41.894 -14.208   0.089  1.00  0.00    -0.269 OA
HETATM   22  H   UNL     1      42.036 -12.350   2.652  1.00  0.00     0.190 HD
BRANCH  20  23
HETATM   23  C   UNL     1      41.893 -11.764   0.158  1.00  0.00     0.280 C 
BRANCH  23  24
HETATM   24  O   UNL     1      43.013 -11.629  -0.705  1.00  0.00    -0.342 OA
BRANCH  24  25
HETATM   25  C   UNL     1      42.793 -11.076  -1.936  1.00  0.00     0.069 A 
HETATM   26  C   UNL     1      42.742  -9.711  -2.233  1.00  0.00     0.043 A 
HETATM   27  C   UNL     1      42.488  -9.277  -3.545  1.00  0.00    -0.059 A 
HETATM   28  C   UNL     1      42.432  -7.815  -3.877  1.00  0.00     0.048 C 
HETATM   29  C   UNL     1      42.306 -10.224  -4.559  1.00  0.00     0.007 A 
HETATM   30  C   UNL     1      42.366 -11.586  -4.268  1.00  0.00     0.003 A 
HETATM   31  C   UNL     1      42.607 -12.006  -2.961  1.00  0.00     0.037 A 
ENDBRANCH  24  25
ENDBRANCH  23  24
ENDBRANCH  20  23
ENDBRANCH   1  19
TORSDOF 7
ENDMDL
MODEL 5
REMARK VINA RESULT:      -8.9      1.977      2.470
REMARK  7 active torsions:
REMARK  status: ('A' for Active; 'I' for Inactive)
REMARK    1  A    between atoms: C_4  and  O_5 
REMARK    2  A    between atoms: O_5  and  C_6 
REMARK    3  A    between atoms: C_6  and  C_7 
REMARK       I    between atoms: C_7  and  N_8 
REMARK    4  A    between atoms: N_8  and  N_9 
REMARK       I    between atoms: N_9  and  C_10 
REMARK    5  A    between atoms: C_10  and  C_11 
REMARK    6  A    between atoms: C_13  and  C_14 
REMARK    7  A    between atoms: C_21  and  C_22 
ROOT
HETATM    1  N   UNL     1      41.982 -13.529   5.645  1.00  0.00    -0.262 N 
HETATM    2  C   UNL     1      40.971 -14.436   5.375  1.00  0.00     0.291 C 
HETATM    3  O   UNL     1      39.857 -14.353   5.893  1.00  0.00    -0.264 OA
HETATM    4  H   UNL     1      42.936 -13.793   5.404  1.00  0.00     0.190 HD
ENDROOT
BRANCH   2   5
HETATM    5  C   UNL     1      41.359 -15.459   4.416  1.00  0.00     0.159 A 
HETATM    6  N   UNL     1      42.089 -16.588   4.779  1.00  0.00    -0.216 NA
HETATM    7  C   UNL     1      42.298 -17.216   3.638  1.00  0.00     0.180 A 
HETATM    8  O   UNL     1      41.721 -16.612   2.556  1.00  0.00    -0.293 OA
HETATM    9  C   UNL     1      41.117 -15.491   3.057  1.00  0.00     0.094 A 
BRANCH   7  10
HETATM   10  C   UNL     1      43.075 -18.427   3.375  1.00  0.00     0.017 A 
HETATM   11  C   UNL     1      42.908 -19.111   2.161  1.00  0.00     0.016 A 
HETATM   12  C   UNL     1      43.619 -20.285   1.897  1.00  0.00     0.001 A 
HETATM   13  C   UNL     1      44.507 -20.791   2.844  1.00  0.00     0.000 A 
HETATM   14  C   UNL     1      44.686 -20.122   4.054  1.00  0.00     0.001 A 
HETATM   15  C   UNL     1      43.976 -18.948   4.316  1.00  0.00     0.016 A 
ENDBRANCH   7  10
BRANCH   9  16
HETATM   16  C   UNL     1      40.324 -14.505   2.220  1.00  0.00     0.046 A 
HETATM   17  C   UNL     1      40.071 -14.849   0.767  1.00  0.00     0.012 A 
HETATM   18  C   UNL     1      38.951 -14.933   1.745  1.00  0.00     0.012 A 
ENDBRANCH   9  16
ENDBRANCH   2   5
BRANCH   1  19
HETATM   19  N   UNL     1      41.801 -12.643   6.725  1.00  0.00    -0.265 N 
HETATM   20  C   UNL     1      41.564 -11.307   6.418  1.00  0.00     0.260 C 
HETATM   21  O   UNL     1      41.275 -10.924   5.287  1.00  0.00    -0.269 OA
HETATM   22  H   UNL     1      42.361 -12.865   7.545  1.00  0.00     0.190 HD
BRANCH  20  23
HETATM   23  C   UNL     1      41.695 -10.388   7.635  1.00  0.00     0.280 C 
BRANCH  23  24
HETATM   24  O   UNL     1      42.929 -10.620   8.299  1.00  0.00    -0.342 OA
BRANCH  24  25
HETATM   25  C   UNL     1      42.900 -10.716   9.662  1.00  0.00     0.069 A 
HETATM   26  C   UNL     1      41.776 -10.979  10.449  1.00  0.00     0.043 A 
HETATM   27  C   UNL     1      41.883 -11.031  11.849  1.00  0.00    -0.059 A 
HETATM   28  C   UNL     1      40.684 -11.314  12.706  1.00  0.00     0.048 C 
HETATM   29  C   UNL     1      43.132 -10.838  12.450  1.00  0.00     0.007 A 
HETATM   30  C   UNL     1      44.257 -10.585  11.667  1.00  0.00     0.003 A 
HETATM   31  C   UNL     1      44.138 -10.524  10.279  1.00  0.00     0.037 A 
ENDBRANCH  24  25
ENDBRANCH  23  24
ENDBRANCH  20  23
ENDBRANCH   1  19
TORSDOF 7
ENDMDL
MODEL 6
REMARK VINA RESULT:      -8.8      4.834      8.678
REMARK  7 active torsions:
REMARK  status: ('A' for Active; 'I' for Inactive)
REMARK    1  A    between atoms: C_4  and  O_5 
REMARK    2  A    between atoms: O_5  and  C_6 
REMARK    3  A    between atoms: C_6  and  C_7 
REMARK       I    between atoms: C_7  and  N_8 
REMARK    4  A    between atoms: N_8  and  N_9 
REMARK       I    between atoms: N_9  and  C_10 
REMARK    5  A    between atoms: C_10  and  C_11 
REMARK    6  A    between atoms: C_13  and  C_14 
REMARK    7  A    between atoms: C_21  and  C_22 
ROOT
HETATM    1  N   UNL     1      40.545 -15.640   0.397  1.00  0.00    -0.262 N 
HETATM    2  C   UNL     1      41.504 -15.253   1.319  1.00  0.00     0.291 C 
HETATM    3  O   UNL     1      41.905 -14.092   1.404  1.00  0.00    -0.264 OA
HETATM    4  H   UNL     1      40.451 -16.635   0.196  1.00  0.00     0.190 HD
ENDROOT
BRANCH   2   5
HETATM    5  C   UNL     1      41.955 -16.345   2.169  1.00  0.00     0.159 A 
HETATM    6  N   UNL     1      42.711 -17.409   1.684  1.00  0.00    -0.216 NA
HETATM    7  C   UNL     1      42.850 -18.207   2.727  1.00  0.00     0.180 A 
HETATM    8  O   UNL     1      42.284 -17.725   3.875  1.00  0.00    -0.293 OA
HETATM    9  C   UNL     1      41.717 -16.532   3.516  1.00  0.00     0.094 A 
BRANCH   7  10
HETATM   10  C   UNL     1      43.484 -19.521   2.811  1.00  0.00     0.017 A 
HETATM   11  C   UNL     1      43.298 -20.451   1.777  1.00  0.00     0.016 A 
HETATM   12  C   UNL     1      43.873 -21.723   1.846  1.00  0.00     0.001 A 
HETATM   13  C   UNL     1      44.641 -22.082   2.951  1.00  0.00     0.000 A 
HETATM   14  C   UNL     1      44.838 -21.170   3.986  1.00  0.00     0.001 A 
HETATM   15  C   UNL     1      44.264 -19.897   3.915  1.00  0.00     0.016 A 
ENDBRANCH   7  10
BRANCH   9  16
HETATM   16  C   UNL     1      40.982 -15.617   4.477  1.00  0.00     0.046 A 
HETATM   17  C   UNL     1      41.041 -15.942   5.954  1.00  0.00     0.012 A 
HETATM   18  C   UNL     1      41.816 -14.784   5.429  1.00  0.00     0.012 A 
ENDBRANCH   9  16
ENDBRANCH   2   5
BRANCH   1  19
HETATM   19  N   UNL     1      40.211 -14.731  -0.625  1.00  0.00    -0.265 N 
HETATM   20  C   UNL     1      40.667 -15.022  -1.908  1.00  0.00     0.260 C 
HETATM   21  O   UNL     1      41.123 -16.119  -2.219  1.00  0.00    -0.269 OA
HETATM   22  H   UNL     1      40.180 -13.759  -0.325  1.00  0.00     0.190 HD
BRANCH  20  23
HETATM   23  C   UNL     1      40.529 -13.837  -2.867  1.00  0.00     0.280 C 
BRANCH  23  24
HETATM   24  O   UNL     1      41.794 -13.486  -3.405  1.00  0.00    -0.342 OA
BRANCH  24  25
HETATM   25  C   UNL     1      42.192 -12.184  -3.276  1.00  0.00     0.069 A 
HETATM   26  C   UNL     1      42.726 -11.593  -2.128  1.00  0.00     0.043 A 
HETATM   27  C   UNL     1      43.077 -10.232  -2.126  1.00  0.00    -0.059 A 
HETATM   28  C   UNL     1      43.654  -9.585  -0.901  1.00  0.00     0.048 C 
HETATM   29  C   UNL     1      42.907  -9.477  -3.292  1.00  0.00     0.007 A 
HETATM   30  C   UNL     1      42.384 -10.067  -4.442  1.00  0.00     0.003 A 
HETATM   31  C   UNL     1      42.028 -11.415  -4.430  1.00  0.00     0.037 A 
ENDBRANCH  24  25
ENDBRANCH  23  24
ENDBRANCH  20  23
ENDBRANCH   1  19
TORSDOF 7
ENDMDL
MODEL 7
REMARK VINA RESULT:      -8.3      4.950      7.344
REMARK  7 active torsions:
REMARK  status: ('A' for Active; 'I' for Inactive)
REMARK    1  A    between atoms: C_4  and  O_5 
REMARK    2  A    between atoms: O_5  and  C_6 
REMARK    3  A    between atoms: C_6  and  C_7 
REMARK       I    between atoms: C_7  and  N_8 
REMARK    4  A    between atoms: N_8  and  N_9 
REMARK       I    between atoms: N_9  and  C_10 
REMARK    5  A    between atoms: C_10  and  C_11 
REMARK    6  A    between atoms: C_13  and  C_14 
REMARK    7  A    between atoms: C_21  and  C_22 
ROOT
HETATM    1  N   UNL     1      40.950 -16.014  -0.334  1.00  0.00    -0.262 N 
HETATM    2  C   UNL     1      40.734 -15.904   1.030  1.00  0.00     0.291 C 
HETATM    3  O   UNL     1      39.807 -15.244   1.499  1.00  0.00    -0.264 OA
HETATM    4  H   UNL     1      41.862 -16.341  -0.648  1.00  0.00     0.190 HD
ENDROOT
BRANCH   2   5
HETATM    5  C   UNL     1      41.694 -16.656   1.824  1.00  0.00     0.159 A 
HETATM    6  N   UNL     1      42.047 -17.970   1.526  1.00  0.00    -0.216 NA
HETATM    7  C   UNL     1      42.867 -18.312   2.503  1.00  0.00     0.180 A 
HETATM    8  O   UNL     1      43.118 -17.307   3.396  1.00  0.00    -0.293 OA
HETATM    9  C   UNL     1      42.371 -16.248   2.956  1.00  0.00     0.094 A 
BRANCH   7  10
HETATM   10  C   UNL     1      43.502 -19.601   2.771  1.00  0.00     0.017 A 
HETATM   11  C   UNL     1      44.223 -19.787   3.960  1.00  0.00     0.016 A 
HETATM   12  C   UNL     1      44.861 -21.003   4.228  1.00  0.00     0.001 A 
HETATM   13  C   UNL     1      44.787 -22.046   3.309  1.00  0.00     0.000 A 
HETATM   14  C   UNL     1      44.074 -21.878   2.124  1.00  0.00     0.001 A 
HETATM   15  C   UNL     1      43.435 -20.664   1.857  1.00  0.00     0.016 A 
ENDBRANCH   7  10
BRANCH   9  16
HETATM   16  C   UNL     1      42.344 -14.889   3.629  1.00  0.00     0.046 A 
HETATM   17  C   UNL     1      43.413 -14.584   4.658  1.00  0.00     0.012 A 
HETATM   18  C   UNL     1      43.477 -13.931   3.321  1.00  0.00     0.012 A 
ENDBRANCH   9  16
ENDBRANCH   2   5
BRANCH   1  19
HETATM   19  N   UNL     1      40.236 -15.148  -1.185  1.00  0.00    -0.265 N 
HETATM   20  C   UNL     1      40.862 -13.960  -1.551  1.00  0.00     0.260 C 
HETATM   21  O   UNL     1      42.059 -13.754  -1.369  1.00  0.00    -0.269 OA
HETATM   22  H   UNL     1      39.230 -15.143  -1.027  1.00  0.00     0.190 HD
BRANCH  20  23
HETATM   23  C   UNL     1      39.901 -12.962  -2.202  1.00  0.00     0.280 C 
BRANCH  23  24
HETATM   24  O   UNL     1      39.900 -11.736  -1.486  1.00  0.00    -0.342 OA
BRANCH  24  25
HETATM   25  C   UNL     1      39.541 -11.780  -0.168  1.00  0.00     0.069 A 
HETATM   26  C   UNL     1      40.375 -11.536   0.926  1.00  0.00     0.043 A 
HETATM   27  C   UNL     1      39.878 -11.634   2.236  1.00  0.00    -0.059 A 
HETATM   28  C   UNL     1      40.763 -11.374   3.420  1.00  0.00     0.048 C 
HETATM   29  C   UNL     1      38.532 -11.958   2.438  1.00  0.00     0.007 A 
HETATM   30  C   UNL     1      37.694 -12.191   1.349  1.00  0.00     0.003 A 
HETATM   31  C   UNL     1      38.200 -12.103   0.053  1.00  0.00     0.037 A 
ENDBRANCH  24  25
ENDBRANCH  23  24
ENDBRANCH  20  23
ENDBRANCH   1  19
TORSDOF 7
ENDMDL
MODEL 8
REMARK VINA RESULT:      -8.2      4.829      9.842
REMARK  7 active torsions:
REMARK  status: ('A' for Active; 'I' for Inactive)
REMARK    1  A    between atoms: C_4  and  O_5 
REMARK    2  A    between atoms: O_5  and  C_6 
REMARK    3  A    between atoms: C_6  and  C_7 
REMARK       I    between atoms: C_7  and  N_8 
REMARK    4  A    between atoms: N_8  and  N_9 
REMARK       I    between atoms: N_9  and  C_10 
REMARK    5  A    between atoms: C_10  and  C_11 
REMARK    6  A    between atoms: C_13  and  C_14 
REMARK    7  A    between atoms: C_21  and  C_22 
ROOT
HETATM    1  N   UNL     1      40.616 -15.719   0.183  1.00  0.00    -0.262 N 
HETATM    2  C   UNL     1      40.467 -15.788   1.559  1.00  0.00     0.291 C 
HETATM    3  O   UNL     1      39.522 -15.261   2.146  1.00  0.00    -0.264 OA
HETATM    4  H   UNL     1      41.532 -15.935  -0.209  1.00  0.00     0.190 HD
ENDROOT
BRANCH   2   5
HETATM    5  C   UNL     1      41.519 -16.554   2.211  1.00  0.00     0.159 A 
HETATM    6  N   UNL     1      41.833 -17.859   1.843  1.00  0.00    -0.216 NA
HETATM    7  C   UNL     1      42.768 -18.219   2.703  1.00  0.00     0.180 A 
HETATM    8  O   UNL     1      43.127 -17.233   3.580  1.00  0.00    -0.293 OA
HETATM    9  C   UNL     1      42.330 -16.168   3.260  1.00  0.00     0.094 A 
BRANCH   7  10
HETATM   10  C   UNL     1      43.432 -19.511   2.862  1.00  0.00     0.017 A 
HETATM   11  C   UNL     1      44.213 -19.757   4.001  1.00  0.00     0.016 A 
HETATM   12  C   UNL     1      44.880 -20.975   4.164  1.00  0.00     0.001 A 
HETATM   13  C   UNL     1      44.775 -21.963   3.189  1.00  0.00     0.000 A 
HETATM   14  C   UNL     1      44.002 -21.736   2.051  1.00  0.00     0.001 A 
HETATM   15  C   UNL     1      43.335 -20.519   1.890  1.00  0.00     0.016 A 
ENDBRANCH   7  10
BRANCH   9  16
HETATM   16  C   UNL     1      42.385 -14.824   3.961  1.00  0.00     0.046 A 
HETATM   17  C   UNL     1      43.521 -14.574   4.930  1.00  0.00     0.012 A 
HETATM   18  C   UNL     1      43.527 -13.893   3.606  1.00  0.00     0.012 A 
ENDBRANCH   9  16
ENDBRANCH   2   5
BRANCH   1  19
HETATM   19  N   UNL     1      39.799 -14.814  -0.522  1.00  0.00    -0.265 N 
HETATM   20  C   UNL     1      40.380 -13.617  -0.928  1.00  0.00     0.260 C 
HETATM   21  O   UNL     1      41.593 -13.426  -0.911  1.00  0.00    -0.269 OA
HETATM   22  H   UNL     1      38.826 -14.810  -0.223  1.00  0.00     0.190 HD
BRANCH  20  23
HETATM   23  C   UNL     1      39.348 -12.588  -1.396  1.00  0.00     0.280 C 
BRANCH  23  24
HETATM   24  O   UNL     1      39.324 -12.521  -2.814  1.00  0.00    -0.342 OA
BRANCH  24  25
HETATM   25  C   UNL     1      38.166 -12.891  -3.439  1.00  0.00     0.069 A 
HETATM   26  C   UNL     1      37.194 -12.031  -3.956  1.00  0.00     0.043 A 
HETATM   27  C   UNL     1      36.035 -12.547  -4.561  1.00  0.00    -0.059 A 
HETATM   28  C   UNL     1      34.984 -11.634  -5.121  1.00  0.00     0.048 C 
HETATM   29  C   UNL     1      35.872 -13.933  -4.660  1.00  0.00     0.007 A 
HETATM   30  C   UNL     1      36.845 -14.794  -4.155  1.00  0.00     0.003 A 
HETATM   31  C   UNL     1      37.985 -14.271  -3.547  1.00  0.00     0.037 A 
ENDBRANCH  24  25
ENDBRANCH  23  24
ENDBRANCH  20  23
ENDBRANCH   1  19
TORSDOF 7
ENDMDL
MODEL 9
REMARK VINA RESULT:      -8.2      6.553     10.384
REMARK  7 active torsions:
REMARK  status: ('A' for Active; 'I' for Inactive)
REMARK    1  A    between atoms: C_4  and  O_5 
REMARK    2  A    between atoms: O_5  and  C_6 
REMARK    3  A    between atoms: C_6  and  C_7 
REMARK       I    between atoms: C_7  and  N_8 
REMARK    4  A    between atoms: N_8  and  N_9 
REMARK       I    between atoms: N_9  and  C_10 
REMARK    5  A    between atoms: C_10  and  C_11 
REMARK    6  A    between atoms: C_13  and  C_14 
REMARK    7  A    between atoms: C_21  and  C_22 
ROOT
HETATM    1  N   UNL     1      40.658 -15.999  -0.623  1.00  0.00    -0.262 N 
HETATM    2  C   UNL     1      41.017 -14.674  -0.809  1.00  0.00     0.291 C 
HETATM    3  O   UNL     1      41.910 -14.135  -0.154  1.00  0.00    -0.264 OA
HETATM    4  H   UNL     1      39.759 -16.306  -0.992  1.00  0.00     0.190 HD
ENDROOT
BRANCH   2   5
HETATM    5  C   UNL     1      40.251 -14.014  -1.855  1.00  0.00     0.159 A 
HETATM    6  N   UNL     1      38.864 -14.111  -1.944  1.00  0.00    -0.216 NA
HETATM    7  C   UNL     1      38.566 -13.450  -3.047  1.00  0.00     0.180 A 
HETATM    8  O   UNL     1      39.645 -12.883  -3.666  1.00  0.00    -0.293 OA
HETATM    9  C   UNL     1      40.721 -13.242  -2.899  1.00  0.00     0.094 A 
BRANCH   7  10
HETATM   10  C   UNL     1      37.269 -13.272  -3.698  1.00  0.00     0.017 A 
HETATM   11  C   UNL     1      36.620 -14.378  -4.268  1.00  0.00     0.016 A 
HETATM   12  C   UNL     1      35.392 -14.230  -4.920  1.00  0.00     0.001 A 
HETATM   13  C   UNL     1      34.798 -12.973  -5.011  1.00  0.00     0.000 A 
HETATM   14  C   UNL     1      35.429 -11.865  -4.448  1.00  0.00     0.001 A 
HETATM   15  C   UNL     1      36.655 -12.014  -3.796  1.00  0.00     0.016 A 
ENDBRANCH   7  10
BRANCH   9  16
HETATM   16  C   UNL     1      42.149 -12.822  -3.189  1.00  0.00     0.046 A 
HETATM   17  C   UNL     1      42.369 -11.606  -4.063  1.00  0.00     0.012 A 
HETATM   18  C   UNL     1      42.629 -11.511  -2.600  1.00  0.00     0.012 A 
ENDBRANCH   9  16
ENDBRANCH   2   5
BRANCH   1  19
HETATM   19  N   UNL     1      41.162 -16.663   0.512  1.00  0.00    -0.265 N 
HETATM   20  C   UNL     1      40.501 -16.450   1.718  1.00  0.00     0.260 C 
HETATM   21  O   UNL     1      39.396 -15.920   1.787  1.00  0.00    -0.269 OA
HETATM   22  H   UNL     1      42.174 -16.767   0.520  1.00  0.00     0.190 HD
BRANCH  20  23
HETATM   23  C   UNL     1      41.298 -16.951   2.925  1.00  0.00     0.280 C 
BRANCH  23  24
HETATM   24  O   UNL     1      42.663 -17.132   2.577  1.00  0.00    -0.342 OA
BRANCH  24  25
HETATM   25  C   UNL     1      43.225 -18.346   2.855  1.00  0.00     0.069 A 
HETATM   26  C   UNL     1      43.620 -18.806   4.113  1.00  0.00     0.043 A 
HETATM   27  C   UNL     1      44.207 -20.075   4.256  1.00  0.00    -0.059 A 
HETATM   28  C   UNL     1      44.633 -20.583   5.602  1.00  0.00     0.048 C 
HETATM   29  C   UNL     1      44.374 -20.885   3.127  1.00  0.00     0.007 A 
HETATM   30  C   UNL     1      43.973 -20.432   1.871  1.00  0.00     0.003 A 
HETATM   31  C   UNL     1      43.402 -19.167   1.739  1.00  0.00     0.037 A 
ENDBRANCH  24  25
ENDBRANCH  23  24
ENDBRANCH  20  23
ENDBRANCH   1  19
TORSDOF 7
ENDMDL
MODEL 10
REMARK VINA RESULT:      -8.2      2.217      3.100
REMARK  7 active torsions:
REMARK  status: ('A' for Active; 'I' for Inactive)
REMARK    1  A    between atoms: C_4  and  O_5 
REMARK    2  A    between atoms: O_5  and  C_6 
REMARK    3  A    between atoms: C_6  and  C_7 
REMARK       I    between atoms: C_7  and  N_8 
REMARK    4  A    between atoms: N_8  and  N_9 
REMARK       I    between atoms: N_9  and  C_10 
REMARK    5  A    between atoms: C_10  and  C_11 
REMARK    6  A    between atoms: C_13  and  C_14 
REMARK    7  A    between atoms: C_21  and  C_22 
ROOT
HETATM    1  N   UNL     1      40.252 -14.598   6.214  1.00  0.00    -0.262 N 
HETATM    2  C   UNL     1      41.527 -14.697   5.683  1.00  0.00     0.291 C 
HETATM    3  O   UNL     1      42.444 -13.951   6.026  1.00  0.00    -0.264 OA
HETATM    4  H   UNL     1      39.489 -15.051   5.713  1.00  0.00     0.190 HD
ENDROOT
BRANCH   2   5
HETATM    5  C   UNL     1      41.661 -15.773   4.712  1.00  0.00     0.159 A 
HETATM    6  N   UNL     1      42.520 -16.852   4.902  1.00  0.00    -0.216 NA
HETATM    7  C   UNL     1      42.409 -17.552   3.788  1.00  0.00     0.180 A 
HETATM    8  O   UNL     1      41.505 -17.041   2.898  1.00  0.00    -0.293 OA
HETATM    9  C   UNL     1      41.025 -15.906   3.493  1.00  0.00     0.094 A 
BRANCH   7  10
HETATM   10  C   UNL     1      43.129 -18.754   3.374  1.00  0.00     0.017 A 
HETATM   11  C   UNL     1      44.167 -19.254   4.174  1.00  0.00     0.016 A 
HETATM   12  C   UNL     1      44.888 -20.388   3.786  1.00  0.00     0.001 A 
HETATM   13  C   UNL     1      44.581 -21.035   2.592  1.00  0.00     0.000 A 
HETATM   14  C   UNL     1      43.551 -20.552   1.786  1.00  0.00     0.001 A 
HETATM   15  C   UNL     1      42.830 -19.421   2.175  1.00  0.00     0.016 A 
ENDBRANCH   7  10
BRANCH   9  16
HETATM   16  C   UNL     1      39.972 -15.004   2.879  1.00  0.00     0.046 A 
HETATM   17  C   UNL     1      40.438 -13.871   1.989  1.00  0.00     0.012 A 
HETATM   18  C   UNL     1      39.788 -15.063   1.376  1.00  0.00     0.012 A 
ENDBRANCH   9  16
ENDBRANCH   2   5
BRANCH   1  19
HETATM   19  N   UNL     1      39.945 -13.456   6.979  1.00  0.00    -0.265 N 
HETATM   20  C   UNL     1      39.621 -12.295   6.284  1.00  0.00     0.260 C 
HETATM   21  O   UNL     1      39.363 -12.287   5.084  1.00  0.00    -0.269 OA
HETATM   22  H   UNL     1      40.478 -13.377   7.843  1.00  0.00     0.190 HD
BRANCH  20  23
HETATM   23  C   UNL     1      39.616 -11.052   7.179  1.00  0.00     0.280 C 
BRANCH  23  24
HETATM   24  O   UNL     1      40.904 -10.841   7.738  1.00  0.00    -0.342 OA
BRANCH  24  25
HETATM   25  C   UNL     1      40.969 -10.559   9.074  1.00  0.00     0.069 A 
HETATM   26  C   UNL     1      41.964  -9.818   9.716  1.00  0.00     0.043 A 
HETATM   27  C   UNL     1      41.920  -9.619  11.106  1.00  0.00    -0.059 A 
HETATM   28  C   UNL     1      42.982  -8.825  11.808  1.00  0.00     0.048 C 
HETATM   29  C   UNL     1      40.855 -10.152  11.842  1.00  0.00     0.007 A 
HETATM   30  C   UNL     1      39.855 -10.882  11.203  1.00  0.00     0.003 A 
HETATM   31  C   UNL     1      39.915 -11.084   9.825  1.00  0.00     0.037 A 
ENDBRANCH  24  25
ENDBRANCH  23  24
ENDBRANCH  20  23
ENDBRANCH   1  19
TORSDOF 7
ENDMDL
