MODEL 1
REMARK VINA RESULT:      -8.5      0.000      0.000
REMARK  1 active torsions:
REMARK  status: ('A' for Active; 'I' for Inactive)
REMARK    1  A    between atoms: C_10  and  N_11 
ROOT
HETATM    1  C   UNL     1      41.568 -13.375  -3.451  1.00  0.00     0.015 C 
HETATM    2  C   UNL     1      40.832 -14.070  -2.291  1.00  0.00    -0.036 C 
HETATM    3  C   UNL     1      40.535 -15.522  -2.720  1.00  0.00     0.015 C 
HETATM    4  C   UNL     1      39.522 -13.311  -2.003  1.00  0.00     0.093 C 
HETATM    5  C   UNL     1      38.831 -13.754  -0.730  1.00  0.00     0.163 C 
HETATM    6  O   UNL     1      37.629 -13.583  -0.550  1.00  0.00    -0.292 OA
HETATM    7  C   UNL     1      39.654 -14.347   0.334  1.00  0.00     0.053 A 
HETATM    8  C   UNL     1      41.016 -14.499   0.205  1.00  0.00     0.069 A 
HETATM    9  N   UNL     1      41.781 -15.043   1.182  1.00  0.00    -0.066 NA
HETATM   10  C   UNL     1      41.164 -15.484   2.296  1.00  0.00     0.728 A 
HETATM   11  N   UNL     1      39.841 -15.371   2.487  1.00  0.00    -0.074 NA
HETATM   12  C   UNL     1      39.109 -14.802   1.507  1.00  0.00     0.153 A 
HETATM   13  C   UNL     1      41.731 -14.037  -1.037  1.00  0.00     0.070 C 
ENDROOT
BRANCH  10  14
HETATM   14  N   UNL     1      42.006 -16.046   3.243  1.00  0.00    -0.164 N 
HETATM   15  C   UNL     1      42.570 -17.266   3.229  1.00  0.00     0.187 A 
HETATM   16  S   UNL     1      43.632 -17.695   4.525  1.00  0.00    -0.049 SA
HETATM   17  N   UNL     1      42.437 -18.197   2.312  1.00  0.00    -0.223 NA
HETATM   18  C   UNL     1      43.935 -19.221   3.797  1.00  0.00     0.037 A 
HETATM   19  C   UNL     1      43.206 -19.305   2.612  1.00  0.00     0.076 A 
HETATM   20  C   UNL     1      44.763 -20.269   4.235  1.00  0.00     0.021 A 
HETATM   21  C   UNL     1      43.310 -20.475   1.831  1.00  0.00     0.033 A 
HETATM   22  C   UNL     1      44.136 -21.522   2.254  1.00  0.00     0.002 A 
HETATM   23  C   UNL     1      44.851 -21.419   3.444  1.00  0.00     0.002 A 
HETATM   24  H   UNL     1      42.316 -15.350   3.903  1.00  0.00     0.186 HD
ENDBRANCH  10  14
TORSDOF 1
ENDMDL
MODEL 2
REMARK VINA RESULT:      -8.0      3.276      7.900
REMARK  1 active torsions:
REMARK  status: ('A' for Active; 'I' for Inactive)
REMARK    1  A    between atoms: C_10  and  N_11 
ROOT
HETATM    1  C   UNL     1      43.757 -16.042   7.314  1.00  0.00     0.015 C 
HETATM    2  C   UNL     1      43.421 -16.911   6.088  1.00  0.00    -0.036 C 
HETATM    3  C   UNL     1      41.964 -17.396   6.236  1.00  0.00     0.015 C 
HETATM    4  C   UNL     1      44.390 -18.109   6.043  1.00  0.00     0.093 C 
HETATM    5  C   UNL     1      44.315 -18.900   4.753  1.00  0.00     0.163 C 
HETATM    6  O   UNL     1      44.678 -20.071   4.688  1.00  0.00    -0.292 OA
HETATM    7  C   UNL     1      43.853 -18.208   3.542  1.00  0.00     0.053 A 
HETATM    8  C   UNL     1      43.498 -16.878   3.551  1.00  0.00     0.069 A 
HETATM    9  N   UNL     1      43.072 -16.234   2.438  1.00  0.00    -0.066 NA
HETATM   10  C   UNL     1      42.957 -16.947   1.299  1.00  0.00     0.728 A 
HETATM   11  N   UNL     1      43.281 -18.246   1.220  1.00  0.00    -0.074 NA
HETATM   12  C   UNL     1      43.727 -18.855   2.339  1.00  0.00     0.153 A 
HETATM   13  C   UNL     1      43.593 -16.062   4.811  1.00  0.00     0.070 C 
ENDROOT
BRANCH  10  14
HETATM   14  N   UNL     1      42.497 -16.228   0.207  1.00  0.00    -0.164 N 
HETATM   15  C   UNL     1      41.362 -15.514   0.105  1.00  0.00     0.187 A 
HETATM   16  S   UNL     1      41.057 -14.663  -1.370  1.00  0.00    -0.049 SA
HETATM   17  N   UNL     1      40.435 -15.351   1.020  1.00  0.00    -0.223 NA
HETATM   18  C   UNL     1      39.596 -14.031  -0.725  1.00  0.00     0.037 A 
HETATM   19  C   UNL     1      39.434 -14.511   0.573  1.00  0.00     0.076 A 
HETATM   20  C   UNL     1      38.660 -13.168  -1.320  1.00  0.00     0.021 A 
HETATM   21  C   UNL     1      38.299 -14.111   1.309  1.00  0.00     0.033 A 
HETATM   22  C   UNL     1      37.364 -13.247   0.731  1.00  0.00     0.002 A 
HETATM   23  C   UNL     1      37.543 -12.784  -0.570  1.00  0.00     0.002 A 
HETATM   24  H   UNL     1      43.218 -16.140  -0.492  1.00  0.00     0.186 HD
ENDBRANCH  10  14
TORSDOF 1
ENDMDL
MODEL 3
REMARK VINA RESULT:      -7.9      1.272      2.474
REMARK  1 active torsions:
REMARK  status: ('A' for Active; 'I' for Inactive)
REMARK    1  A    between atoms: C_10  and  N_11 
ROOT
HETATM    1  C   UNL     1      36.737 -12.210   0.615  1.00  0.00     0.015 C 
HETATM    2  C   UNL     1      38.153 -12.733   0.312  1.00  0.00    -0.036 C 
HETATM    3  C   UNL     1      39.135 -11.552   0.453  1.00  0.00     0.015 C 
HETATM    4  C   UNL     1      38.182 -13.296  -1.123  1.00  0.00     0.093 C 
HETATM    5  C   UNL     1      39.451 -14.056  -1.451  1.00  0.00     0.163 C 
HETATM    6  O   UNL     1      39.834 -14.211  -2.606  1.00  0.00    -0.292 OA
HETATM    7  C   UNL     1      40.195 -14.671  -0.342  1.00  0.00     0.053 A 
HETATM    8  C   UNL     1      39.769 -14.580   0.964  1.00  0.00     0.069 A 
HETATM    9  N   UNL     1      40.450 -15.145   1.989  1.00  0.00    -0.066 NA
HETATM   10  C   UNL     1      41.605 -15.780   1.708  1.00  0.00     0.728 A 
HETATM   11  N   UNL     1      42.081 -15.904   0.460  1.00  0.00    -0.074 NA
HETATM   12  C   UNL     1      41.369 -15.352  -0.544  1.00  0.00     0.153 A 
HETATM   13  C   UNL     1      38.495 -13.858   1.312  1.00  0.00     0.070 C 
ENDROOT
BRANCH  10  14
HETATM   14  N   UNL     1      42.256 -16.317   2.808  1.00  0.00    -0.164 N 
HETATM   15  C   UNL     1      42.770 -17.553   2.943  1.00  0.00     0.187 A 
HETATM   16  S   UNL     1      43.582 -17.947   4.419  1.00  0.00    -0.049 SA
HETATM   17  N   UNL     1      42.759 -18.524   2.060  1.00  0.00    -0.223 NA
HETATM   18  C   UNL     1      43.948 -19.515   3.821  1.00  0.00     0.037 A 
HETATM   19  C   UNL     1      43.426 -19.637   2.534  1.00  0.00     0.076 A 
HETATM   20  C   UNL     1      44.652 -20.562   4.439  1.00  0.00     0.021 A 
HETATM   21  C   UNL     1      43.618 -20.847   1.835  1.00  0.00     0.033 A 
HETATM   22  C   UNL     1      44.322 -21.894   2.438  1.00  0.00     0.002 A 
HETATM   23  C   UNL     1      44.830 -21.752   3.726  1.00  0.00     0.002 A 
HETATM   24  H   UNL     1      42.475 -15.599   3.479  1.00  0.00     0.186 HD
ENDBRANCH  10  14
TORSDOF 1
ENDMDL
MODEL 4
REMARK VINA RESULT:      -7.9      2.984      7.571
REMARK  1 active torsions:
REMARK  status: ('A' for Active; 'I' for Inactive)
REMARK    1  A    between atoms: C_10  and  N_11 
ROOT
HETATM    1  C   UNL     1      43.619 -20.349   2.059  1.00  0.00     0.015 C 
HETATM    2  C   UNL     1      43.222 -18.905   2.417  1.00  0.00    -0.036 C 
HETATM    3  C   UNL     1      44.381 -17.977   1.998  1.00  0.00     0.015 C 
HETATM    4  C   UNL     1      42.977 -18.816   3.936  1.00  0.00     0.093 C 
HETATM    5  C   UNL     1      42.349 -17.508   4.373  1.00  0.00     0.163 C 
HETATM    6  O   UNL     1      42.455 -17.089   5.522  1.00  0.00    -0.292 OA
HETATM    7  C   UNL     1      41.541 -16.768   3.394  1.00  0.00     0.053 A 
HETATM    8  C   UNL     1      41.339 -17.230   2.113  1.00  0.00     0.069 A 
HETATM    9  N   UNL     1      40.594 -16.553   1.207  1.00  0.00    -0.066 NA
HETATM   10  C   UNL     1      40.074 -15.365   1.576  1.00  0.00     0.728 A 
HETATM   11  N   UNL     1      40.234 -14.853   2.805  1.00  0.00    -0.074 NA
HETATM   12  C   UNL     1      40.960 -15.562   3.695  1.00  0.00     0.153 A 
HETATM   13  C   UNL     1      41.925 -18.542   1.665  1.00  0.00     0.070 C 
ENDROOT
BRANCH  10  14
HETATM   14  N   UNL     1      39.340 -14.721   0.592  1.00  0.00    -0.164 N 
HETATM   15  C   UNL     1      39.802 -13.998  -0.444  1.00  0.00     0.187 A 
HETATM   16  S   UNL     1      38.656 -13.342  -1.562  1.00  0.00    -0.049 SA
HETATM   17  N   UNL     1      41.053 -13.739  -0.743  1.00  0.00    -0.223 NA
HETATM   18  C   UNL     1      39.929 -12.683  -2.508  1.00  0.00     0.037 A 
HETATM   19  C   UNL     1      41.146 -13.004  -1.909  1.00  0.00     0.076 A 
HETATM   20  C   UNL     1      39.860 -11.938  -3.698  1.00  0.00     0.021 A 
HETATM   21  C   UNL     1      42.340 -12.573  -2.523  1.00  0.00     0.033 A 
HETATM   22  C   UNL     1      42.285 -11.837  -3.711  1.00  0.00     0.002 A 
HETATM   23  C   UNL     1      41.059 -11.523  -4.289  1.00  0.00     0.002 A 
HETATM   24  H   UNL     1      38.374 -15.002   0.626  1.00  0.00     0.186 HD
ENDBRANCH  10  14
TORSDOF 1
ENDMDL
MODEL 5
REMARK VINA RESULT:      -7.9      3.182      7.875
REMARK  1 active torsions:
REMARK  status: ('A' for Active; 'I' for Inactive)
REMARK    1  A    between atoms: C_10  and  N_11 
ROOT
HETATM    1  C   UNL     1      43.981 -15.901   6.930  1.00  0.00     0.015 C 
HETATM    2  C   UNL     1      43.254 -16.669   5.811  1.00  0.00    -0.036 C 
HETATM    3  C   UNL     1      41.985 -17.303   6.417  1.00  0.00     0.015 C 
HETATM    4  C   UNL     1      44.194 -17.759   5.259  1.00  0.00     0.093 C 
HETATM    5  C   UNL     1      43.682 -18.420   3.996  1.00  0.00     0.163 C 
HETATM    6  O   UNL     1      44.052 -19.538   3.652  1.00  0.00    -0.292 OA
HETATM    7  C   UNL     1      42.765 -17.656   3.139  1.00  0.00     0.053 A 
HETATM    8  C   UNL     1      42.373 -16.373   3.448  1.00  0.00     0.069 A 
HETATM    9  N   UNL     1      41.529 -15.663   2.662  1.00  0.00    -0.066 NA
HETATM   10  C   UNL     1      41.032 -16.264   1.562  1.00  0.00     0.728 A 
HETATM   11  N   UNL     1      41.368 -17.512   1.203  1.00  0.00    -0.074 NA
HETATM   12  C   UNL     1      42.230 -18.186   1.992  1.00  0.00     0.153 A 
HETATM   13  C   UNL     1      42.893 -15.682   4.680  1.00  0.00     0.070 C 
ENDROOT
BRANCH  10  14
HETATM   14  N   UNL     1      40.161 -15.485   0.817  1.00  0.00    -0.164 N 
HETATM   15  C   UNL     1      40.460 -14.633  -0.180  1.00  0.00     0.187 A 
HETATM   16  S   UNL     1      39.162 -13.819  -0.982  1.00  0.00    -0.049 SA
HETATM   17  N   UNL     1      41.649 -14.349  -0.658  1.00  0.00    -0.223 NA
HETATM   18  C   UNL     1      40.273 -13.050  -2.042  1.00  0.00     0.037 A 
HETATM   19  C   UNL     1      41.563 -13.463  -1.715  1.00  0.00     0.076 A 
HETATM   20  C   UNL     1      40.025 -12.150  -3.092  1.00  0.00     0.021 A 
HETATM   21  C   UNL     1      42.648 -12.965  -2.467  1.00  0.00     0.033 A 
HETATM   22  C   UNL     1      42.413 -12.074  -3.520  1.00  0.00     0.002 A 
HETATM   23  C   UNL     1      41.116 -11.671  -3.825  1.00  0.00     0.002 A 
HETATM   24  H   UNL     1      39.206 -15.757   0.983  1.00  0.00     0.186 HD
ENDBRANCH  10  14
TORSDOF 1
ENDMDL
MODEL 6
REMARK VINA RESULT:      -7.7      2.031      3.000
REMARK  1 active torsions:
REMARK  status: ('A' for Active; 'I' for Inactive)
REMARK    1  A    between atoms: C_10  and  N_11 
ROOT
HETATM    1  C   UNL     1      37.304 -14.024   0.647  1.00  0.00     0.015 C 
HETATM    2  C   UNL     1      38.697 -13.758   1.245  1.00  0.00    -0.036 C 
HETATM    3  C   UNL     1      38.547 -12.683   2.341  1.00  0.00     0.015 C 
HETATM    4  C   UNL     1      39.636 -13.265   0.126  1.00  0.00     0.093 C 
HETATM    5  C   UNL     1      41.092 -13.201   0.540  1.00  0.00     0.163 C 
HETATM    6  O   UNL     1      41.898 -12.476  -0.034  1.00  0.00    -0.292 OA
HETATM    7  C   UNL     1      41.544 -14.089   1.620  1.00  0.00     0.053 A 
HETATM    8  C   UNL     1      40.691 -14.968   2.249  1.00  0.00     0.069 A 
HETATM    9  N   UNL     1      41.101 -15.790   3.244  1.00  0.00    -0.066 NA
HETATM   10  C   UNL     1      42.385 -15.702   3.649  1.00  0.00     0.728 A 
HETATM   11  N   UNL     1      43.268 -14.867   3.084  1.00  0.00    -0.074 NA
HETATM   12  C   UNL     1      42.837 -14.078   2.078  1.00  0.00     0.153 A 
HETATM   13  C   UNL     1      39.248 -15.074   1.835  1.00  0.00     0.070 C 
ENDROOT
BRANCH  10  14
HETATM   14  N   UNL     1      42.728 -16.559   4.683  1.00  0.00    -0.164 N 
HETATM   15  C   UNL     1      43.168 -17.827   4.594  1.00  0.00     0.187 A 
HETATM   16  S   UNL     1      43.577 -18.658   6.056  1.00  0.00    -0.049 SA
HETATM   17  N   UNL     1      43.361 -18.532   3.504  1.00  0.00    -0.223 NA
HETATM   18  C   UNL     1      44.051 -20.043   5.158  1.00  0.00     0.037 A 
HETATM   19  C   UNL     1      43.867 -19.783   3.801  1.00  0.00     0.076 A 
HETATM   20  C   UNL     1      44.557 -21.271   5.616  1.00  0.00     0.021 A 
HETATM   21  C   UNL     1      44.204 -20.782   2.865  1.00  0.00     0.033 A 
HETATM   22  C   UNL     1      44.715 -22.006   3.308  1.00  0.00     0.002 A 
HETATM   23  C   UNL     1      44.886 -22.246   4.669  1.00  0.00     0.002 A 
HETATM   24  H   UNL     1      42.785 -16.061   5.556  1.00  0.00     0.186 HD
ENDBRANCH  10  14
TORSDOF 1
ENDMDL
MODEL 7
REMARK VINA RESULT:      -7.5      3.314      7.793
REMARK  1 active torsions:
REMARK  status: ('A' for Active; 'I' for Inactive)
REMARK    1  A    between atoms: C_10  and  N_11 
ROOT
HETATM    1  C   UNL     1      43.598 -19.872   6.331  1.00  0.00     0.015 C 
HETATM    2  C   UNL     1      43.565 -18.436   5.777  1.00  0.00    -0.036 C 
HETATM    3  C   UNL     1      44.387 -18.411   4.472  1.00  0.00     0.015 C 
HETATM    4  C   UNL     1      44.177 -17.483   6.823  1.00  0.00     0.093 C 
HETATM    5  C   UNL     1      43.981 -16.017   6.495  1.00  0.00     0.163 C 
HETATM    6  O   UNL     1      44.716 -15.146   6.951  1.00  0.00    -0.292 OA
HETATM    7  C   UNL     1      42.834 -15.643   5.657  1.00  0.00     0.053 A 
HETATM    8  C   UNL     1      41.944 -16.577   5.177  1.00  0.00     0.069 A 
HETATM    9  N   UNL     1      40.883 -16.238   4.405  1.00  0.00    -0.066 NA
HETATM   10  C   UNL     1      40.733 -14.941   4.070  1.00  0.00     0.728 A 
HETATM   11  N   UNL     1      41.563 -13.979   4.499  1.00  0.00    -0.074 NA
HETATM   12  C   UNL     1      42.596 -14.343   5.287  1.00  0.00     0.153 A 
HETATM   13  C   UNL     1      42.098 -18.035   5.514  1.00  0.00     0.070 C 
ENDROOT
BRANCH  10  14
HETATM   14  N   UNL     1      39.638 -14.672   3.263  1.00  0.00    -0.164 N 
HETATM   15  C   UNL     1      39.618 -14.483   1.932  1.00  0.00     0.187 A 
HETATM   16  S   UNL     1      38.091 -14.213   1.165  1.00  0.00    -0.049 SA
HETATM   17  N   UNL     1      40.638 -14.505   1.106  1.00  0.00    -0.223 NA
HETATM   18  C   UNL     1      38.856 -14.133  -0.371  1.00  0.00     0.037 A 
HETATM   19  C   UNL     1      40.227 -14.316  -0.199  1.00  0.00     0.076 A 
HETATM   20  C   UNL     1      38.288 -13.929  -1.640  1.00  0.00     0.021 A 
HETATM   21  C   UNL     1      41.063 -14.302  -1.335  1.00  0.00     0.033 A 
HETATM   22  C   UNL     1      40.508 -14.107  -2.604  1.00  0.00     0.002 A 
HETATM   23  C   UNL     1      39.136 -13.920  -2.752  1.00  0.00     0.002 A 
HETATM   24  H   UNL     1      38.779 -14.808   3.771  1.00  0.00     0.186 HD
ENDBRANCH  10  14
TORSDOF 1
ENDMDL
MODEL 8
REMARK VINA RESULT:      -7.5      1.694      2.472
REMARK  1 active torsions:
REMARK  status: ('A' for Active; 'I' for Inactive)
REMARK    1  A    between atoms: C_10  and  N_11 
ROOT
HETATM    1  C   UNL     1      40.560 -12.660  -3.680  1.00  0.00     0.015 C 
HETATM    2  C   UNL     1      39.953 -13.461  -2.513  1.00  0.00    -0.036 C 
HETATM    3  C   UNL     1      39.027 -14.541  -3.109  1.00  0.00     0.015 C 
HETATM    4  C   UNL     1      39.155 -12.500  -1.609  1.00  0.00     0.093 C 
HETATM    5  C   UNL     1      38.714 -13.125  -0.301  1.00  0.00     0.163 C 
HETATM    6  O   UNL     1      37.762 -12.688   0.338  1.00  0.00    -0.292 OA
HETATM    7  C   UNL     1      39.503 -14.244   0.232  1.00  0.00     0.053 A 
HETATM    8  C   UNL     1      40.619 -14.726  -0.415  1.00  0.00     0.069 A 
HETATM    9  N   UNL     1      41.351 -15.756   0.072  1.00  0.00    -0.066 NA
HETATM   10  C   UNL     1      40.934 -16.347   1.210  1.00  0.00     0.728 A 
HETATM   11  N   UNL     1      39.855 -15.932   1.890  1.00  0.00    -0.074 NA
HETATM   12  C   UNL     1      39.160 -14.887   1.394  1.00  0.00     0.153 A 
HETATM   13  C   UNL     1      41.096 -14.102  -1.698  1.00  0.00     0.070 C 
ENDROOT
BRANCH  10  14
HETATM   14  N   UNL     1      41.721 -17.405   1.637  1.00  0.00    -0.164 N 
HETATM   15  C   UNL     1      42.469 -17.482   2.753  1.00  0.00     0.187 A 
HETATM   16  S   UNL     1      43.318 -18.955   3.071  1.00  0.00    -0.049 SA
HETATM   17  N   UNL     1      42.621 -16.564   3.678  1.00  0.00    -0.223 NA
HETATM   18  C   UNL     1      43.915 -18.314   4.548  1.00  0.00     0.037 A 
HETATM   19  C   UNL     1      43.428 -17.017   4.703  1.00  0.00     0.076 A 
HETATM   20  C   UNL     1      44.749 -18.913   5.507  1.00  0.00     0.021 A 
HETATM   21  C   UNL     1      43.780 -16.292   5.861  1.00  0.00     0.033 A 
HETATM   22  C   UNL     1      44.604 -16.881   6.826  1.00  0.00     0.002 A 
HETATM   23  C   UNL     1      45.084 -18.176   6.648  1.00  0.00     0.002 A 
HETATM   24  H   UNL     1      41.538 -18.231   1.090  1.00  0.00     0.186 HD
ENDBRANCH  10  14
TORSDOF 1
ENDMDL
MODEL 9
REMARK VINA RESULT:      -7.2      2.151      3.129
REMARK  1 active torsions:
REMARK  status: ('A' for Active; 'I' for Inactive)
REMARK    1  A    between atoms: C_10  and  N_11 
ROOT
HETATM    1  C   UNL     1      38.414 -13.410  -0.892  1.00  0.00     0.015 C 
HETATM    2  C   UNL     1      39.314 -13.710   0.321  1.00  0.00    -0.036 C 
HETATM    3  C   UNL     1      38.429 -14.316   1.430  1.00  0.00     0.015 C 
HETATM    4  C   UNL     1      39.961 -12.396   0.801  1.00  0.00     0.093 C 
HETATM    5  C   UNL     1      41.051 -12.599   1.833  1.00  0.00     0.163 C 
HETATM    6  O   UNL     1      41.383 -11.710   2.611  1.00  0.00    -0.292 OA
HETATM    7  C   UNL     1      41.764 -13.884   1.843  1.00  0.00     0.053 A 
HETATM    8  C   UNL     1      41.473 -14.889   0.947  1.00  0.00     0.069 A 
HETATM    9  N   UNL     1      42.127 -16.075   0.951  1.00  0.00    -0.066 NA
HETATM   10  C   UNL     1      43.064 -16.279   1.899  1.00  0.00     0.728 A 
HETATM   11  N   UNL     1      43.395 -15.347   2.804  1.00  0.00    -0.074 NA
HETATM   12  C   UNL     1      42.744 -14.165   2.761  1.00  0.00     0.153 A 
HETATM   13  C   UNL     1      40.417 -14.700  -0.108  1.00  0.00     0.070 C 
ENDROOT
BRANCH  10  14
HETATM   14  N   UNL     1      43.677 -17.521   1.852  1.00  0.00    -0.164 N 
HETATM   15  C   UNL     1      43.853 -18.395   2.859  1.00  0.00     0.187 A 
HETATM   16  S   UNL     1      44.611 -19.909   2.509  1.00  0.00    -0.049 SA
HETATM   17  N   UNL     1      43.485 -18.255   4.112  1.00  0.00    -0.223 NA
HETATM   18  C   UNL     1      44.420 -20.405   4.142  1.00  0.00     0.037 A 
HETATM   19  C   UNL     1      43.791 -19.382   4.850  1.00  0.00     0.076 A 
HETATM   20  C   UNL     1      44.793 -21.612   4.756  1.00  0.00     0.021 A 
HETATM   21  C   UNL     1      43.517 -19.573   6.220  1.00  0.00     0.033 A 
HETATM   22  C   UNL     1      43.877 -20.773   6.841  1.00  0.00     0.002 A 
HETATM   23  C   UNL     1      44.510 -21.779   6.116  1.00  0.00     0.002 A 
HETATM   24  H   UNL     1      43.839 -17.804   0.899  1.00  0.00     0.186 HD
ENDBRANCH  10  14
TORSDOF 1
ENDMDL
MODEL 10
REMARK VINA RESULT:      -7.0      5.052      8.463
REMARK  1 active torsions:
REMARK  status: ('A' for Active; 'I' for Inactive)
REMARK    1  A    between atoms: C_10  and  N_11 
ROOT
HETATM    1  C   UNL     1      43.145 -20.100   1.781  1.00  0.00     0.015 C 
HETATM    2  C   UNL     1      43.425 -18.863   2.654  1.00  0.00    -0.036 C 
HETATM    3  C   UNL     1      44.302 -17.893   1.836  1.00  0.00     0.015 C 
HETATM    4  C   UNL     1      44.159 -19.311   3.934  1.00  0.00     0.093 C 
HETATM    5  C   UNL     1      44.273 -18.221   4.980  1.00  0.00     0.163 C 
HETATM    6  O   UNL     1      45.140 -18.242   5.847  1.00  0.00    -0.292 OA
HETATM    7  C   UNL     1      43.267 -17.150   4.976  1.00  0.00     0.053 A 
HETATM    8  C   UNL     1      42.236 -17.119   4.064  1.00  0.00     0.069 A 
HETATM    9  N   UNL     1      41.304 -16.135   4.056  1.00  0.00    -0.066 NA
HETATM   10  C   UNL     1      41.430 -15.137   4.953  1.00  0.00     0.728 A 
HETATM   11  N   UNL     1      42.411 -15.102   5.867  1.00  0.00    -0.074 NA
HETATM   12  C   UNL     1      43.310 -16.108   5.868  1.00  0.00     0.153 A 
HETATM   13  C   UNL     1      42.081 -18.206   3.036  1.00  0.00     0.070 C 
ENDROOT
BRANCH  10  14
HETATM   14  N   UNL     1      40.453 -14.157   4.874  1.00  0.00    -0.164 N 
HETATM   15  C   UNL     1      40.441 -12.950   5.467  1.00  0.00     0.187 A 
HETATM   16  S   UNL     1      39.108 -11.894   5.152  1.00  0.00    -0.049 SA
HETATM   17  N   UNL     1      41.354 -12.441   6.261  1.00  0.00    -0.223 NA
HETATM   18  C   UNL     1      39.816 -10.677   6.136  1.00  0.00     0.037 A 
HETATM   19  C   UNL     1      41.023 -11.155   6.642  1.00  0.00     0.076 A 
HETATM   20  C   UNL     1      39.343  -9.388   6.436  1.00  0.00     0.021 A 
HETATM   21  C   UNL     1      41.792 -10.315   7.475  1.00  0.00     0.033 A 
HETATM   22  C   UNL     1      41.335  -9.028   7.776  1.00  0.00     0.002 A 
HETATM   23  C   UNL     1      40.124  -8.573   7.263  1.00  0.00     0.002 A 
HETATM   24  H   UNL     1      39.788 -14.374   4.148  1.00  0.00     0.186 HD
ENDBRANCH  10  14
TORSDOF 1
ENDMDL
