MODEL 1
REMARK VINA RESULT:      -7.7      0.000      0.000
REMARK  9 active torsions:
REMARK  status: ('A' for Active; 'I' for Inactive)
REMARK    1  A    between atoms: C_2  and  N_3 
REMARK    2  A    between atoms: N_3  and  C_5 
REMARK    3  A    between atoms: N_3  and  C_30 
REMARK    4  A    between atoms: C_5  and  C_6 
REMARK    5  A    between atoms: C_5  and  C_14 
REMARK    6  A    between atoms: C_8  and  O_9 
REMARK    7  A    between atoms: C_14  and  N_15 
REMARK       I    between atoms: N_15  and  C_16 
REMARK    8  A    between atoms: C_16  and  C_17 
REMARK    9  A    between atoms: C_18  and  N_19 
ROOT
HETATM    1  C   UNL     1      41.247 -16.050  -0.741  1.00  0.00     0.161 C 
ENDROOT
BRANCH   1   2
HETATM    2  C   UNL     1      40.857 -14.591  -1.166  1.00  0.00     0.238 C 
BRANCH   2   3
HETATM    3  N   UNL     1      40.471 -14.504  -2.655  1.00  0.00    -0.062 N 
HETATM    4  H   UNL     1      39.543 -14.043  -2.586  1.00  0.00     0.280 HD
BRANCH   3   5
HETATM    5  C   UNL     1      40.219 -15.854  -3.301  1.00  0.00     0.231 C 
HETATM    6  C   UNL     1      38.958 -15.853  -4.144  1.00  0.00     0.034 C 
ENDBRANCH   3   5
BRANCH   3   7
HETATM    7  C   UNL     1      41.368 -13.635  -3.499  1.00  0.00     0.231 C 
HETATM    8  C   UNL     1      42.491 -13.044  -2.666  1.00  0.00     0.034 C 
ENDBRANCH   3   7
ENDBRANCH   2   3
BRANCH   2   9
HETATM    9  C   UNL     1      39.861 -13.955  -0.207  1.00  0.00    -0.023 A 
HETATM   10  C   UNL     1      40.343 -13.277   0.934  1.00  0.00     0.046 A 
HETATM   11  C   UNL     1      39.467 -12.672   1.836  1.00  0.00     0.068 A 
HETATM   12  C   UNL     1      38.095 -12.717   1.590  1.00  0.00     0.037 A 
HETATM   13  C   UNL     1      37.598 -13.390   0.478  1.00  0.00     0.003 A 
HETATM   14  C   UNL     1      38.473 -14.011  -0.413  1.00  0.00     0.009 A 
BRANCH  11  15
HETATM   15  O   UNL     1      39.827 -11.992   2.963  1.00  0.00    -0.356 OA
HETATM   16  C   UNL     1      38.775 -11.512   3.791  1.00  0.00     0.210 C 
ENDBRANCH  11  15
ENDBRANCH   2   9
ENDBRANCH   1   2
BRANCH   1  17
HETATM   17  N   UNL     1      42.098 -16.233   0.441  1.00  0.00    -0.354 N 
HETATM   18  C   UNL     1      41.636 -16.870   1.583  1.00  0.00     0.253 C 
HETATM   19  O   UNL     1      40.458 -16.776   1.905  1.00  0.00    -0.268 OA
HETATM   20  H   UNL     1      43.090 -16.344   0.249  1.00  0.00     0.162 HD
BRANCH  18  21
HETATM   21  C   UNL     1      42.642 -17.670   2.342  1.00  0.00     0.059 A 
HETATM   22  C   UNL     1      43.246 -17.240   3.549  1.00  0.00     0.046 A 
HETATM   23  C   UNL     1      44.041 -18.207   4.204  1.00  0.00     0.031 A 
HETATM   24  C   UNL     1      44.270 -19.491   3.691  1.00  0.00     0.009 A 
HETATM   25  C   UNL     1      43.692 -19.883   2.492  1.00  0.00    -0.061 A 
HETATM   26  C   UNL     1      43.888 -21.273   1.964  1.00  0.00     0.048 C 
HETATM   27  C   UNL     1      42.856 -18.978   1.839  1.00  0.00     0.026 A 
BRANCH  22  28
HETATM   28  N   UNL     1      43.100 -15.981   4.112  1.00  0.00    -0.380 N 
HETATM   29  C   UNL     1      42.053 -15.666   5.083  1.00  0.00     0.123 C 
HETATM   30  C   UNL     1      41.775 -14.176   4.893  1.00  0.00     0.021 C 
HETATM   31  C   UNL     1      43.102 -13.643   4.384  1.00  0.00     0.021 C 
HETATM   32  C   UNL     1      43.543 -14.752   3.437  1.00  0.00     0.123 C 
ENDBRANCH  22  28
ENDBRANCH  18  21
ENDBRANCH   1  17
TORSDOF 9
ENDMDL
MODEL 2
REMARK VINA RESULT:      -7.7      2.241      4.192
REMARK  9 active torsions:
REMARK  status: ('A' for Active; 'I' for Inactive)
REMARK    1  A    between atoms: C_2  and  N_3 
REMARK    2  A    between atoms: N_3  and  C_5 
REMARK    3  A    between atoms: N_3  and  C_30 
REMARK    4  A    between atoms: C_5  and  C_6 
REMARK    5  A    between atoms: C_5  and  C_14 
REMARK    6  A    between atoms: C_8  and  O_9 
REMARK    7  A    between atoms: C_14  and  N_15 
REMARK       I    between atoms: N_15  and  C_16 
REMARK    8  A    between atoms: C_16  and  C_17 
REMARK    9  A    between atoms: C_18  and  N_19 
ROOT
HETATM    1  C   UNL     1      40.417 -16.858   2.026  1.00  0.00     0.161 C 
ENDROOT
BRANCH   1   2
HETATM    2  C   UNL     1      39.802 -15.450   2.343  1.00  0.00     0.238 C 
BRANCH   2   3
HETATM    3  N   UNL     1      40.646 -14.666   3.366  1.00  0.00    -0.062 N 
HETATM    4  H   UNL     1      41.312 -15.404   3.670  1.00  0.00     0.280 HD
BRANCH   3   5
HETATM    5  C   UNL     1      39.878 -14.261   4.611  1.00  0.00     0.231 C 
HETATM    6  C   UNL     1      40.657 -14.552   5.880  1.00  0.00     0.034 C 
ENDBRANCH   3   5
BRANCH   3   7
HETATM    7  C   UNL     1      41.440 -13.518   2.797  1.00  0.00     0.231 C 
HETATM    8  C   UNL     1      42.930 -13.795   2.883  1.00  0.00     0.034 C 
ENDBRANCH   3   7
ENDBRANCH   2   3
BRANCH   2   9
HETATM    9  C   UNL     1      39.440 -14.677   1.083  1.00  0.00    -0.023 A 
HETATM   10  C   UNL     1      40.322 -14.710  -0.019  1.00  0.00     0.046 A 
HETATM   11  C   UNL     1      40.027 -14.023  -1.198  1.00  0.00     0.068 A 
HETATM   12  C   UNL     1      38.830 -13.316  -1.295  1.00  0.00     0.037 A 
HETATM   13  C   UNL     1      37.951 -13.261  -0.215  1.00  0.00     0.003 A 
HETATM   14  C   UNL     1      38.256 -13.932   0.969  1.00  0.00     0.009 A 
BRANCH  11  15
HETATM   15  O   UNL     1      40.806 -13.991  -2.318  1.00  0.00    -0.356 OA
HETATM   16  C   UNL     1      40.170 -14.288  -3.555  1.00  0.00     0.210 C 
ENDBRANCH  11  15
ENDBRANCH   2   9
ENDBRANCH   1   2
BRANCH   1  17
HETATM   17  N   UNL     1      41.754 -17.173   2.543  1.00  0.00    -0.354 N 
HETATM   18  C   UNL     1      41.934 -17.879   3.723  1.00  0.00     0.253 C 
HETATM   19  O   UNL     1      41.130 -17.760   4.639  1.00  0.00    -0.268 OA
HETATM   20  H   UNL     1      42.471 -17.312   1.836  1.00  0.00     0.162 HD
BRANCH  18  21
HETATM   21  C   UNL     1      43.123 -18.781   3.774  1.00  0.00     0.059 A 
HETATM   22  C   UNL     1      44.033 -18.827   4.858  1.00  0.00     0.046 A 
HETATM   23  C   UNL     1      44.993 -19.863   4.796  1.00  0.00     0.031 A 
HETATM   24  C   UNL     1      45.086 -20.762   3.726  1.00  0.00     0.009 A 
HETATM   25  C   UNL     1      44.202 -20.682   2.659  1.00  0.00    -0.061 A 
HETATM   26  C   UNL     1      44.261 -21.676   1.538  1.00  0.00     0.048 C 
HETATM   27  C   UNL     1      43.205 -19.709   2.706  1.00  0.00     0.026 A 
BRANCH  22  28
HETATM   28  N   UNL     1      44.034 -17.959   5.940  1.00  0.00    -0.380 N 
HETATM   29  C   UNL     1      43.529 -18.340   7.258  1.00  0.00     0.123 C 
HETATM   30  C   UNL     1      43.041 -17.034   7.884  1.00  0.00     0.021 C 
HETATM   31  C   UNL     1      43.918 -15.988   7.221  1.00  0.00     0.021 C 
HETATM   32  C   UNL     1      43.984 -16.498   5.786  1.00  0.00     0.123 C 
ENDBRANCH  22  28
ENDBRANCH  18  21
ENDBRANCH   1  17
TORSDOF 9
ENDMDL
MODEL 3
REMARK VINA RESULT:      -7.6      1.801      7.747
REMARK  9 active torsions:
REMARK  status: ('A' for Active; 'I' for Inactive)
REMARK    1  A    between atoms: C_2  and  N_3 
REMARK    2  A    between atoms: N_3  and  C_5 
REMARK    3  A    between atoms: N_3  and  C_30 
REMARK    4  A    between atoms: C_5  and  C_6 
REMARK    5  A    between atoms: C_5  and  C_14 
REMARK    6  A    between atoms: C_8  and  O_9 
REMARK    7  A    between atoms: C_14  and  N_15 
REMARK       I    between atoms: N_15  and  C_16 
REMARK    8  A    between atoms: C_16  and  C_17 
REMARK    9  A    between atoms: C_18  and  N_19 
ROOT
HETATM    1  C   UNL     1      41.157 -16.391   1.486  1.00  0.00     0.161 C 
ENDROOT
BRANCH   1   2
HETATM    2  C   UNL     1      42.514 -16.198   2.250  1.00  0.00     0.238 C 
BRANCH   2   3
HETATM    3  N   UNL     1      42.395 -15.171   3.391  1.00  0.00    -0.062 N 
HETATM    4  H   UNL     1      42.964 -15.635   4.126  1.00  0.00     0.280 HD
BRANCH   3   5
HETATM    5  C   UNL     1      40.995 -15.051   3.963  1.00  0.00     0.231 C 
HETATM    6  C   UNL     1      40.906 -15.611   5.370  1.00  0.00     0.034 C 
ENDBRANCH   3   5
BRANCH   3   7
HETATM    7  C   UNL     1      43.003 -13.821   3.105  1.00  0.00     0.231 C 
HETATM    8  C   UNL     1      41.993 -12.712   3.333  1.00  0.00     0.034 C 
ENDBRANCH   3   7
ENDBRANCH   2   3
BRANCH   2   9
HETATM    9  C   UNL     1      43.152 -17.523   2.642  1.00  0.00    -0.023 A 
HETATM   10  C   UNL     1      43.602 -17.703   3.968  1.00  0.00     0.046 A 
HETATM   11  C   UNL     1      44.186 -18.904   4.373  1.00  0.00     0.068 A 
HETATM   12  C   UNL     1      44.302 -19.950   3.459  1.00  0.00     0.037 A 
HETATM   13  C   UNL     1      43.875 -19.790   2.143  1.00  0.00     0.003 A 
HETATM   14  C   UNL     1      43.309 -18.583   1.734  1.00  0.00     0.009 A 
BRANCH  11  15
HETATM   15  O   UNL     1      44.650 -19.181   5.627  1.00  0.00    -0.356 OA
HETATM   16  C   UNL     1      45.254 -18.111   6.342  1.00  0.00     0.210 C 
ENDBRANCH  11  15
ENDBRANCH   2   9
ENDBRANCH   1   2
BRANCH   1  17
HETATM   17  N   UNL     1      40.975 -15.713   0.197  1.00  0.00    -0.354 N 
HETATM   18  C   UNL     1      40.521 -14.404   0.117  1.00  0.00     0.253 C 
HETATM   19  O   UNL     1      39.730 -13.976   0.950  1.00  0.00    -0.268 OA
HETATM   20  H   UNL     1      41.615 -15.999  -0.538  1.00  0.00     0.162 HD
BRANCH  18  21
HETATM   21  C   UNL     1      41.071 -13.585  -1.003  1.00  0.00     0.059 A 
HETATM   22  C   UNL     1      40.594 -13.646  -2.335  1.00  0.00     0.046 A 
HETATM   23  C   UNL     1      41.125 -12.672  -3.211  1.00  0.00     0.031 A 
HETATM   24  C   UNL     1      42.091 -11.734  -2.824  1.00  0.00     0.009 A 
HETATM   25  C   UNL     1      42.566 -11.709  -1.521  1.00  0.00    -0.061 A 
HETATM   26  C   UNL     1      43.559 -10.673  -1.086  1.00  0.00     0.048 C 
HETATM   27  C   UNL     1      42.029 -12.618  -0.609  1.00  0.00     0.026 A 
BRANCH  22  28
HETATM   28  N   UNL     1      39.665 -14.559  -2.811  1.00  0.00    -0.380 N 
HETATM   29  C   UNL     1      40.048 -15.850  -3.381  1.00  0.00     0.123 C 
HETATM   30  C   UNL     1      38.938 -16.185  -4.377  1.00  0.00     0.021 C 
HETATM   31  C   UNL     1      37.732 -15.470  -3.797  1.00  0.00     0.021 C 
HETATM   32  C   UNL     1      38.344 -14.160  -3.317  1.00  0.00     0.123 C 
ENDBRANCH  22  28
ENDBRANCH  18  21
ENDBRANCH   1  17
TORSDOF 9
ENDMDL
MODEL 4
REMARK VINA RESULT:      -7.6      1.807      7.859
REMARK  9 active torsions:
REMARK  status: ('A' for Active; 'I' for Inactive)
REMARK    1  A    between atoms: C_2  and  N_3 
REMARK    2  A    between atoms: N_3  and  C_5 
REMARK    3  A    between atoms: N_3  and  C_30 
REMARK    4  A    between atoms: C_5  and  C_6 
REMARK    5  A    between atoms: C_5  and  C_14 
REMARK    6  A    between atoms: C_8  and  O_9 
REMARK    7  A    between atoms: C_14  and  N_15 
REMARK       I    between atoms: N_15  and  C_16 
REMARK    8  A    between atoms: C_16  and  C_17 
REMARK    9  A    between atoms: C_18  and  N_19 
ROOT
HETATM    1  C   UNL     1      41.177 -16.267   0.993  1.00  0.00     0.161 C 
ENDROOT
BRANCH   1   2
HETATM    2  C   UNL     1      42.407 -15.985   1.926  1.00  0.00     0.238 C 
BRANCH   2   3
HETATM    3  N   UNL     1      42.121 -14.860   2.938  1.00  0.00    -0.062 N 
HETATM    4  H   UNL     1      42.704 -15.170   3.739  1.00  0.00     0.280 HD
BRANCH   3   5
HETATM    5  C   UNL     1      40.691 -14.843   3.445  1.00  0.00     0.231 C 
HETATM    6  C   UNL     1      40.602 -15.243   4.906  1.00  0.00     0.034 C 
ENDBRANCH   3   5
BRANCH   3   7
HETATM    7  C   UNL     1      42.585 -13.488   2.520  1.00  0.00     0.231 C 
HETATM    8  C   UNL     1      41.474 -12.466   2.683  1.00  0.00     0.034 C 
ENDBRANCH   3   7
ENDBRANCH   2   3
BRANCH   2   9
HETATM    9  C   UNL     1      42.984 -17.258   2.527  1.00  0.00    -0.023 A 
HETATM   10  C   UNL     1      42.998 -18.439   1.752  1.00  0.00     0.046 A 
HETATM   11  C   UNL     1      43.524 -19.627   2.261  1.00  0.00     0.068 A 
HETATM   12  C   UNL     1      44.067 -19.640   3.545  1.00  0.00     0.037 A 
HETATM   13  C   UNL     1      44.053 -18.490   4.330  1.00  0.00     0.003 A 
HETATM   14  C   UNL     1      43.509 -17.308   3.828  1.00  0.00     0.009 A 
BRANCH  11  15
HETATM   15  O   UNL     1      43.589 -20.818   1.597  1.00  0.00    -0.356 OA
HETATM   16  C   UNL     1      44.250 -21.890   2.258  1.00  0.00     0.210 C 
ENDBRANCH  11  15
ENDBRANCH   2   9
ENDBRANCH   1   2
BRANCH   1  17
HETATM   17  N   UNL     1      41.126 -15.610  -0.318  1.00  0.00    -0.354 N 
HETATM   18  C   UNL     1      40.487 -14.393  -0.502  1.00  0.00     0.253 C 
HETATM   19  O   UNL     1      39.499 -14.111   0.166  1.00  0.00    -0.268 OA
HETATM   20  H   UNL     1      41.928 -15.778  -0.920  1.00  0.00     0.162 HD
BRANCH  18  21
HETATM   21  C   UNL     1      41.091 -13.479  -1.516  1.00  0.00     0.059 A 
HETATM   22  C   UNL     1      40.672 -13.411  -2.867  1.00  0.00     0.046 A 
HETATM   23  C   UNL     1      41.248 -12.367  -3.625  1.00  0.00     0.031 A 
HETATM   24  C   UNL     1      42.203 -11.479  -3.112  1.00  0.00     0.009 A 
HETATM   25  C   UNL     1      42.621 -11.581  -1.792  1.00  0.00    -0.061 A 
HETATM   26  C   UNL     1      43.601 -10.600  -1.221  1.00  0.00     0.048 C 
HETATM   27  C   UNL     1      42.038 -12.563  -0.993  1.00  0.00     0.026 A 
BRANCH  22  28
HETATM   28  N   UNL     1      39.758 -14.266  -3.465  1.00  0.00    -0.380 N 
HETATM   29  C   UNL     1      38.318 -14.016  -3.454  1.00  0.00     0.123 C 
HETATM   30  C   UNL     1      37.677 -15.401  -3.522  1.00  0.00     0.021 C 
HETATM   31  C   UNL     1      38.720 -16.224  -4.256  1.00  0.00     0.021 C 
HETATM   32  C   UNL     1      40.016 -15.702  -3.650  1.00  0.00     0.123 C 
ENDBRANCH  22  28
ENDBRANCH  18  21
ENDBRANCH   1  17
TORSDOF 9
ENDMDL
MODEL 5
REMARK VINA RESULT:      -7.5      2.188      4.320
REMARK  9 active torsions:
REMARK  status: ('A' for Active; 'I' for Inactive)
REMARK    1  A    between atoms: C_2  and  N_3 
REMARK    2  A    between atoms: N_3  and  C_5 
REMARK    3  A    between atoms: N_3  and  C_30 
REMARK    4  A    between atoms: C_5  and  C_6 
REMARK    5  A    between atoms: C_5  and  C_14 
REMARK    6  A    between atoms: C_8  and  O_9 
REMARK    7  A    between atoms: C_14  and  N_15 
REMARK       I    between atoms: N_15  and  C_16 
REMARK    8  A    between atoms: C_16  and  C_17 
REMARK    9  A    between atoms: C_18  and  N_19 
ROOT
HETATM    1  C   UNL     1      41.959 -15.521   1.817  1.00  0.00     0.161 C 
ENDROOT
BRANCH   1   2
HETATM    2  C   UNL     1      40.704 -15.183   0.937  1.00  0.00     0.238 C 
BRANCH   2   3
HETATM    3  N   UNL     1      39.664 -14.347   1.707  1.00  0.00    -0.062 N 
HETATM    4  H   UNL     1      39.958 -13.386   1.441  1.00  0.00     0.280 HD
BRANCH   3   5
HETATM    5  C   UNL     1      39.811 -14.426   3.215  1.00  0.00     0.231 C 
HETATM    6  C   UNL     1      39.900 -13.051   3.850  1.00  0.00     0.034 C 
ENDBRANCH   3   5
BRANCH   3   7
HETATM    7  C   UNL     1      38.235 -14.541   1.269  1.00  0.00     0.231 C 
HETATM    8  C   UNL     1      37.649 -13.244   0.740  1.00  0.00     0.034 C 
ENDBRANCH   3   7
ENDBRANCH   2   3
BRANCH   2   9
HETATM    9  C   UNL     1      41.085 -14.635  -0.430  1.00  0.00    -0.023 A 
HETATM   10  C   UNL     1      40.560 -15.249  -1.588  1.00  0.00     0.046 A 
HETATM   11  C   UNL     1      40.877 -14.774  -2.862  1.00  0.00     0.068 A 
HETATM   12  C   UNL     1      41.704 -13.659  -2.989  1.00  0.00     0.037 A 
HETATM   13  C   UNL     1      42.242 -13.046  -1.861  1.00  0.00     0.003 A 
HETATM   14  C   UNL     1      41.941 -13.533  -0.589  1.00  0.00     0.009 A 
BRANCH  11  15
HETATM   15  O   UNL     1      40.422 -15.291  -4.040  1.00  0.00    -0.356 OA
HETATM   16  C   UNL     1      39.265 -16.116  -3.979  1.00  0.00     0.210 C 
ENDBRANCH  11  15
ENDBRANCH   2   9
ENDBRANCH   1   2
BRANCH   1  17
HETATM   17  N   UNL     1      42.391 -16.920   1.916  1.00  0.00    -0.354 N 
HETATM   18  C   UNL     1      43.729 -17.265   2.039  1.00  0.00     0.253 C 
HETATM   19  O   UNL     1      44.592 -16.579   1.505  1.00  0.00    -0.268 OA
HETATM   20  H   UNL     1      41.734 -17.546   2.373  1.00  0.00     0.162 HD
BRANCH  18  21
HETATM   21  C   UNL     1      44.022 -18.474   2.865  1.00  0.00     0.059 A 
HETATM   22  C   UNL     1      43.978 -18.494   4.280  1.00  0.00     0.046 A 
HETATM   23  C   UNL     1      44.119 -19.770   4.870  1.00  0.00     0.031 A 
HETATM   24  C   UNL     1      44.337 -20.940   4.130  1.00  0.00     0.009 A 
HETATM   25  C   UNL     1      44.406 -20.894   2.745  1.00  0.00    -0.061 A 
HETATM   26  C   UNL     1      44.584 -22.150   1.944  1.00  0.00     0.048 C 
HETATM   27  C   UNL     1      44.218 -19.663   2.118  1.00  0.00     0.026 A 
BRANCH  22  28
HETATM   28  N   UNL     1      43.799 -17.383   5.090  1.00  0.00    -0.380 N 
HETATM   29  C   UNL     1      44.701 -17.057   6.194  1.00  0.00     0.123 C 
HETATM   30  C   UNL     1      43.834 -16.301   7.200  1.00  0.00     0.021 C 
HETATM   31  C   UNL     1      42.773 -15.661   6.324  1.00  0.00     0.021 C 
HETATM   32  C   UNL     1      42.482 -16.771   5.322  1.00  0.00     0.123 C 
ENDBRANCH  22  28
ENDBRANCH  18  21
ENDBRANCH   1  17
TORSDOF 9
ENDMDL
MODEL 6
REMARK VINA RESULT:      -7.5      2.161      7.393
REMARK  9 active torsions:
REMARK  status: ('A' for Active; 'I' for Inactive)
REMARK    1  A    between atoms: C_2  and  N_3 
REMARK    2  A    between atoms: N_3  and  C_5 
REMARK    3  A    between atoms: N_3  and  C_30 
REMARK    4  A    between atoms: C_5  and  C_6 
REMARK    5  A    between atoms: C_5  and  C_14 
REMARK    6  A    between atoms: C_8  and  O_9 
REMARK    7  A    between atoms: C_14  and  N_15 
REMARK       I    between atoms: N_15  and  C_16 
REMARK    8  A    between atoms: C_16  and  C_17 
REMARK    9  A    between atoms: C_18  and  N_19 
ROOT
HETATM    1  C   UNL     1      41.112 -17.008   3.038  1.00  0.00     0.161 C 
ENDROOT
BRANCH   1   2
HETATM    2  C   UNL     1      42.514 -17.202   3.716  1.00  0.00     0.238 C 
BRANCH   2   3
HETATM    3  N   UNL     1      42.470 -16.919   5.230  1.00  0.00    -0.062 N 
HETATM    4  H   UNL     1      42.919 -17.780   5.599  1.00  0.00     0.280 HD
BRANCH   3   5
HETATM    5  C   UNL     1      41.067 -16.900   5.808  1.00  0.00     0.231 C 
HETATM    6  C   UNL     1      40.596 -15.491   6.111  1.00  0.00     0.034 C 
ENDBRANCH   3   5
BRANCH   3   7
HETATM    7  C   UNL     1      43.281 -15.732   5.683  1.00  0.00     0.231 C 
HETATM    8  C   UNL     1      44.256 -16.128   6.777  1.00  0.00     0.034 C 
ENDBRANCH   3   7
ENDBRANCH   2   3
BRANCH   2   9
HETATM    9  C   UNL     1      43.168 -18.520   3.328  1.00  0.00    -0.023 A 
HETATM   10  C   UNL     1      44.027 -19.158   4.250  1.00  0.00     0.046 A 
HETATM   11  C   UNL     1      44.642 -20.372   3.939  1.00  0.00     0.068 A 
HETATM   12  C   UNL     1      44.382 -20.974   2.709  1.00  0.00     0.037 A 
HETATM   13  C   UNL     1      43.548 -20.357   1.781  1.00  0.00     0.003 A 
HETATM   14  C   UNL     1      42.949 -19.134   2.085  1.00  0.00     0.009 A 
BRANCH  11  15
HETATM   15  O   UNL     1      45.484 -21.070   4.755  1.00  0.00    -0.356 OA
HETATM   16  C   UNL     1      45.074 -22.377   5.138  1.00  0.00     0.210 C 
ENDBRANCH  11  15
ENDBRANCH   2   9
ENDBRANCH   1   2
BRANCH   1  17
HETATM   17  N   UNL     1      41.059 -16.447   1.683  1.00  0.00    -0.354 N 
HETATM   18  C   UNL     1      40.298 -15.326   1.385  1.00  0.00     0.253 C 
HETATM   19  O   UNL     1      39.249 -15.120   1.983  1.00  0.00    -0.268 OA
HETATM   20  H   UNL     1      41.908 -16.558   1.135  1.00  0.00     0.162 HD
BRANCH  18  21
HETATM   21  C   UNL     1      40.850 -14.415   0.340  1.00  0.00     0.059 A 
HETATM   22  C   UNL     1      41.544 -13.213   0.625  1.00  0.00     0.046 A 
HETATM   23  C   UNL     1      42.136 -12.579  -0.490  1.00  0.00     0.031 A 
HETATM   24  C   UNL     1      42.018 -13.060  -1.800  1.00  0.00     0.009 A 
HETATM   25  C   UNL     1      41.310 -14.224  -2.063  1.00  0.00    -0.061 A 
HETATM   26  C   UNL     1      41.227 -14.774  -3.456  1.00  0.00     0.048 C 
HETATM   27  C   UNL     1      40.755 -14.911  -0.984  1.00  0.00     0.026 A 
BRANCH  22  28
HETATM   28  N   UNL     1      41.681 -12.649   1.885  1.00  0.00    -0.380 N 
HETATM   29  C   UNL     1      42.593 -13.186   2.895  1.00  0.00     0.123 C 
HETATM   30  C   UNL     1      41.960 -12.813   4.235  1.00  0.00     0.021 C 
HETATM   31  C   UNL     1      41.184 -11.550   3.906  1.00  0.00     0.021 C 
HETATM   32  C   UNL     1      40.608 -11.883   2.535  1.00  0.00     0.123 C 
ENDBRANCH  22  28
ENDBRANCH  18  21
ENDBRANCH   1  17
TORSDOF 9
ENDMDL
MODEL 7
REMARK VINA RESULT:      -7.5      1.790      3.312
REMARK  9 active torsions:
REMARK  status: ('A' for Active; 'I' for Inactive)
REMARK    1  A    between atoms: C_2  and  N_3 
REMARK    2  A    between atoms: N_3  and  C_5 
REMARK    3  A    between atoms: N_3  and  C_30 
REMARK    4  A    between atoms: C_5  and  C_6 
REMARK    5  A    between atoms: C_5  and  C_14 
REMARK    6  A    between atoms: C_8  and  O_9 
REMARK    7  A    between atoms: C_14  and  N_15 
REMARK       I    between atoms: N_15  and  C_16 
REMARK    8  A    between atoms: C_16  and  C_17 
REMARK    9  A    between atoms: C_18  and  N_19 
ROOT
HETATM    1  C   UNL     1      41.435 -16.196  -0.914  1.00  0.00     0.161 C 
ENDROOT
BRANCH   1   2
HETATM    2  C   UNL     1      40.909 -14.770  -1.303  1.00  0.00     0.238 C 
BRANCH   2   3
HETATM    3  N   UNL     1      42.059 -13.796  -1.624  1.00  0.00    -0.062 N 
HETATM    4  H   UNL     1      42.875 -14.349  -1.299  1.00  0.00     0.280 HD
BRANCH   3   5
HETATM    5  C   UNL     1      42.046 -12.535  -0.779  1.00  0.00     0.231 C 
HETATM    6  C   UNL     1      41.651 -12.819   0.658  1.00  0.00     0.034 C 
ENDBRANCH   3   5
BRANCH   3   7
HETATM    7  C   UNL     1      42.249 -13.489  -3.088  1.00  0.00     0.231 C 
HETATM    8  C   UNL     1      42.139 -11.998  -3.348  1.00  0.00     0.034 C 
ENDBRANCH   3   7
ENDBRANCH   2   3
BRANCH   2   9
HETATM    9  C   UNL     1      39.803 -14.824  -2.347  1.00  0.00    -0.023 A 
HETATM   10  C   UNL     1      38.813 -13.818  -2.352  1.00  0.00     0.046 A 
HETATM   11  C   UNL     1      37.785 -13.824  -3.296  1.00  0.00     0.068 A 
HETATM   12  C   UNL     1      37.752 -14.827  -4.264  1.00  0.00     0.037 A 
HETATM   13  C   UNL     1      38.712 -15.836  -4.270  1.00  0.00     0.003 A 
HETATM   14  C   UNL     1      39.728 -15.840  -3.314  1.00  0.00     0.009 A 
BRANCH  11  15
HETATM   15  O   UNL     1      36.784 -12.901  -3.390  1.00  0.00    -0.356 OA
HETATM   16  C   UNL     1      36.119 -12.797  -4.643  1.00  0.00     0.210 C 
ENDBRANCH  11  15
ENDBRANCH   2   9
ENDBRANCH   1   2
BRANCH   1  17
HETATM   17  N   UNL     1      42.221 -16.342   0.317  1.00  0.00    -0.354 N 
HETATM   18  C   UNL     1      41.716 -16.993   1.433  1.00  0.00     0.253 C 
HETATM   19  O   UNL     1      40.518 -16.943   1.684  1.00  0.00    -0.268 OA
HETATM   20  H   UNL     1      43.226 -16.417   0.184  1.00  0.00     0.162 HD
BRANCH  18  21
HETATM   21  C   UNL     1      42.705 -17.752   2.255  1.00  0.00     0.059 A 
HETATM   22  C   UNL     1      43.265 -17.269   3.462  1.00  0.00     0.046 A 
HETATM   23  C   UNL     1      44.049 -18.201   4.180  1.00  0.00     0.031 A 
HETATM   24  C   UNL     1      44.306 -19.501   3.725  1.00  0.00     0.009 A 
HETATM   25  C   UNL     1      43.770 -19.946   2.524  1.00  0.00    -0.061 A 
HETATM   26  C   UNL     1      43.997 -21.354   2.059  1.00  0.00     0.048 C 
HETATM   27  C   UNL     1      42.947 -19.076   1.810  1.00  0.00     0.026 A 
BRANCH  22  28
HETATM   28  N   UNL     1      43.090 -15.990   3.970  1.00  0.00    -0.380 N 
HETATM   29  C   UNL     1      41.956 -15.626   4.818  1.00  0.00     0.123 C 
HETATM   30  C   UNL     1      41.731 -14.137   4.558  1.00  0.00     0.021 C 
HETATM   31  C   UNL     1      43.114 -13.646   4.173  1.00  0.00     0.021 C 
HETATM   32  C   UNL     1      43.626 -14.792   3.309  1.00  0.00     0.123 C 
ENDBRANCH  22  28
ENDBRANCH  18  21
ENDBRANCH   1  17
TORSDOF 9
ENDMDL
MODEL 8
REMARK VINA RESULT:      -7.5      2.526      4.095
REMARK  9 active torsions:
REMARK  status: ('A' for Active; 'I' for Inactive)
REMARK    1  A    between atoms: C_2  and  N_3 
REMARK    2  A    between atoms: N_3  and  C_5 
REMARK    3  A    between atoms: N_3  and  C_30 
REMARK    4  A    between atoms: C_5  and  C_6 
REMARK    5  A    between atoms: C_5  and  C_14 
REMARK    6  A    between atoms: C_8  and  O_9 
REMARK    7  A    between atoms: C_14  and  N_15 
REMARK       I    between atoms: N_15  and  C_16 
REMARK    8  A    between atoms: C_16  and  C_17 
REMARK    9  A    between atoms: C_18  and  N_19 
ROOT
HETATM    1  C   UNL     1      42.542 -15.483   1.473  1.00  0.00     0.161 C 
ENDROOT
BRANCH   1   2
HETATM    2  C   UNL     1      42.152 -14.027   1.910  1.00  0.00     0.238 C 
BRANCH   2   3
HETATM    3  N   UNL     1      40.794 -13.591   1.328  1.00  0.00    -0.062 N 
HETATM    4  H   UNL     1      40.324 -13.238   2.184  1.00  0.00     0.280 HD
BRANCH   3   5
HETATM    5  C   UNL     1      39.943 -14.745   0.831  1.00  0.00     0.231 C 
HETATM    6  C   UNL     1      38.814 -15.073   1.790  1.00  0.00     0.034 C 
ENDBRANCH   3   5
BRANCH   3   7
HETATM    7  C   UNL     1      40.858 -12.466   0.325  1.00  0.00     0.231 C 
HETATM    8  C   UNL     1      42.283 -11.973   0.155  1.00  0.00     0.034 C 
ENDBRANCH   3   7
ENDBRANCH   2   3
BRANCH   2   9
HETATM    9  C   UNL     1      42.308 -13.809   3.408  1.00  0.00    -0.023 A 
HETATM   10  C   UNL     1      43.581 -13.972   3.997  1.00  0.00     0.046 A 
HETATM   11  C   UNL     1      43.771 -13.775   5.365  1.00  0.00     0.068 A 
HETATM   12  C   UNL     1      42.692 -13.386   6.156  1.00  0.00     0.037 A 
HETATM   13  C   UNL     1      41.426 -13.231   5.598  1.00  0.00     0.003 A 
HETATM   14  C   UNL     1      41.232 -13.447   4.234  1.00  0.00     0.009 A 
BRANCH  11  15
HETATM   15  O   UNL     1      44.956 -13.903   6.032  1.00  0.00    -0.356 OA
HETATM   16  C   UNL     1      44.936 -13.670   7.434  1.00  0.00     0.210 C 
ENDBRANCH  11  15
ENDBRANCH   2   9
ENDBRANCH   1   2
BRANCH   1  17
HETATM   17  N   UNL     1      43.077 -16.400   2.487  1.00  0.00    -0.354 N 
HETATM   18  C   UNL     1      42.414 -17.566   2.840  1.00  0.00     0.253 C 
HETATM   19  O   UNL     1      41.190 -17.608   2.818  1.00  0.00    -0.268 OA
HETATM   20  H   UNL     1      44.091 -16.438   2.546  1.00  0.00     0.162 HD
BRANCH  18  21
HETATM   21  C   UNL     1      43.277 -18.727   3.209  1.00  0.00     0.059 A 
HETATM   22  C   UNL     1      43.801 -18.942   4.507  1.00  0.00     0.046 A 
HETATM   23  C   UNL     1      44.450 -20.182   4.698  1.00  0.00     0.031 A 
HETATM   24  C   UNL     1      44.619 -21.128   3.677  1.00  0.00     0.009 A 
HETATM   25  C   UNL     1      44.123 -20.885   2.404  1.00  0.00    -0.061 A 
HETATM   26  C   UNL     1      44.251 -21.916   1.322  1.00  0.00     0.048 C 
HETATM   27  C   UNL     1      43.427 -19.697   2.186  1.00  0.00     0.026 A 
BRANCH  22  28
HETATM   28  N   UNL     1      43.708 -18.049   5.565  1.00  0.00    -0.380 N 
HETATM   29  C   UNL     1      44.823 -17.783   6.472  1.00  0.00     0.123 C 
HETATM   30  C   UNL     1      44.167 -17.390   7.796  1.00  0.00     0.021 C 
HETATM   31  C   UNL     1      42.843 -16.793   7.356  1.00  0.00     0.021 C 
HETATM   32  C   UNL     1      42.435 -17.730   6.226  1.00  0.00     0.123 C 
ENDBRANCH  22  28
ENDBRANCH  18  21
ENDBRANCH   1  17
TORSDOF 9
ENDMDL
MODEL 9
REMARK VINA RESULT:      -7.4      1.609      2.836
REMARK  9 active torsions:
REMARK  status: ('A' for Active; 'I' for Inactive)
REMARK    1  A    between atoms: C_2  and  N_3 
REMARK    2  A    between atoms: N_3  and  C_5 
REMARK    3  A    between atoms: N_3  and  C_30 
REMARK    4  A    between atoms: C_5  and  C_6 
REMARK    5  A    between atoms: C_5  and  C_14 
REMARK    6  A    between atoms: C_8  and  O_9 
REMARK    7  A    between atoms: C_14  and  N_15 
REMARK       I    between atoms: N_15  and  C_16 
REMARK    8  A    between atoms: C_16  and  C_17 
REMARK    9  A    between atoms: C_18  and  N_19 
ROOT
HETATM    1  C   UNL     1      39.439 -15.436   2.068  1.00  0.00     0.161 C 
ENDROOT
BRANCH   1   2
HETATM    2  C   UNL     1      40.233 -14.151   1.643  1.00  0.00     0.238 C 
BRANCH   2   3
HETATM    3  N   UNL     1      39.805 -13.638   0.255  1.00  0.00    -0.062 N 
HETATM    4  H   UNL     1      39.821 -12.612   0.417  1.00  0.00     0.280 HD
BRANCH   3   5
HETATM    5  C   UNL     1      38.371 -13.979  -0.108  1.00  0.00     0.231 C 
HETATM    6  C   UNL     1      37.399 -12.907   0.348  1.00  0.00     0.034 C 
ENDBRANCH   3   5
BRANCH   3   7
HETATM    7  C   UNL     1      40.760 -13.954  -0.868  1.00  0.00     0.231 C 
HETATM    8  C   UNL     1      40.016 -14.496  -2.075  1.00  0.00     0.034 C 
ENDBRANCH   3   7
ENDBRANCH   2   3
BRANCH   2   9
HETATM    9  C   UNL     1      40.258 -13.095   2.739  1.00  0.00    -0.023 A 
HETATM   10  C   UNL     1      39.443 -13.269   3.879  1.00  0.00     0.046 A 
HETATM   11  C   UNL     1      39.441 -12.330   4.911  1.00  0.00     0.068 A 
HETATM   12  C   UNL     1      40.276 -11.217   4.825  1.00  0.00     0.037 A 
HETATM   13  C   UNL     1      41.079 -11.020   3.704  1.00  0.00     0.003 A 
HETATM   14  C   UNL     1      41.066 -11.949   2.664  1.00  0.00     0.009 A 
BRANCH  11  15
HETATM   15  O   UNL     1      38.697 -12.404   6.053  1.00  0.00    -0.356 OA
HETATM   16  C   UNL     1      39.391 -12.257   7.286  1.00  0.00     0.210 C 
ENDBRANCH  11  15
ENDBRANCH   2   9
ENDBRANCH   1   2
BRANCH   1  17
HETATM   17  N   UNL     1      40.191 -16.662   2.360  1.00  0.00    -0.354 N 
HETATM   18  C   UNL     1      41.206 -17.112   1.528  1.00  0.00     0.253 C 
HETATM   19  O   UNL     1      41.143 -16.916   0.320  1.00  0.00    -0.268 OA
HETATM   20  H   UNL     1      40.308 -16.875   3.347  1.00  0.00     0.162 HD
BRANCH  18  21
HETATM   21  C   UNL     1      42.349 -17.800   2.198  1.00  0.00     0.059 A 
HETATM   22  C   UNL     1      43.061 -17.262   3.298  1.00  0.00     0.046 A 
HETATM   23  C   UNL     1      43.994 -18.137   3.899  1.00  0.00     0.031 A 
HETATM   24  C   UNL     1      44.248 -19.432   3.428  1.00  0.00     0.009 A 
HETATM   25  C   UNL     1      43.560 -19.930   2.331  1.00  0.00    -0.061 A 
HETATM   26  C   UNL     1      43.788 -21.334   1.856  1.00  0.00     0.048 C 
HETATM   27  C   UNL     1      42.591 -19.120   1.741  1.00  0.00     0.026 A 
BRANCH  22  28
HETATM   28  N   UNL     1      42.896 -15.983   3.808  1.00  0.00    -0.380 N 
HETATM   29  C   UNL     1      43.499 -14.803   3.190  1.00  0.00     0.123 C 
HETATM   30  C   UNL     1      43.708 -13.819   4.341  1.00  0.00     0.021 C 
HETATM   31  C   UNL     1      42.613 -14.202   5.320  1.00  0.00     0.021 C 
HETATM   32  C   UNL     1      42.628 -15.723   5.230  1.00  0.00     0.123 C 
ENDBRANCH  22  28
ENDBRANCH  18  21
ENDBRANCH   1  17
TORSDOF 9
ENDMDL
MODEL 10
REMARK VINA RESULT:      -7.4      1.971      7.048
REMARK  9 active torsions:
REMARK  status: ('A' for Active; 'I' for Inactive)
REMARK    1  A    between atoms: C_2  and  N_3 
REMARK    2  A    between atoms: N_3  and  C_5 
REMARK    3  A    between atoms: N_3  and  C_30 
REMARK    4  A    between atoms: C_5  and  C_6 
REMARK    5  A    between atoms: C_5  and  C_14 
REMARK    6  A    between atoms: C_8  and  O_9 
REMARK    7  A    between atoms: C_14  and  N_15 
REMARK       I    between atoms: N_15  and  C_16 
REMARK    8  A    between atoms: C_16  and  C_17 
REMARK    9  A    between atoms: C_18  and  N_19 
ROOT
HETATM    1  C   UNL     1      43.860 -17.774   1.942  1.00  0.00     0.161 C 
ENDROOT
BRANCH   1   2
HETATM    2  C   UNL     1      43.105 -18.544   3.082  1.00  0.00     0.238 C 
BRANCH   2   3
HETATM    3  N   UNL     1      43.855 -19.818   3.516  1.00  0.00    -0.062 N 
HETATM    4  H   UNL     1      43.058 -20.421   3.799  1.00  0.00     0.280 HD
BRANCH   3   5
HETATM    5  C   UNL     1      44.703 -19.635   4.761  1.00  0.00     0.231 C 
HETATM    6  C   UNL     1      44.261 -20.549   5.888  1.00  0.00     0.034 C 
ENDBRANCH   3   5
BRANCH   3   7
HETATM    7  C   UNL     1      44.612 -20.521   2.418  1.00  0.00     0.231 C 
HETATM    8  C   UNL     1      43.798 -21.667   1.846  1.00  0.00     0.034 C 
ENDBRANCH   3   7
ENDBRANCH   2   3
BRANCH   2   9
HETATM    9  C   UNL     1      42.685 -17.626   4.222  1.00  0.00    -0.023 A 
HETATM   10  C   UNL     1      43.499 -16.520   4.548  1.00  0.00     0.046 A 
HETATM   11  C   UNL     1      43.148 -15.648   5.580  1.00  0.00     0.068 A 
HETATM   12  C   UNL     1      41.962 -15.861   6.281  1.00  0.00     0.037 A 
HETATM   13  C   UNL     1      41.152 -16.953   5.984  1.00  0.00     0.003 A 
HETATM   14  C   UNL     1      41.512 -17.835   4.965  1.00  0.00     0.009 A 
BRANCH  11  15
HETATM   15  O   UNL     1      43.860 -14.551   5.973  1.00  0.00    -0.356 OA
HETATM   16  C   UNL     1      44.453 -14.596   7.265  1.00  0.00     0.210 C 
ENDBRANCH  11  15
ENDBRANCH   2   9
ENDBRANCH   1   2
BRANCH   1  17
HETATM   17  N   UNL     1      43.303 -16.502   1.467  1.00  0.00    -0.354 N 
HETATM   18  C   UNL     1      41.987 -16.393   1.041  1.00  0.00     0.253 C 
HETATM   19  O   UNL     1      41.440 -17.341   0.490  1.00  0.00    -0.268 OA
HETATM   20  H   UNL     1      43.692 -15.669   1.901  1.00  0.00     0.162 HD
BRANCH  18  21
HETATM   21  C   UNL     1      41.310 -15.092   1.320  1.00  0.00     0.059 A 
HETATM   22  C   UNL     1      40.973 -14.146   0.322  1.00  0.00     0.046 A 
HETATM   23  C   UNL     1      40.187 -13.058   0.762  1.00  0.00     0.031 A 
HETATM   24  C   UNL     1      39.796 -12.881   2.096  1.00  0.00     0.009 A 
HETATM   25  C   UNL     1      40.161 -13.805   3.065  1.00  0.00    -0.061 A 
HETATM   26  C   UNL     1      39.700 -13.651   4.484  1.00  0.00     0.048 C 
HETATM   27  C   UNL     1      40.892 -14.923   2.664  1.00  0.00     0.026 A 
BRANCH  22  28
HETATM   28  N   UNL     1      41.344 -14.226  -1.013  1.00  0.00    -0.380 N 
HETATM   29  C   UNL     1      42.163 -13.206  -1.667  1.00  0.00     0.123 C 
HETATM   30  C   UNL     1      41.748 -13.251  -3.137  1.00  0.00     0.021 C 
HETATM   31  C   UNL     1      41.295 -14.688  -3.320  1.00  0.00     0.021 C 
HETATM   32  C   UNL     1      40.552 -14.952  -2.016  1.00  0.00     0.123 C 
ENDBRANCH  22  28
ENDBRANCH  18  21
ENDBRANCH   1  17
TORSDOF 9
ENDMDL
