MODEL 1
REMARK VINA RESULT:      -8.4      0.000      0.000
REMARK  6 active torsions:
REMARK  status: ('A' for Active; 'I' for Inactive)
REMARK    1  A    between atoms: O_2  and  C_3 
REMARK    2  A    between atoms: C_3  and  C_4 
REMARK    3  A    between atoms: C_4  and  N_5 
REMARK       I    between atoms: N_5  and  C_6 
REMARK    4  A    between atoms: C_6  and  C_7 
REMARK    5  A    between atoms: C_12  and  C_13 
REMARK    6  A    between atoms: C_22  and  C_23 
ROOT
HETATM    1  C   UNL     1      40.772 -13.891   4.925  1.00  0.00     0.148 C 
HETATM    2  N   UNL     1      40.098 -14.474   3.904  1.00  0.00    -0.165 NA
HETATM    3  N   UNL     1      41.047 -15.193   3.282  1.00  0.00    -0.240 N 
HETATM    4  C   UNL     1      42.243 -15.223   3.937  1.00  0.00     0.123 C 
HETATM    5  N   UNL     1      43.233 -16.049   3.542  1.00  0.00    -0.366 N 
HETATM    6  C   UNL     1      43.011 -17.145   2.599  1.00  0.00     0.118 C 
HETATM    7  C   UNL     1      41.514 -17.339   2.264  1.00  0.00     0.066 C 
HETATM    8  C   UNL     1      40.769 -16.006   2.116  1.00  0.00     0.221 C 
HETATM    9  C   UNL     1      42.132 -14.316   4.955  1.00  0.00     0.088 C 
HETATM   10  H   UNL     1      44.132 -16.055   4.023  1.00  0.00     0.161 HD
ENDROOT
BRANCH   1  11
HETATM   11  C   UNL     1      40.117 -13.000   5.894  1.00  0.00     0.272 C 
HETATM   12  N   UNL     1      41.005 -12.265   6.652  1.00  0.00    -0.354 N 
HETATM   13  H   UNL     1      41.970 -12.302   6.330  1.00  0.00     0.162 HD
HETATM   14  O   UNL     1      38.899 -12.884   5.976  1.00  0.00    -0.266 OA
BRANCH  12  15
HETATM   15  C   UNL     1      40.566 -11.113   7.408  1.00  0.00     0.149 C 
BRANCH  15  16
HETATM   16  C   UNL     1      41.656 -10.051   7.510  1.00  0.00     0.186 C 
BRANCH  16  17
HETATM   17  O   UNL     1      42.778 -10.606   8.206  1.00  0.00    -0.394 OA
HETATM   18  C   UNL     1      42.614 -10.524   9.616  1.00  0.00     0.201 C 
ENDBRANCH  16  17
ENDBRANCH  15  16
ENDBRANCH  12  15
ENDBRANCH   1  11
BRANCH   8  19
HETATM   19  C   UNL     1      41.146 -15.259   0.857  1.00  0.00     0.409 C 
HETATM   20  F   UNL     1      40.096 -14.618   0.300  1.00  0.00    -0.169 F 
HETATM   21  F   UNL     1      42.132 -14.356   1.038  1.00  0.00    -0.169 F 
HETATM   22  F   UNL     1      41.599 -16.139  -0.075  1.00  0.00    -0.169 F 
ENDBRANCH   8  19
BRANCH   6  23
HETATM   23  C   UNL     1      43.596 -18.421   3.190  1.00  0.00    -0.034 A 
HETATM   24  C   UNL     1      43.820 -19.546   2.381  1.00  0.00     0.034 A 
HETATM   25  C   UNL     1      44.356 -20.721   2.925  1.00  0.00     0.056 A 
HETATM   26 CL   UNL     1      44.602 -22.056   1.857  1.00  0.00    -0.083 Cl
HETATM   27  C   UNL     1      44.672 -20.784   4.286  1.00  0.00     0.055 A 
HETATM   28 CL   UNL     1      45.331 -22.200   5.023  1.00  0.00    -0.083 Cl
HETATM   29  C   UNL     1      44.455 -19.670   5.099  1.00  0.00     0.026 A 
HETATM   30  C   UNL     1      43.924 -18.499   4.555  1.00  0.00     0.011 A 
ENDBRANCH   6  23
TORSDOF 6
ENDMDL
MODEL 2
REMARK VINA RESULT:      -8.3      3.647      6.324
REMARK  6 active torsions:
REMARK  status: ('A' for Active; 'I' for Inactive)
REMARK    1  A    between atoms: O_2  and  C_3 
REMARK    2  A    between atoms: C_3  and  C_4 
REMARK    3  A    between atoms: C_4  and  N_5 
REMARK       I    between atoms: N_5  and  C_6 
REMARK    4  A    between atoms: C_6  and  C_7 
REMARK    5  A    between atoms: C_12  and  C_13 
REMARK    6  A    between atoms: C_22  and  C_23 
ROOT
HETATM    1  C   UNL     1      41.415 -15.176   0.357  1.00  0.00     0.148 C 
HETATM    2  N   UNL     1      42.080 -14.436   1.278  1.00  0.00    -0.165 NA
HETATM    3  N   UNL     1      41.995 -15.185   2.390  1.00  0.00    -0.240 N 
HETATM    4  C   UNL     1      41.453 -16.421   2.191  1.00  0.00     0.123 C 
HETATM    5  N   UNL     1      41.471 -17.355   3.163  1.00  0.00    -0.366 N 
HETATM    6  C   UNL     1      42.301 -17.224   4.361  1.00  0.00     0.118 C 
HETATM    7  C   UNL     1      43.253 -16.008   4.288  1.00  0.00     0.066 C 
HETATM    8  C   UNL     1      42.590 -14.782   3.648  1.00  0.00     0.221 C 
HETATM    9  C   UNL     1      40.979 -16.416   0.907  1.00  0.00     0.088 C 
HETATM   10  H   UNL     1      41.048 -18.271   3.016  1.00  0.00     0.161 HD
ENDROOT
BRANCH   1  11
HETATM   11  C   UNL     1      41.257 -14.740  -1.038  1.00  0.00     0.272 C 
HETATM   12  N   UNL     1      40.390 -15.528  -1.766  1.00  0.00    -0.354 N 
HETATM   13  H   UNL     1      39.849 -16.188  -1.211  1.00  0.00     0.162 HD
HETATM   14  O   UNL     1      41.802 -13.737  -1.490  1.00  0.00    -0.266 OA
BRANCH  12  15
HETATM   15  C   UNL     1      39.854 -15.077  -3.031  1.00  0.00     0.149 C 
BRANCH  15  16
HETATM   16  C   UNL     1      39.358 -16.241  -3.885  1.00  0.00     0.186 C 
BRANCH  16  17
HETATM   17  O   UNL     1      38.143 -15.851  -4.535  1.00  0.00    -0.394 OA
HETATM   18  C   UNL     1      37.341 -15.028  -3.698  1.00  0.00     0.201 C 
ENDBRANCH  16  17
ENDBRANCH  15  16
ENDBRANCH  12  15
ENDBRANCH   1  11
BRANCH   8  19
HETATM   19  C   UNL     1      41.546 -14.147   4.538  1.00  0.00     0.409 C 
HETATM   20  F   UNL     1      41.526 -12.801   4.435  1.00  0.00    -0.169 F 
HETATM   21  F   UNL     1      40.295 -14.598   4.312  1.00  0.00    -0.169 F 
HETATM   22  F   UNL     1      41.825 -14.430   5.838  1.00  0.00    -0.169 F 
ENDBRANCH   8  19
BRANCH   6  23
HETATM   23  C   UNL     1      43.091 -18.512   4.548  1.00  0.00    -0.034 A 
HETATM   24  C   UNL     1      43.533 -19.246   3.437  1.00  0.00     0.034 A 
HETATM   25  C   UNL     1      44.258 -20.433   3.607  1.00  0.00     0.056 A 
HETATM   26 CL   UNL     1      44.766 -21.272   2.185  1.00  0.00    -0.083 Cl
HETATM   27  C   UNL     1      44.547 -20.900   4.894  1.00  0.00     0.055 A 
HETATM   28 CL   UNL     1      45.432 -22.356   5.178  1.00  0.00    -0.083 Cl
HETATM   29  C   UNL     1      44.113 -20.177   6.006  1.00  0.00     0.026 A 
HETATM   30  C   UNL     1      43.393 -18.993   5.835  1.00  0.00     0.011 A 
ENDBRANCH   6  23
TORSDOF 6
ENDMDL
MODEL 3
REMARK VINA RESULT:      -8.0      3.524      5.773
REMARK  6 active torsions:
REMARK  status: ('A' for Active; 'I' for Inactive)
REMARK    1  A    between atoms: O_2  and  C_3 
REMARK    2  A    between atoms: C_3  and  C_4 
REMARK    3  A    between atoms: C_4  and  N_5 
REMARK       I    between atoms: N_5  and  C_6 
REMARK    4  A    between atoms: C_6  and  C_7 
REMARK    5  A    between atoms: C_12  and  C_13 
REMARK    6  A    between atoms: C_22  and  C_23 
ROOT
HETATM    1  C   UNL     1      39.473 -14.454   1.398  1.00  0.00     0.148 C 
HETATM    2  N   UNL     1      40.680 -13.855   1.538  1.00  0.00    -0.165 NA
HETATM    3  N   UNL     1      41.317 -14.650   2.414  1.00  0.00    -0.240 N 
HETATM    4  C   UNL     1      40.644 -15.798   2.716  1.00  0.00     0.123 C 
HETATM    5  N   UNL     1      41.230 -16.782   3.429  1.00  0.00    -0.366 N 
HETATM    6  C   UNL     1      42.671 -16.821   3.675  1.00  0.00     0.118 C 
HETATM    7  C   UNL     1      43.432 -15.727   2.890  1.00  0.00     0.066 C 
HETATM    8  C   UNL     1      42.672 -14.394   2.856  1.00  0.00     0.221 C 
HETATM    9  C   UNL     1      39.405 -15.662   2.152  1.00  0.00     0.088 C 
HETATM   10  H   UNL     1      40.717 -17.630   3.669  1.00  0.00     0.161 HD
ENDROOT
BRANCH   1  11
HETATM   11  C   UNL     1      38.427 -13.923   0.511  1.00  0.00     0.272 C 
HETATM   12  N   UNL     1      38.921 -13.377  -0.655  1.00  0.00    -0.354 N 
HETATM   13  H   UNL     1      39.906 -13.566  -0.829  1.00  0.00     0.162 HD
HETATM   14  O   UNL     1      37.230 -14.011   0.764  1.00  0.00    -0.266 OA
BRANCH  12  15
HETATM   15  C   UNL     1      38.053 -13.112  -1.781  1.00  0.00     0.149 C 
BRANCH  15  16
HETATM   16  C   UNL     1      37.871 -14.345  -2.662  1.00  0.00     0.186 C 
BRANCH  16  17
HETATM   17  O   UNL     1      38.905 -14.361  -3.653  1.00  0.00    -0.394 OA
HETATM   18  C   UNL     1      39.723 -15.518  -3.539  1.00  0.00     0.201 C 
ENDBRANCH  16  17
ENDBRANCH  15  16
ENDBRANCH  12  15
ENDBRANCH   1  11
BRANCH   8  19
HETATM   19  C   UNL     1      42.660 -13.690   4.193  1.00  0.00     0.409 C 
HETATM   20  F   UNL     1      42.552 -12.350   4.072  1.00  0.00    -0.169 F 
HETATM   21  F   UNL     1      41.680 -14.112   5.018  1.00  0.00    -0.169 F 
HETATM   22  F   UNL     1      43.833 -13.925   4.840  1.00  0.00    -0.169 F 
ENDBRANCH   8  19
BRANCH   6  23
HETATM   23  C   UNL     1      43.190 -18.204   3.304  1.00  0.00    -0.034 A 
HETATM   24  C   UNL     1      43.863 -18.992   4.250  1.00  0.00     0.034 A 
HETATM   25  C   UNL     1      44.343 -20.263   3.909  1.00  0.00     0.056 A 
HETATM   26 CL   UNL     1      45.156 -21.167   5.136  1.00  0.00    -0.083 Cl
HETATM   27  C   UNL     1      44.157 -20.759   2.614  1.00  0.00     0.055 A 
HETATM   28 CL   UNL     1      44.725 -22.315   2.124  1.00  0.00    -0.083 Cl
HETATM   29  C   UNL     1      43.487 -19.984   1.666  1.00  0.00     0.026 A 
HETATM   30  C   UNL     1      43.007 -18.719   2.008  1.00  0.00     0.011 A 
ENDBRANCH   6  23
TORSDOF 6
ENDMDL
MODEL 4
REMARK VINA RESULT:      -7.7      3.536      6.224
REMARK  6 active torsions:
REMARK  status: ('A' for Active; 'I' for Inactive)
REMARK    1  A    between atoms: O_2  and  C_3 
REMARK    2  A    between atoms: C_3  and  C_4 
REMARK    3  A    between atoms: C_4  and  N_5 
REMARK       I    between atoms: N_5  and  C_6 
REMARK    4  A    between atoms: C_6  and  C_7 
REMARK    5  A    between atoms: C_12  and  C_13 
REMARK    6  A    between atoms: C_22  and  C_23 
ROOT
HETATM    1  C   UNL     1      41.517 -14.756   0.511  1.00  0.00     0.148 C 
HETATM    2  N   UNL     1      42.157 -14.048   1.473  1.00  0.00    -0.165 NA
HETATM    3  N   UNL     1      42.024 -14.823   2.562  1.00  0.00    -0.240 N 
HETATM    4  C   UNL     1      41.474 -16.047   2.313  1.00  0.00     0.123 C 
HETATM    5  N   UNL     1      41.447 -17.005   3.261  1.00  0.00    -0.366 N 
HETATM    6  C   UNL     1      42.235 -16.914   4.491  1.00  0.00     0.118 C 
HETATM    7  C   UNL     1      43.203 -15.708   4.482  1.00  0.00     0.066 C 
HETATM    8  C   UNL     1      42.577 -14.458   3.850  1.00  0.00     0.221 C 
HETATM    9  C   UNL     1      41.047 -16.003   1.014  1.00  0.00     0.088 C 
HETATM   10  H   UNL     1      41.019 -17.912   3.076  1.00  0.00     0.161 HD
ENDROOT
BRANCH   1  11
HETATM   11  C   UNL     1      41.413 -14.283  -0.878  1.00  0.00     0.272 C 
HETATM   12  N   UNL     1      41.475 -15.297  -1.810  1.00  0.00    -0.354 N 
HETATM   13  H   UNL     1      41.408 -16.236  -1.421  1.00  0.00     0.162 HD
HETATM   14  O   UNL     1      41.233 -13.105  -1.169  1.00  0.00    -0.266 OA
BRANCH  12  15
HETATM   15  C   UNL     1      41.064 -15.079  -3.179  1.00  0.00     0.149 C 
BRANCH  15  16
HETATM   16  C   UNL     1      39.794 -15.852  -3.522  1.00  0.00     0.186 C 
BRANCH  16  17
HETATM   17  O   UNL     1      38.660 -15.095  -3.083  1.00  0.00    -0.394 OA
HETATM   18  C   UNL     1      38.740 -13.740  -3.504  1.00  0.00     0.201 C 
ENDBRANCH  16  17
ENDBRANCH  15  16
ENDBRANCH  12  15
ENDBRANCH   1  11
BRANCH   8  19
HETATM   19  C   UNL     1      41.510 -13.832   4.719  1.00  0.00     0.409 C 
HETATM   20  F   UNL     1      41.512 -12.484   4.653  1.00  0.00    -0.169 F 
HETATM   21  F   UNL     1      40.262 -14.258   4.433  1.00  0.00    -0.169 F 
HETATM   22  F   UNL     1      41.737 -14.156   6.020  1.00  0.00    -0.169 F 
ENDBRANCH   8  19
BRANCH   6  23
HETATM   23  C   UNL     1      43.003 -18.216   4.673  1.00  0.00    -0.034 A 
HETATM   24  C   UNL     1      43.022 -18.866   5.916  1.00  0.00     0.034 A 
HETATM   25  C   UNL     1      43.731 -20.063   6.086  1.00  0.00     0.056 A 
HETATM   26 CL   UNL     1      43.698 -20.797   7.649  1.00  0.00    -0.083 Cl
HETATM   27  C   UNL     1      44.432 -20.621   5.012  1.00  0.00     0.055 A 
HETATM   28 CL   UNL     1      45.329 -22.090   5.150  1.00  0.00    -0.083 Cl
HETATM   29  C   UNL     1      44.418 -19.984   3.770  1.00  0.00     0.026 A 
HETATM   30  C   UNL     1      43.709 -18.793   3.602  1.00  0.00     0.011 A 
ENDBRANCH   6  23
TORSDOF 6
ENDMDL
MODEL 5
REMARK VINA RESULT:      -7.6      1.355      2.038
REMARK  6 active torsions:
REMARK  status: ('A' for Active; 'I' for Inactive)
REMARK    1  A    between atoms: O_2  and  C_3 
REMARK    2  A    between atoms: C_3  and  C_4 
REMARK    3  A    between atoms: C_4  and  N_5 
REMARK       I    between atoms: N_5  and  C_6 
REMARK    4  A    between atoms: C_6  and  C_7 
REMARK    5  A    between atoms: C_12  and  C_13 
REMARK    6  A    between atoms: C_22  and  C_23 
ROOT
HETATM    1  C   UNL     1      41.250 -13.101   3.696  1.00  0.00     0.148 C 
HETATM    2  N   UNL     1      40.416 -13.801   2.888  1.00  0.00    -0.165 NA
HETATM    3  N   UNL     1      41.228 -14.713   2.328  1.00  0.00    -0.240 N 
HETATM    4  C   UNL     1      42.489 -14.732   2.847  1.00  0.00     0.123 C 
HETATM    5  N   UNL     1      43.361 -15.709   2.524  1.00  0.00    -0.366 N 
HETATM    6  C   UNL     1      42.947 -16.939   1.849  1.00  0.00     0.118 C 
HETATM    7  C   UNL     1      41.409 -17.049   1.718  1.00  0.00     0.066 C 
HETATM    8  C   UNL     1      40.751 -15.704   1.384  1.00  0.00     0.221 C 
HETATM    9  C   UNL     1      42.569 -13.640   3.668  1.00  0.00     0.088 C 
HETATM   10  H   UNL     1      44.309 -15.709   2.900  1.00  0.00     0.161 HD
ENDROOT
BRANCH   1  11
HETATM   11  C   UNL     1      40.785 -11.982   4.529  1.00  0.00     0.272 C 
HETATM   12  N   UNL     1      40.707 -12.292   5.871  1.00  0.00    -0.354 N 
HETATM   13  H   UNL     1      41.139 -13.176   6.129  1.00  0.00     0.162 HD
HETATM   14  O   UNL     1      40.545 -10.868   4.075  1.00  0.00    -0.266 OA
BRANCH  12  15
HETATM   15  C   UNL     1      40.596 -11.253   6.871  1.00  0.00     0.149 C 
BRANCH  15  16
HETATM   16  C   UNL     1      41.961 -10.835   7.410  1.00  0.00     0.186 C 
BRANCH  16  17
HETATM   17  O   UNL     1      41.923  -9.440   7.732  1.00  0.00    -0.394 OA
HETATM   18  C   UNL     1      41.544  -8.653   6.611  1.00  0.00     0.201 C 
ENDBRANCH  16  17
ENDBRANCH  15  16
ENDBRANCH  12  15
ENDBRANCH   1  11
BRANCH   8  19
HETATM   19  C   UNL     1      41.027 -15.250  -0.031  1.00  0.00     0.409 C 
HETATM   20  F   UNL     1      41.394 -16.267  -0.840  1.00  0.00    -0.169 F 
HETATM   21  F   UNL     1      39.986 -14.617  -0.609  1.00  0.00    -0.169 F 
HETATM   22  F   UNL     1      42.060 -14.365  -0.031  1.00  0.00    -0.169 F 
ENDBRANCH   8  19
BRANCH   6  23
HETATM   23  C   UNL     1      43.504 -18.128   2.620  1.00  0.00    -0.034 A 
HETATM   24  C   UNL     1      43.871 -17.997   3.968  1.00  0.00     0.034 A 
HETATM   25  C   UNL     1      44.387 -19.089   4.677  1.00  0.00     0.056 A 
HETATM   26 CL   UNL     1      44.809 -18.840   6.334  1.00  0.00    -0.083 Cl
HETATM   27  C   UNL     1      44.544 -20.326   4.043  1.00  0.00     0.055 A 
HETATM   28 CL   UNL     1      45.177 -21.713   4.855  1.00  0.00    -0.083 Cl
HETATM   29  C   UNL     1      44.181 -20.468   2.703  1.00  0.00     0.026 A 
HETATM   30  C   UNL     1      43.664 -19.379   1.998  1.00  0.00     0.011 A 
ENDBRANCH   6  23
TORSDOF 6
ENDMDL
MODEL 6
REMARK VINA RESULT:      -7.5      5.073      7.933
REMARK  6 active torsions:
REMARK  status: ('A' for Active; 'I' for Inactive)
REMARK    1  A    between atoms: O_2  and  C_3 
REMARK    2  A    between atoms: C_3  and  C_4 
REMARK    3  A    between atoms: C_4  and  N_5 
REMARK       I    between atoms: N_5  and  C_6 
REMARK    4  A    between atoms: C_6  and  C_7 
REMARK    5  A    between atoms: C_12  and  C_13 
REMARK    6  A    between atoms: C_22  and  C_23 
ROOT
HETATM    1  C   UNL     1      43.316 -18.892   2.517  1.00  0.00     0.148 C 
HETATM    2  N   UNL     1      42.487 -18.421   3.481  1.00  0.00    -0.165 NA
HETATM    3  N   UNL     1      42.225 -17.169   3.073  1.00  0.00    -0.240 N 
HETATM    4  C   UNL     1      42.712 -16.871   1.834  1.00  0.00     0.123 C 
HETATM    5  N   UNL     1      42.373 -15.725   1.209  1.00  0.00    -0.366 N 
HETATM    6  C   UNL     1      41.271 -14.879   1.665  1.00  0.00     0.118 C 
HETATM    7  C   UNL     1      40.459 -15.534   2.807  1.00  0.00     0.066 C 
HETATM    8  C   UNL     1      41.352 -16.277   3.809  1.00  0.00     0.221 C 
HETATM    9  C   UNL     1      43.504 -17.930   1.483  1.00  0.00     0.088 C 
HETATM   10  H   UNL     1      42.754 -15.499   0.290  1.00  0.00     0.161 HD
ENDROOT
BRANCH   1  11
HETATM   11  C   UNL     1      43.865 -20.256   2.547  1.00  0.00     0.272 C 
HETATM   12  N   UNL     1      44.721 -20.481   3.604  1.00  0.00    -0.354 N 
HETATM   13  H   UNL     1      44.726 -19.748   4.310  1.00  0.00     0.162 HD
HETATM   14  O   UNL     1      43.543 -21.121   1.738  1.00  0.00    -0.266 OA
BRANCH  12  15
HETATM   15  C   UNL     1      45.093 -21.824   3.990  1.00  0.00     0.149 C 
BRANCH  15  16
HETATM   16  C   UNL     1      44.721 -22.122   5.440  1.00  0.00     0.186 C 
BRANCH  16  17
HETATM   17  O   UNL     1      44.332 -20.899   6.078  1.00  0.00    -0.394 OA
HETATM   18  C   UNL     1      43.596 -21.141   7.269  1.00  0.00     0.201 C 
ENDBRANCH  16  17
ENDBRANCH  15  16
ENDBRANCH  12  15
ENDBRANCH   1  11
BRANCH   8  19
HETATM   19  C   UNL     1      42.169 -15.343   4.673  1.00  0.00     0.409 C 
HETATM   20  F   UNL     1      42.363 -15.826   5.918  1.00  0.00    -0.169 F 
HETATM   21  F   UNL     1      43.376 -15.042   4.153  1.00  0.00    -0.169 F 
HETATM   22  F   UNL     1      41.508 -14.163   4.816  1.00  0.00    -0.169 F 
ENDBRANCH   8  19
BRANCH   6  23
HETATM   23  C   UNL     1      40.370 -14.573   0.476  1.00  0.00    -0.034 A 
HETATM   24  C   UNL     1      40.848 -14.707  -0.836  1.00  0.00     0.034 A 
HETATM   25  C   UNL     1      40.021 -14.423  -1.931  1.00  0.00     0.056 A 
HETATM   26 CL   UNL     1      40.690 -14.619  -3.512  1.00  0.00    -0.083 Cl
HETATM   27  C   UNL     1      38.705 -13.998  -1.724  1.00  0.00     0.055 A 
HETATM   28 CL   UNL     1      37.631 -13.626  -3.025  1.00  0.00    -0.083 Cl
HETATM   29  C   UNL     1      38.218 -13.862  -0.423  1.00  0.00     0.026 A 
HETATM   30  C   UNL     1      39.042 -14.148   0.667  1.00  0.00     0.011 A 
ENDBRANCH   6  23
TORSDOF 6
ENDMDL
MODEL 7
REMARK VINA RESULT:      -7.5      3.513      5.338
REMARK  6 active torsions:
REMARK  status: ('A' for Active; 'I' for Inactive)
REMARK    1  A    between atoms: O_2  and  C_3 
REMARK    2  A    between atoms: C_3  and  C_4 
REMARK    3  A    between atoms: C_4  and  N_5 
REMARK       I    between atoms: N_5  and  C_6 
REMARK    4  A    between atoms: C_6  and  C_7 
REMARK    5  A    between atoms: C_12  and  C_13 
REMARK    6  A    between atoms: C_22  and  C_23 
ROOT
HETATM    1  C   UNL     1      40.795 -15.071   0.990  1.00  0.00     0.148 C 
HETATM    2  N   UNL     1      41.795 -14.362   1.566  1.00  0.00    -0.165 NA
HETATM    3  N   UNL     1      41.970 -14.982   2.745  1.00  0.00    -0.240 N 
HETATM    4  C   UNL     1      41.249 -16.133   2.882  1.00  0.00     0.123 C 
HETATM    5  N   UNL     1      41.456 -16.964   3.924  1.00  0.00    -0.366 N 
HETATM    6  C   UNL     1      42.625 -16.853   4.797  1.00  0.00     0.118 C 
HETATM    7  C   UNL     1      43.646 -15.810   4.283  1.00  0.00     0.066 C 
HETATM    8  C   UNL     1      42.968 -14.560   3.707  1.00  0.00     0.221 C 
HETATM    9  C   UNL     1      40.406 -16.173   1.806  1.00  0.00     0.088 C 
HETATM   10  H   UNL     1      40.903 -17.814   4.032  1.00  0.00     0.161 HD
ENDROOT
BRANCH   1  11
HETATM   11  C   UNL     1      40.266 -14.747  -0.344  1.00  0.00     0.272 C 
HETATM   12  N   UNL     1      38.962 -14.298  -0.323  1.00  0.00    -0.354 N 
HETATM   13  H   UNL     1      38.600 -14.086   0.604  1.00  0.00     0.162 HD
HETATM   14  O   UNL     1      40.942 -14.818  -1.365  1.00  0.00    -0.266 OA
BRANCH  12  15
HETATM   15  C   UNL     1      38.386 -13.626  -1.467  1.00  0.00     0.149 C 
BRANCH  15  16
HETATM   16  C   UNL     1      37.494 -12.460  -1.051  1.00  0.00     0.186 C 
BRANCH  16  17
HETATM   17  O   UNL     1      37.023 -12.691   0.282  1.00  0.00    -0.394 OA
HETATM   18  C   UNL     1      37.076 -11.509   1.069  1.00  0.00     0.201 C 
ENDBRANCH  16  17
ENDBRANCH  15  16
ENDBRANCH  12  15
ENDBRANCH   1  11
BRANCH   8  19
HETATM   19  C   UNL     1      42.334 -13.692   4.769  1.00  0.00     0.409 C 
HETATM   20  F   UNL     1      41.012 -13.926   4.909  1.00  0.00    -0.169 F 
HETATM   21  F   UNL     1      42.907 -13.818   5.984  1.00  0.00    -0.169 F 
HETATM   22  F   UNL     1      42.460 -12.384   4.421  1.00  0.00    -0.169 F 
ENDBRANCH   8  19
BRANCH   6  23
HETATM   23  C   UNL     1      43.275 -18.224   4.915  1.00  0.00    -0.034 A 
HETATM   24  C   UNL     1      43.182 -18.958   6.108  1.00  0.00     0.034 A 
HETATM   25  C   UNL     1      43.782 -20.219   6.219  1.00  0.00     0.056 A 
HETATM   26 CL   UNL     1      43.614 -21.055   7.722  1.00  0.00    -0.083 Cl
HETATM   27  C   UNL     1      44.486 -20.759   5.138  1.00  0.00     0.055 A 
HETATM   28 CL   UNL     1      45.253 -22.305   5.206  1.00  0.00    -0.083 Cl
HETATM   29  C   UNL     1      44.584 -20.038   3.947  1.00  0.00     0.026 A 
HETATM   30  C   UNL     1      43.983 -18.783   3.836  1.00  0.00     0.011 A 
ENDBRANCH   6  23
TORSDOF 6
ENDMDL
MODEL 8
REMARK VINA RESULT:      -7.4      3.439      5.761
REMARK  6 active torsions:
REMARK  status: ('A' for Active; 'I' for Inactive)
REMARK    1  A    between atoms: O_2  and  C_3 
REMARK    2  A    between atoms: C_3  and  C_4 
REMARK    3  A    between atoms: C_4  and  N_5 
REMARK       I    between atoms: N_5  and  C_6 
REMARK    4  A    between atoms: C_6  and  C_7 
REMARK    5  A    between atoms: C_12  and  C_13 
REMARK    6  A    between atoms: C_22  and  C_23 
ROOT
HETATM    1  C   UNL     1      41.921 -13.080   1.196  1.00  0.00     0.148 C 
HETATM    2  N   UNL     1      42.658 -12.946   2.325  1.00  0.00    -0.165 NA
HETATM    3  N   UNL     1      42.424 -14.094   2.981  1.00  0.00    -0.240 N 
HETATM    4  C   UNL     1      41.708 -15.009   2.266  1.00  0.00     0.123 C 
HETATM    5  N   UNL     1      41.552 -16.273   2.710  1.00  0.00    -0.366 N 
HETATM    6  C   UNL     1      42.350 -16.824   3.805  1.00  0.00     0.118 C 
HETATM    7  C   UNL     1      43.478 -15.864   4.252  1.00  0.00     0.066 C 
HETATM    8  C   UNL     1      43.030 -14.397   4.262  1.00  0.00     0.221 C 
HETATM    9  C   UNL     1      41.284 -14.353   1.143  1.00  0.00     0.088 C 
HETATM   10  H   UNL     1      41.000 -16.949   2.182  1.00  0.00     0.161 HD
ENDROOT
BRANCH   1  11
HETATM   11  C   UNL     1      41.878 -12.042   0.155  1.00  0.00     0.272 C 
HETATM   12  N   UNL     1      42.285 -12.488  -1.085  1.00  0.00    -0.354 N 
HETATM   13  H   UNL     1      42.392 -13.498  -1.158  1.00  0.00     0.162 HD
HETATM   14  O   UNL     1      41.464 -10.905   0.363  1.00  0.00    -0.266 OA
BRANCH  12  15
HETATM   15  C   UNL     1      42.002 -11.729  -2.282  1.00  0.00     0.149 C 
BRANCH  15  16
HETATM   16  C   UNL     1      40.988 -12.435  -3.177  1.00  0.00     0.186 C 
BRANCH  16  17
HETATM   17  O   UNL     1      40.607 -13.670  -2.559  1.00  0.00    -0.394 OA
HETATM   18  C   UNL     1      39.998 -14.556  -3.489  1.00  0.00     0.201 C 
ENDBRANCH  16  17
ENDBRANCH  15  16
ENDBRANCH  12  15
ENDBRANCH   1  11
BRANCH   8  19
HETATM   19  C   UNL     1      42.064 -14.084   5.382  1.00  0.00     0.409 C 
HETATM   20  F   UNL     1      41.920 -15.113   6.244  1.00  0.00    -0.169 F 
HETATM   21  F   UNL     1      42.399 -12.990   6.096  1.00  0.00    -0.169 F 
HETATM   22  F   UNL     1      40.831 -13.840   4.863  1.00  0.00    -0.169 F 
ENDBRANCH   8  19
BRANCH   6  23
HETATM   23  C   UNL     1      42.930 -18.159   3.360  1.00  0.00    -0.034 A 
HETATM   24  C   UNL     1      43.671 -18.950   4.252  1.00  0.00     0.034 A 
HETATM   25  C   UNL     1      44.207 -20.178   3.842  1.00  0.00     0.056 A 
HETATM   26 CL   UNL     1      45.103 -21.088   5.006  1.00  0.00    -0.083 Cl
HETATM   27  C   UNL     1      44.010 -20.627   2.532  1.00  0.00     0.055 A 
HETATM   28 CL   UNL     1      44.645 -22.127   1.958  1.00  0.00    -0.083 Cl
HETATM   29  C   UNL     1      43.273 -19.849   1.637  1.00  0.00     0.026 A 
HETATM   30  C   UNL     1      42.737 -18.627   2.048  1.00  0.00     0.011 A 
ENDBRANCH   6  23
TORSDOF 6
ENDMDL
MODEL 9
REMARK VINA RESULT:      -7.3      3.380      4.844
REMARK  6 active torsions:
REMARK  status: ('A' for Active; 'I' for Inactive)
REMARK    1  A    between atoms: O_2  and  C_3 
REMARK    2  A    between atoms: C_3  and  C_4 
REMARK    3  A    between atoms: C_4  and  N_5 
REMARK       I    between atoms: N_5  and  C_6 
REMARK    4  A    between atoms: C_6  and  C_7 
REMARK    5  A    between atoms: C_12  and  C_13 
REMARK    6  A    between atoms: C_22  and  C_23 
ROOT
HETATM    1  C   UNL     1      39.216 -14.218   1.442  1.00  0.00     0.148 C 
HETATM    2  N   UNL     1      40.405 -13.602   1.652  1.00  0.00    -0.165 NA
HETATM    3  N   UNL     1      41.029 -14.426   2.509  1.00  0.00    -0.240 N 
HETATM    4  C   UNL     1      40.373 -15.601   2.733  1.00  0.00     0.123 C 
HETATM    5  N   UNL     1      40.956 -16.606   3.417  1.00  0.00    -0.366 N 
HETATM    6  C   UNL     1      42.390 -16.628   3.708  1.00  0.00     0.118 C 
HETATM    7  C   UNL     1      43.152 -15.481   3.003  1.00  0.00     0.066 C 
HETATM    8  C   UNL     1      42.364 -14.165   3.008  1.00  0.00     0.221 C 
HETATM    9  C   UNL     1      39.150 -15.462   2.134  1.00  0.00     0.088 C 
HETATM   10  H   UNL     1      40.455 -17.475   3.598  1.00  0.00     0.161 HD
ENDROOT
BRANCH   1  11
HETATM   11  C   UNL     1      38.188 -13.665   0.547  1.00  0.00     0.272 C 
HETATM   12  N   UNL     1      37.467 -12.633   1.109  1.00  0.00    -0.354 N 
HETATM   13  H   UNL     1      37.846 -12.277   1.984  1.00  0.00     0.162 HD
HETATM   14  O   UNL     1      38.032 -14.052  -0.607  1.00  0.00    -0.266 OA
BRANCH  12  15
HETATM   15  C   UNL     1      36.658 -11.756   0.292  1.00  0.00     0.149 C 
BRANCH  15  16
HETATM   16  C   UNL     1      37.476 -10.605  -0.286  1.00  0.00     0.186 C 
BRANCH  16  17
HETATM   17  O   UNL     1      38.504 -10.254   0.647  1.00  0.00    -0.394 OA
HETATM   18  C   UNL     1      39.772 -10.143   0.013  1.00  0.00     0.201 C 
ENDBRANCH  16  17
ENDBRANCH  15  16
ENDBRANCH  12  15
ENDBRANCH   1  11
BRANCH   8  19
HETATM   19  C   UNL     1      42.293 -13.527   4.376  1.00  0.00     0.409 C 
HETATM   20  F   UNL     1      42.367 -12.180   4.325  1.00  0.00    -0.169 F 
HETATM   21  F   UNL     1      41.183 -13.854   5.069  1.00  0.00    -0.169 F 
HETATM   22  F   UNL     1      43.349 -13.943   5.126  1.00  0.00    -0.169 F 
ENDBRANCH   8  19
BRANCH   6  23
HETATM   23  C   UNL     1      42.950 -17.980   3.288  1.00  0.00    -0.034 A 
HETATM   24  C   UNL     1      43.732 -18.735   4.175  1.00  0.00     0.034 A 
HETATM   25  C   UNL     1      44.251 -19.978   3.789  1.00  0.00     0.056 A 
HETATM   26 CL   UNL     1      45.201 -20.843   4.945  1.00  0.00    -0.083 Cl
HETATM   27  C   UNL     1      43.994 -20.479   2.508  1.00  0.00     0.055 A 
HETATM   28 CL   UNL     1      44.604 -22.000   1.964  1.00  0.00    -0.083 Cl
HETATM   29  C   UNL     1      43.215 -19.736   1.619  1.00  0.00     0.026 A 
HETATM   30  C   UNL     1      42.697 -18.499   2.006  1.00  0.00     0.011 A 
ENDBRANCH   6  23
TORSDOF 6
ENDMDL
MODEL 10
REMARK VINA RESULT:      -7.3      4.474      5.939
REMARK  6 active torsions:
REMARK  status: ('A' for Active; 'I' for Inactive)
REMARK    1  A    between atoms: O_2  and  C_3 
REMARK    2  A    between atoms: C_3  and  C_4 
REMARK    3  A    between atoms: C_4  and  N_5 
REMARK       I    between atoms: N_5  and  C_6 
REMARK    4  A    between atoms: C_6  and  C_7 
REMARK    5  A    between atoms: C_12  and  C_13 
REMARK    6  A    between atoms: C_22  and  C_23 
ROOT
HETATM    1  C   UNL     1      43.975 -14.168   6.704  1.00  0.00     0.148 C 
HETATM    2  N   UNL     1      44.340 -15.384   6.231  1.00  0.00    -0.165 NA
HETATM    3  N   UNL     1      43.252 -15.789   5.555  1.00  0.00    -0.240 N 
HETATM    4  C   UNL     1      42.279 -14.839   5.442  1.00  0.00     0.123 C 
HETATM    5  N   UNL     1      41.213 -15.025   4.639  1.00  0.00    -0.366 N 
HETATM    6  C   UNL     1      41.161 -16.092   3.639  1.00  0.00     0.118 C 
HETATM    7  C   UNL     1      42.508 -16.840   3.505  1.00  0.00     0.066 C 
HETATM    8  C   UNL     1      43.195 -17.058   4.859  1.00  0.00     0.221 C 
HETATM    9  C   UNL     1      42.672 -13.809   6.253  1.00  0.00     0.088 C 
HETATM   10  H   UNL     1      40.479 -14.320   4.571  1.00  0.00     0.161 HD
ENDROOT
BRANCH   1  11
HETATM   11  C   UNL     1      44.876 -13.334   7.513  1.00  0.00     0.272 C 
HETATM   12  N   UNL     1      44.256 -12.747   8.597  1.00  0.00    -0.354 N 
HETATM   13  H   UNL     1      43.322 -13.099   8.794  1.00  0.00     0.162 HD
HETATM   14  O   UNL     1      46.074 -13.221   7.274  1.00  0.00    -0.266 OA
BRANCH  12  15
HETATM   15  C   UNL     1      45.028 -12.176   9.678  1.00  0.00     0.149 C 
BRANCH  15  16
HETATM   16  C   UNL     1      44.374 -12.421  11.035  1.00  0.00     0.186 C 
BRANCH  16  17
HETATM   17  O   UNL     1      43.824 -11.188  11.513  1.00  0.00    -0.394 OA
HETATM   18  C   UNL     1      42.891 -11.402  12.563  1.00  0.00     0.201 C 
ENDBRANCH  16  17
ENDBRANCH  15  16
ENDBRANCH  12  15
ENDBRANCH   1  11
BRANCH   8  19
HETATM   19  C   UNL     1      42.494 -18.090   5.714  1.00  0.00     0.409 C 
HETATM   20  F   UNL     1      43.244 -19.194   5.913  1.00  0.00    -0.169 F 
HETATM   21  F   UNL     1      42.113 -17.625   6.921  1.00  0.00    -0.169 F 
HETATM   22  F   UNL     1      41.359 -18.502   5.087  1.00  0.00    -0.169 F 
ENDBRANCH   8  19
BRANCH   6  23
HETATM   23  C   UNL     1      40.749 -15.487   2.304  1.00  0.00    -0.034 A 
HETATM   24  C   UNL     1      39.438 -15.032   2.099  1.00  0.00     0.034 A 
HETATM   25  C   UNL     1      39.057 -14.478   0.870  1.00  0.00     0.056 A 
HETATM   26 CL   UNL     1      37.423 -13.941   0.706  1.00  0.00    -0.083 Cl
HETATM   27  C   UNL     1      39.986 -14.375  -0.171  1.00  0.00     0.055 A 
HETATM   28 CL   UNL     1      39.585 -13.706  -1.712  1.00  0.00    -0.083 Cl
HETATM   29  C   UNL     1      41.294 -14.822   0.023  1.00  0.00     0.026 A 
HETATM   30  C   UNL     1      41.673 -15.372   1.249  1.00  0.00     0.011 A 
ENDBRANCH   6  23
TORSDOF 6
ENDMDL
