MODEL 1
REMARK VINA RESULT:      -8.8      0.000      0.000
REMARK  7 active torsions:
REMARK  status: ('A' for Active; 'I' for Inactive)
REMARK    1  A    between atoms: N_2  and  C_4 
REMARK       I    between atoms: N_7  and  C_8 
REMARK    2  A    between atoms: C_8  and  C_9 
REMARK    3  A    between atoms: N_12  and  C_13 
REMARK    4  A    between atoms: C_20  and  C_21 
REMARK    5  A    between atoms: C_21  and  N_22 
REMARK    6  A    between atoms: N_22  and  C_25 
REMARK    7  A    between atoms: C_25  and  C_26 
ROOT
HETATM    1  C   UNL     1      43.167 -18.312   3.036  1.00  0.00     0.719 A 
HETATM    2  N   UNL     1      43.565 -19.628   2.827  1.00  0.00    -0.154 N 
HETATM    3  C   UNL     1      44.266 -19.995   3.981  1.00  0.00     0.083 A 
HETATM    4  C   UNL     1      44.743 -21.333   4.089  1.00  0.00     0.033 A 
HETATM    5  C   UNL     1      44.564 -22.183   3.060  1.00  0.00     0.004 A 
HETATM    6  C   UNL     1      43.915 -21.759   1.836  1.00  0.00     0.018 A 
HETATM    7  C   UNL     1      43.436 -20.507   1.746  1.00  0.00     0.115 A 
HETATM    8  C   UNL     1      44.356 -18.860   4.755  1.00  0.00     0.107 A 
HETATM    9  N   UNL     1      43.679 -17.817   4.158  1.00  0.00    -0.064 NA
ENDROOT
BRANCH   1  10
HETATM   10  N   UNL     1      42.337 -17.548   2.205  1.00  0.00    -0.147 N 
HETATM   11  C   UNL     1      41.024 -17.221   2.478  1.00  0.00     0.233 A 
HETATM   12  N   UNL     1      40.486 -16.441   1.566  1.00  0.00    -0.236 NA
HETATM   13  C   UNL     1      41.456 -16.273   0.604  1.00  0.00     0.142 A 
HETATM   14  C   UNL     1      42.582 -16.994   0.973  1.00  0.00     0.153 A 
BRANCH  13  15
HETATM   15  C   UNL     1      41.387 -15.440  -0.612  1.00  0.00     0.273 C 
HETATM   16  N   UNL     1      41.686 -14.057  -0.571  1.00  0.00    -0.347 N 
HETATM   17  C   UNL     1      41.430 -13.229   0.606  1.00  0.00     0.128 C 
HETATM   18  C   UNL     1      41.660 -13.385  -1.868  1.00  0.00     0.128 C 
HETATM   19  C   UNL     1      42.214 -11.920   0.583  1.00  0.00     0.053 C 
HETATM   20  C   UNL     1      42.065 -11.153  -0.737  1.00  0.00     0.190 C 
HETATM   21  C   UNL     1      42.464 -12.093  -1.877  1.00  0.00     0.053 C 
HETATM   22  O   UNL     1      41.091 -15.972  -1.683  1.00  0.00    -0.266 OA
BRANCH  20  23
HETATM   23  N   UNL     1      40.646 -10.587  -0.925  1.00  0.00    -0.074 N 
HETATM   24  C   UNL     1      40.477  -9.830  -2.230  1.00  0.00     0.269 C 
HETATM   25  H   UNL     1      39.975 -11.365  -0.958  1.00  0.00     0.279 HD
HETATM   26  C   UNL     1      40.206  -9.691   0.215  1.00  0.00     0.269 C 
ENDBRANCH  20  23
ENDBRANCH  13  15
ENDBRANCH   1  10
BRANCH   8  27
HETATM   27  C   UNL     1      45.054 -18.671   6.057  1.00  0.00     0.294 C 
BRANCH  27  28
HETATM   28  N   UNL     1      44.131 -18.924   7.199  1.00  0.00    -0.066 N 
HETATM   29  H   UNL     1      43.263 -19.316   6.809  1.00  0.00     0.277 HD
HETATM   30  H   UNL     1      44.519 -19.695   7.757  1.00  0.00     0.277 HD
BRANCH  28  31
HETATM   31  C   UNL     1      43.854 -17.739   8.047  1.00  0.00     0.272 C 
BRANCH  31  32
HETATM   32  C   UNL     1      43.239 -16.623   7.268  1.00  0.00    -0.015 A 
HETATM   33  C   UNL     1      41.926 -16.714   6.814  1.00  0.00     0.125 A 
HETATM   34  N   UNL     1      41.317 -15.763   6.080  1.00  0.00    -0.273 NA
HETATM   35  C   UNL     1      42.024 -14.648   5.802  1.00  0.00     0.116 A 
HETATM   36  C   UNL     1      43.333 -14.456   6.209  1.00  0.00     0.020 A 
HETATM   37  C   UNL     1      43.951 -15.464   6.946  1.00  0.00     0.012 A 
ENDBRANCH  31  32
ENDBRANCH  28  31
ENDBRANCH  27  28
ENDBRANCH   8  27
TORSDOF 7
ENDMDL
MODEL 2
REMARK VINA RESULT:      -8.7      2.395      3.028
REMARK  7 active torsions:
REMARK  status: ('A' for Active; 'I' for Inactive)
REMARK    1  A    between atoms: N_2  and  C_4 
REMARK       I    between atoms: N_7  and  C_8 
REMARK    2  A    between atoms: C_8  and  C_9 
REMARK    3  A    between atoms: N_12  and  C_13 
REMARK    4  A    between atoms: C_20  and  C_21 
REMARK    5  A    between atoms: C_21  and  N_22 
REMARK    6  A    between atoms: N_22  and  C_25 
REMARK    7  A    between atoms: C_25  and  C_26 
ROOT
HETATM    1  C   UNL     1      42.780 -16.723   3.775  1.00  0.00     0.719 A 
HETATM    2  N   UNL     1      43.496 -17.909   3.896  1.00  0.00    -0.154 N 
HETATM    3  C   UNL     1      43.972 -17.926   5.212  1.00  0.00     0.083 A 
HETATM    4  C   UNL     1      44.693 -19.071   5.658  1.00  0.00     0.033 A 
HETATM    5  C   UNL     1      44.951 -20.068   4.792  1.00  0.00     0.004 A 
HETATM    6  C   UNL     1      44.528 -19.993   3.407  1.00  0.00     0.018 A 
HETATM    7  C   UNL     1      43.819 -18.929   2.994  1.00  0.00     0.115 A 
HETATM    8  C   UNL     1      43.627 -16.713   5.763  1.00  0.00     0.107 A 
HETATM    9  N   UNL     1      42.894 -15.967   4.862  1.00  0.00    -0.064 NA
ENDROOT
BRANCH   1  10
HETATM   10  N   UNL     1      42.019 -16.315   2.672  1.00  0.00    -0.147 N 
HETATM   11  C   UNL     1      40.653 -16.115   2.680  1.00  0.00     0.233 A 
HETATM   12  N   UNL     1      40.190 -15.672   1.531  1.00  0.00    -0.236 NA
HETATM   13  C   UNL     1      41.278 -15.619   0.689  1.00  0.00     0.142 A 
HETATM   14  C   UNL     1      42.398 -16.061   1.377  1.00  0.00     0.153 A 
BRANCH  13  15
HETATM   15  C   UNL     1      41.318 -15.136  -0.704  1.00  0.00     0.273 C 
HETATM   16  N   UNL     1      41.752 -13.825  -1.014  1.00  0.00    -0.347 N 
HETATM   17  C   UNL     1      41.554 -12.694  -0.110  1.00  0.00     0.128 C 
HETATM   18  C   UNL     1      41.820 -13.523  -2.443  1.00  0.00     0.128 C 
HETATM   19  C   UNL     1      42.464 -11.515  -0.439  1.00  0.00     0.053 C 
HETATM   20  C   UNL     1      42.421 -11.116  -1.919  1.00  0.00     0.190 C 
HETATM   21  C   UNL     1      42.749 -12.357  -2.753  1.00  0.00     0.053 C 
HETATM   22  O   UNL     1      40.994 -15.906  -1.611  1.00  0.00    -0.266 OA
BRANCH  20  23
HETATM   23  N   UNL     1      41.069 -10.495  -2.316  1.00  0.00    -0.074 N 
HETATM   24  C   UNL     1      40.921 -10.302  -3.815  1.00  0.00     0.269 C 
HETATM   25  H   UNL     1      40.312 -11.130  -2.035  1.00  0.00     0.279 HD
HETATM   26  C   UNL     1      40.796  -9.173  -1.628  1.00  0.00     0.269 C 
ENDBRANCH  20  23
ENDBRANCH  13  15
ENDBRANCH   1  10
BRANCH   8  27
HETATM   27  C   UNL     1      43.943 -16.179   7.117  1.00  0.00     0.294 C 
BRANCH  27  28
HETATM   28  N   UNL     1      43.867 -14.691   7.136  1.00  0.00    -0.066 N 
HETATM   29  H   UNL     1      43.236 -14.408   6.373  1.00  0.00     0.277 HD
HETATM   30  H   UNL     1      43.365 -14.409   7.987  1.00  0.00     0.277 HD
BRANCH  28  31
HETATM   31  C   UNL     1      45.177 -14.001   7.036  1.00  0.00     0.272 C 
BRANCH  31  32
HETATM   32  C   UNL     1      45.306 -12.897   8.034  1.00  0.00    -0.015 A 
HETATM   33  C   UNL     1      46.377 -12.010   7.977  1.00  0.00     0.125 A 
HETATM   34  N   UNL     1      46.575 -11.013   8.860  1.00  0.00    -0.273 NA
HETATM   35  C   UNL     1      45.654 -10.857   9.834  1.00  0.00     0.116 A 
HETATM   36  C   UNL     1      44.551 -11.680   9.976  1.00  0.00     0.020 A 
HETATM   37  C   UNL     1      44.380 -12.721   9.067  1.00  0.00     0.012 A 
ENDBRANCH  31  32
ENDBRANCH  28  31
ENDBRANCH  27  28
ENDBRANCH   8  27
TORSDOF 7
ENDMDL
MODEL 3
REMARK VINA RESULT:      -8.7      1.999      4.845
REMARK  7 active torsions:
REMARK  status: ('A' for Active; 'I' for Inactive)
REMARK    1  A    between atoms: N_2  and  C_4 
REMARK       I    between atoms: N_7  and  C_8 
REMARK    2  A    between atoms: C_8  and  C_9 
REMARK    3  A    between atoms: N_12  and  C_13 
REMARK    4  A    between atoms: C_20  and  C_21 
REMARK    5  A    between atoms: C_21  and  N_22 
REMARK    6  A    between atoms: N_22  and  C_25 
REMARK    7  A    between atoms: C_25  and  C_26 
ROOT
HETATM    1  C   UNL     1      42.114 -16.599   4.610  1.00  0.00     0.719 A 
HETATM    2  N   UNL     1      42.783 -15.619   5.334  1.00  0.00    -0.154 N 
HETATM    3  C   UNL     1      43.484 -16.303   6.333  1.00  0.00     0.083 A 
HETATM    4  C   UNL     1      44.331 -15.556   7.201  1.00  0.00     0.033 A 
HETATM    5  C   UNL     1      44.385 -14.217   7.080  1.00  0.00     0.004 A 
HETATM    6  C   UNL     1      43.583 -13.515   6.097  1.00  0.00     0.018 A 
HETATM    7  C   UNL     1      42.809 -14.222   5.256  1.00  0.00     0.115 A 
HETATM    8  C   UNL     1      43.105 -17.623   6.235  1.00  0.00     0.107 A 
HETATM    9  N   UNL     1      42.248 -17.798   5.168  1.00  0.00    -0.064 NA
ENDROOT
BRANCH   1  10
HETATM   10  N   UNL     1      41.370 -16.412   3.438  1.00  0.00    -0.147 N 
HETATM   11  C   UNL     1      41.001 -17.415   2.564  1.00  0.00     0.233 A 
HETATM   12  N   UNL     1      40.252 -16.985   1.572  1.00  0.00    -0.236 NA
HETATM   13  C   UNL     1      40.151 -15.623   1.748  1.00  0.00     0.142 A 
HETATM   14  C   UNL     1      40.880 -15.262   2.871  1.00  0.00     0.153 A 
BRANCH  13  15
HETATM   15  C   UNL     1      39.374 -14.664   0.940  1.00  0.00     0.273 C 
HETATM   16  N   UNL     1      39.664 -14.453  -0.429  1.00  0.00    -0.347 N 
HETATM   17  C   UNL     1      41.014 -14.576  -0.977  1.00  0.00     0.128 C 
HETATM   18  C   UNL     1      38.754 -13.540  -1.116  1.00  0.00     0.128 C 
HETATM   19  C   UNL     1      41.017 -14.740  -2.494  1.00  0.00     0.053 C 
HETATM   20  C   UNL     1      40.167 -13.687  -3.215  1.00  0.00     0.190 C 
HETATM   21  C   UNL     1      38.755 -13.733  -2.626  1.00  0.00     0.053 C 
HETATM   22  O   UNL     1      38.438 -14.060   1.469  1.00  0.00    -0.266 OA
BRANCH  20  23
HETATM   23  N   UNL     1      40.784 -12.278  -3.125  1.00  0.00    -0.074 N 
HETATM   24  C   UNL     1      39.999 -11.236  -3.899  1.00  0.00     0.269 C 
HETATM   25  H   UNL     1      40.776 -11.971  -2.144  1.00  0.00     0.279 HD
HETATM   26  C   UNL     1      42.230 -12.232  -3.576  1.00  0.00     0.269 C 
ENDBRANCH  20  23
ENDBRANCH  13  15
ENDBRANCH   1  10
BRANCH   8  27
HETATM   27  C   UNL     1      43.499 -18.774   7.095  1.00  0.00     0.294 C 
BRANCH  27  28
HETATM   28  N   UNL     1      43.649 -20.017   6.288  1.00  0.00    -0.066 N 
HETATM   29  H   UNL     1      43.665 -20.809   6.946  1.00  0.00     0.277 HD
HETATM   30  H   UNL     1      42.780 -20.158   5.756  1.00  0.00     0.277 HD
BRANCH  28  31
HETATM   31  C   UNL     1      44.831 -20.037   5.392  1.00  0.00     0.272 C 
BRANCH  31  32
HETATM   32  C   UNL     1      44.523 -20.659   4.069  1.00  0.00    -0.015 A 
HETATM   33  C   UNL     1      44.758 -22.013   3.849  1.00  0.00     0.125 A 
HETATM   34  N   UNL     1      44.534 -22.633   2.675  1.00  0.00    -0.273 NA
HETATM   35  C   UNL     1      44.021 -21.892   1.671  1.00  0.00     0.116 A 
HETATM   36  C   UNL     1      43.747 -20.540   1.786  1.00  0.00     0.020 A 
HETATM   37  C   UNL     1      44.010 -19.913   3.003  1.00  0.00     0.012 A 
ENDBRANCH  31  32
ENDBRANCH  28  31
ENDBRANCH  27  28
ENDBRANCH   8  27
TORSDOF 7
ENDMDL
MODEL 4
REMARK VINA RESULT:      -8.5      1.372      4.369
REMARK  7 active torsions:
REMARK  status: ('A' for Active; 'I' for Inactive)
REMARK    1  A    between atoms: N_2  and  C_4 
REMARK       I    between atoms: N_7  and  C_8 
REMARK    2  A    between atoms: C_8  and  C_9 
REMARK    3  A    between atoms: N_12  and  C_13 
REMARK    4  A    between atoms: C_20  and  C_21 
REMARK    5  A    between atoms: C_21  and  N_22 
REMARK    6  A    between atoms: N_22  and  C_25 
REMARK    7  A    between atoms: C_25  and  C_26 
ROOT
HETATM    1  C   UNL     1      42.095 -16.385   4.062  1.00  0.00     0.719 A 
HETATM    2  N   UNL     1      42.824 -15.615   4.961  1.00  0.00    -0.154 N 
HETATM    3  C   UNL     1      43.345 -16.519   5.893  1.00  0.00     0.083 A 
HETATM    4  C   UNL     1      44.207 -16.022   6.912  1.00  0.00     0.033 A 
HETATM    5  C   UNL     1      44.446 -14.700   6.989  1.00  0.00     0.004 A 
HETATM    6  C   UNL     1      43.825 -13.767   6.069  1.00  0.00     0.018 A 
HETATM    7  C   UNL     1      43.038 -14.238   5.087  1.00  0.00     0.115 A 
HETATM    8  C   UNL     1      42.807 -17.747   5.582  1.00  0.00     0.107 A 
HETATM    9  N   UNL     1      42.025 -17.655   4.448  1.00  0.00    -0.064 NA
ENDROOT
BRANCH   1  10
HETATM   10  N   UNL     1      41.481 -15.940   2.885  1.00  0.00    -0.147 N 
HETATM   11  C   UNL     1      40.193 -15.448   2.798  1.00  0.00     0.233 A 
HETATM   12  N   UNL     1      39.878 -15.039   1.589  1.00  0.00    -0.236 NA
HETATM   13  C   UNL     1      40.978 -15.312   0.806  1.00  0.00     0.142 A 
HETATM   14  C   UNL     1      41.948 -15.912   1.595  1.00  0.00     0.153 A 
BRANCH  13  15
HETATM   15  C   UNL     1      41.170 -14.999  -0.622  1.00  0.00     0.273 C 
HETATM   16  N   UNL     1      41.679 -13.745  -1.037  1.00  0.00    -0.347 N 
HETATM   17  C   UNL     1      41.436 -12.511  -0.293  1.00  0.00     0.128 C 
HETATM   18  C   UNL     1      41.896 -13.616  -2.476  1.00  0.00     0.128 C 
HETATM   19  C   UNL     1      42.416 -11.402  -0.664  1.00  0.00     0.053 C 
HETATM   20  C   UNL     1      42.530 -11.180  -2.177  1.00  0.00     0.190 C 
HETATM   21  C   UNL     1      42.892 -12.519  -2.824  1.00  0.00     0.053 C 
HETATM   22  O   UNL     1      40.907 -15.863  -1.462  1.00  0.00    -0.266 OA
BRANCH  20  23
HETATM   23  N   UNL     1      41.247 -10.577  -2.777  1.00  0.00    -0.074 N 
HETATM   24  C   UNL     1      41.340 -10.351  -4.274  1.00  0.00     0.269 C 
HETATM   25  H   UNL     1      40.469 -11.234  -2.635  1.00  0.00     0.279 HD
HETATM   26  C   UNL     1      40.835  -9.278  -2.115  1.00  0.00     0.269 C 
ENDBRANCH  20  23
ENDBRANCH  13  15
ENDBRANCH   1  10
BRANCH   8  27
HETATM   27  C   UNL     1      42.975 -19.047   6.290  1.00  0.00     0.294 C 
BRANCH  27  28
HETATM   28  N   UNL     1      44.393 -19.503   6.240  1.00  0.00    -0.066 N 
HETATM   29  H   UNL     1      44.888 -19.045   7.018  1.00  0.00     0.277 HD
HETATM   30  H   UNL     1      44.415 -20.500   6.487  1.00  0.00     0.277 HD
BRANCH  28  31
HETATM   31  C   UNL     1      45.078 -19.258   4.947  1.00  0.00     0.272 C 
BRANCH  31  32
HETATM   32  C   UNL     1      44.667 -20.241   3.900  1.00  0.00    -0.015 A 
HETATM   33  C   UNL     1      44.826 -21.608   4.107  1.00  0.00     0.125 A 
HETATM   34  N   UNL     1      44.508 -22.548   3.197  1.00  0.00    -0.273 NA
HETATM   35  C   UNL     1      43.975 -22.126   2.032  1.00  0.00     0.116 A 
HETATM   36  C   UNL     1      43.770 -20.792   1.728  1.00  0.00     0.020 A 
HETATM   37  C   UNL     1      44.130 -19.835   2.674  1.00  0.00     0.012 A 
ENDBRANCH  31  32
ENDBRANCH  28  31
ENDBRANCH  27  28
ENDBRANCH   8  27
TORSDOF 7
ENDMDL
MODEL 5
REMARK VINA RESULT:      -8.5      4.733      8.329
REMARK  7 active torsions:
REMARK  status: ('A' for Active; 'I' for Inactive)
REMARK    1  A    between atoms: N_2  and  C_4 
REMARK       I    between atoms: N_7  and  C_8 
REMARK    2  A    between atoms: C_8  and  C_9 
REMARK    3  A    between atoms: N_12  and  C_13 
REMARK    4  A    between atoms: C_20  and  C_21 
REMARK    5  A    between atoms: C_21  and  N_22 
REMARK    6  A    between atoms: N_22  and  C_25 
REMARK    7  A    between atoms: C_25  and  C_26 
ROOT
HETATM    1  C   UNL     1      40.873 -14.655   4.900  1.00  0.00     0.719 A 
HETATM    2  N   UNL     1      40.858 -14.914   3.534  1.00  0.00    -0.154 N 
HETATM    3  C   UNL     1      41.070 -16.291   3.412  1.00  0.00     0.083 A 
HETATM    4  C   UNL     1      41.035 -16.870   2.110  1.00  0.00     0.033 A 
HETATM    5  C   UNL     1      40.864 -16.074   1.038  1.00  0.00     0.004 A 
HETATM    6  C   UNL     1      40.736 -14.637   1.178  1.00  0.00     0.018 A 
HETATM    7  C   UNL     1      40.735 -14.095   2.407  1.00  0.00     0.115 A 
HETATM    8  C   UNL     1      41.321 -16.758   4.682  1.00  0.00     0.107 A 
HETATM    9  N   UNL     1      41.205 -15.735   5.601  1.00  0.00    -0.064 NA
ENDROOT
BRANCH   1  10
HETATM   10  N   UNL     1      40.590 -13.433   5.524  1.00  0.00    -0.147 N 
HETATM   11  C   UNL     1      39.330 -12.884   5.659  1.00  0.00     0.233 A 
HETATM   12  N   UNL     1      39.328 -11.759   6.339  1.00  0.00    -0.236 NA
HETATM   13  C   UNL     1      40.649 -11.501   6.632  1.00  0.00     0.142 A 
HETATM   14  C   UNL     1      41.432 -12.508   6.088  1.00  0.00     0.153 A 
BRANCH  13  15
HETATM   15  C   UNL     1      41.196 -10.386   7.428  1.00  0.00     0.273 C 
HETATM   16  N   UNL     1      41.042 -10.344   8.834  1.00  0.00    -0.347 N 
HETATM   17  C   UNL     1      39.882 -10.910   9.518  1.00  0.00     0.128 C 
HETATM   18  C   UNL     1      41.713  -9.224   9.492  1.00  0.00     0.128 C 
HETATM   19  C   UNL     1      40.133 -11.140  11.006  1.00  0.00     0.053 C 
HETATM   20  C   UNL     1      40.708  -9.909  11.716  1.00  0.00     0.190 C 
HETATM   21  C   UNL     1      41.974  -9.481  10.969  1.00  0.00     0.053 C 
HETATM   22  O   UNL     1      41.822  -9.494   6.852  1.00  0.00    -0.266 OA
BRANCH  20  23
HETATM   23  N   UNL     1      39.684  -8.764  11.819  1.00  0.00    -0.074 N 
HETATM   24  C   UNL     1      40.136  -7.644  12.738  1.00  0.00     0.269 C 
HETATM   25  H   UNL     1      39.560  -8.339  10.892  1.00  0.00     0.279 HD
HETATM   26  C   UNL     1      38.312  -9.231  12.263  1.00  0.00     0.269 C 
ENDBRANCH  20  23
ENDBRANCH  13  15
ENDBRANCH   1  10
BRANCH   8  27
HETATM   27  C   UNL     1      41.674 -18.139   5.116  1.00  0.00     0.294 C 
BRANCH  27  28
HETATM   28  N   UNL     1      43.101 -18.217   5.537  1.00  0.00    -0.066 N 
HETATM   29  H   UNL     1      43.275 -17.431   6.178  1.00  0.00     0.277 HD
HETATM   30  H   UNL     1      43.212 -19.048   6.131  1.00  0.00     0.277 HD
BRANCH  28  31
HETATM   31  C   UNL     1      44.077 -18.227   4.419  1.00  0.00     0.272 C 
BRANCH  31  32
HETATM   32  C   UNL     1      44.131 -19.553   3.734  1.00  0.00    -0.015 A 
HETATM   33  C   UNL     1      44.652 -20.669   4.383  1.00  0.00     0.125 A 
HETATM   34  N   UNL     1      44.761 -21.886   3.817  1.00  0.00    -0.273 NA
HETATM   35  C   UNL     1      44.304 -22.024   2.555  1.00  0.00     0.116 A 
HETATM   36  C   UNL     1      43.763 -20.982   1.823  1.00  0.00     0.020 A 
HETATM   37  C   UNL     1      43.684 -19.725   2.419  1.00  0.00     0.012 A 
ENDBRANCH  31  32
ENDBRANCH  28  31
ENDBRANCH  27  28
ENDBRANCH   8  27
TORSDOF 7
ENDMDL
MODEL 6
REMARK VINA RESULT:      -8.1      5.264      9.585
REMARK  7 active torsions:
REMARK  status: ('A' for Active; 'I' for Inactive)
REMARK    1  A    between atoms: N_2  and  C_4 
REMARK       I    between atoms: N_7  and  C_8 
REMARK    2  A    between atoms: C_8  and  C_9 
REMARK    3  A    between atoms: N_12  and  C_13 
REMARK    4  A    between atoms: C_20  and  C_21 
REMARK    5  A    between atoms: C_21  and  N_22 
REMARK    6  A    between atoms: N_22  and  C_25 
REMARK    7  A    between atoms: C_25  and  C_26 
ROOT
HETATM    1  C   UNL     1      43.037 -13.616   5.790  1.00  0.00     0.719 A 
HETATM    2  N   UNL     1      41.819 -13.168   5.293  1.00  0.00    -0.154 N 
HETATM    3  C   UNL     1      41.563 -13.956   4.165  1.00  0.00     0.083 A 
HETATM    4  C   UNL     1      40.330 -13.772   3.475  1.00  0.00     0.033 A 
HETATM    5  C   UNL     1      39.481 -12.811   3.884  1.00  0.00     0.004 A 
HETATM    6  C   UNL     1      39.803 -11.944   5.000  1.00  0.00     0.018 A 
HETATM    7  C   UNL     1      40.951 -12.139   5.672  1.00  0.00     0.115 A 
HETATM    8  C   UNL     1      42.681 -14.736   3.976  1.00  0.00     0.107 A 
HETATM    9  N   UNL     1      43.596 -14.514   4.985  1.00  0.00    -0.064 NA
ENDROOT
BRANCH   1  10
HETATM   10  N   UNL     1      43.656 -13.209   6.979  1.00  0.00    -0.147 N 
HETATM   11  C   UNL     1      44.629 -13.921   7.652  1.00  0.00     0.233 A 
HETATM   12  N   UNL     1      45.091 -13.290   8.709  1.00  0.00    -0.236 NA
HETATM   13  C   UNL     1      44.365 -12.124   8.792  1.00  0.00     0.142 A 
HETATM   14  C   UNL     1      43.446 -12.095   7.753  1.00  0.00     0.153 A 
BRANCH  13  15
HETATM   15  C   UNL     1      44.523 -11.029   9.767  1.00  0.00     0.273 C 
HETATM   16  N   UNL     1      43.585 -10.832  10.808  1.00  0.00    -0.347 N 
HETATM   17  C   UNL     1      42.167 -11.160  10.665  1.00  0.00     0.128 C 
HETATM   18  C   UNL     1      43.923  -9.764  11.746  1.00  0.00     0.128 C 
HETATM   19  C   UNL     1      41.456 -11.282  12.009  1.00  0.00     0.053 C 
HETATM   20  C   UNL     1      41.706 -10.084  12.933  1.00  0.00     0.190 C 
HETATM   21  C   UNL     1      43.219  -9.914  13.087  1.00  0.00     0.053 C 
HETATM   22  O   UNL     1      45.509 -10.294   9.683  1.00  0.00    -0.266 OA
BRANCH  20  23
HETATM   23  N   UNL     1      41.030  -8.800  12.419  1.00  0.00    -0.074 N 
HETATM   24  C   UNL     1      41.280  -7.599  13.314  1.00  0.00     0.269 C 
HETATM   25  H   UNL     1      41.423  -8.558  11.501  1.00  0.00     0.279 HD
HETATM   26  C   UNL     1      39.536  -8.952  12.219  1.00  0.00     0.269 C 
ENDBRANCH  20  23
ENDBRANCH  13  15
ENDBRANCH   1  10
BRANCH   8  27
HETATM   27  C   UNL     1      42.968 -15.708   2.885  1.00  0.00     0.294 C 
BRANCH  27  28
HETATM   28  N   UNL     1      42.194 -16.967   3.074  1.00  0.00    -0.066 N 
HETATM   29  H   UNL     1      42.391 -17.307   4.026  1.00  0.00     0.277 HD
HETATM   30  H   UNL     1      41.196 -16.726   3.101  1.00  0.00     0.277 HD
BRANCH  28  31
HETATM   31  C   UNL     1      42.461 -18.018   2.061  1.00  0.00     0.272 C 
BRANCH  31  32
HETATM   32  C   UNL     1      43.263 -19.146   2.621  1.00  0.00    -0.015 A 
HETATM   33  C   UNL     1      43.790 -19.073   3.907  1.00  0.00     0.125 A 
HETATM   34  N   UNL     1      44.548 -20.036   4.465  1.00  0.00    -0.273 NA
HETATM   35  C   UNL     1      44.776 -21.146   3.733  1.00  0.00     0.116 A 
HETATM   36  C   UNL     1      44.295 -21.322   2.447  1.00  0.00     0.020 A 
HETATM   37  C   UNL     1      43.534 -20.301   1.880  1.00  0.00     0.012 A 
ENDBRANCH  31  32
ENDBRANCH  28  31
ENDBRANCH  27  28
ENDBRANCH   8  27
TORSDOF 7
ENDMDL
MODEL 7
REMARK VINA RESULT:      -8.1      3.707      7.959
REMARK  7 active torsions:
REMARK  status: ('A' for Active; 'I' for Inactive)
REMARK    1  A    between atoms: N_2  and  C_4 
REMARK       I    between atoms: N_7  and  C_8 
REMARK    2  A    between atoms: C_8  and  C_9 
REMARK    3  A    between atoms: N_12  and  C_13 
REMARK    4  A    between atoms: C_20  and  C_21 
REMARK    5  A    between atoms: C_21  and  N_22 
REMARK    6  A    between atoms: N_22  and  C_25 
REMARK    7  A    between atoms: C_25  and  C_26 
ROOT
HETATM    1  C   UNL     1      41.516 -14.190   2.048  1.00  0.00     0.719 A 
HETATM    2  N   UNL     1      41.041 -14.173   0.741  1.00  0.00    -0.154 N 
HETATM    3  C   UNL     1      41.556 -15.327   0.141  1.00  0.00     0.083 A 
HETATM    4  C   UNL     1      41.176 -15.622  -1.201  1.00  0.00     0.033 A 
HETATM    5  C   UNL     1      40.391 -14.757  -1.869  1.00  0.00     0.004 A 
HETATM    6  C   UNL     1      39.940 -13.521  -1.261  1.00  0.00     0.018 A 
HETATM    7  C   UNL     1      40.270 -13.259   0.015  1.00  0.00     0.115 A 
HETATM    8  C   UNL     1      42.400 -15.900   1.065  1.00  0.00     0.107 A 
HETATM    9  N   UNL     1      42.377 -15.184   2.244  1.00  0.00    -0.064 NA
ENDROOT
BRANCH   1  10
HETATM   10  N   UNL     1      41.176 -13.298   3.073  1.00  0.00    -0.147 N 
HETATM   11  C   UNL     1      41.435 -11.941   3.063  1.00  0.00     0.233 A 
HETATM   12  N   UNL     1      40.958 -11.318   4.118  1.00  0.00    -0.236 NA
HETATM   13  C   UNL     1      40.397 -12.298   4.906  1.00  0.00     0.142 A 
HETATM   14  C   UNL     1      40.574 -13.525   4.285  1.00  0.00     0.153 A 
BRANCH  13  15
HETATM   15  C   UNL     1      39.675 -12.128   6.181  1.00  0.00     0.273 C 
HETATM   16  N   UNL     1      40.242 -11.400   7.254  1.00  0.00    -0.347 N 
HETATM   17  C   UNL     1      41.682 -11.345   7.496  1.00  0.00     0.128 C 
HETATM   18  C   UNL     1      39.371 -11.244   8.417  1.00  0.00     0.128 C 
HETATM   19  C   UNL     1      42.079 -10.183   8.402  1.00  0.00     0.053 C 
HETATM   20  C   UNL     1      41.249 -10.113   9.689  1.00  0.00     0.190 C 
HETATM   21  C   UNL     1      39.771 -10.068   9.297  1.00  0.00     0.053 C 
HETATM   22  O   UNL     1      38.545 -12.609   6.294  1.00  0.00    -0.266 OA
BRANCH  20  23
HETATM   23  N   UNL     1      41.557 -11.280  10.646  1.00  0.00    -0.074 N 
HETATM   24  C   UNL     1      40.656 -11.301  11.866  1.00  0.00     0.269 C 
HETATM   25  H   UNL     1      41.394 -12.168  10.156  1.00  0.00     0.279 HD
HETATM   26  C   UNL     1      43.000 -11.305  11.108  1.00  0.00     0.269 C 
ENDBRANCH  20  23
ENDBRANCH  13  15
ENDBRANCH   1  10
BRANCH   8  27
HETATM   27  C   UNL     1      43.257 -17.110   0.924  1.00  0.00     0.294 C 
BRANCH  27  28
HETATM   28  N   UNL     1      44.028 -17.367   2.172  1.00  0.00    -0.066 N 
HETATM   29  H   UNL     1      44.931 -17.777   1.895  1.00  0.00     0.277 HD
HETATM   30  H   UNL     1      44.286 -16.459   2.579  1.00  0.00     0.277 HD
BRANCH  28  31
HETATM   31  C   UNL     1      43.332 -18.220   3.167  1.00  0.00     0.272 C 
BRANCH  31  32
HETATM   32  C   UNL     1      43.736 -19.653   3.058  1.00  0.00    -0.015 A 
HETATM   33  C   UNL     1      44.438 -20.274   4.087  1.00  0.00     0.125 A 
HETATM   34  N   UNL     1      44.863 -21.551   4.044  1.00  0.00    -0.273 NA
HETATM   35  C   UNL     1      44.554 -22.269   2.944  1.00  0.00     0.116 A 
HETATM   36  C   UNL     1      43.857 -21.750   1.867  1.00  0.00     0.020 A 
HETATM   37  C   UNL     1      43.450 -20.418   1.922  1.00  0.00     0.012 A 
ENDBRANCH  31  32
ENDBRANCH  28  31
ENDBRANCH  27  28
ENDBRANCH   8  27
TORSDOF 7
ENDMDL
MODEL 8
REMARK VINA RESULT:      -7.9      5.034      9.134
REMARK  7 active torsions:
REMARK  status: ('A' for Active; 'I' for Inactive)
REMARK    1  A    between atoms: N_2  and  C_4 
REMARK       I    between atoms: N_7  and  C_8 
REMARK    2  A    between atoms: C_8  and  C_9 
REMARK    3  A    between atoms: N_12  and  C_13 
REMARK    4  A    between atoms: C_20  and  C_21 
REMARK    5  A    between atoms: C_21  and  N_22 
REMARK    6  A    between atoms: N_22  and  C_25 
REMARK    7  A    between atoms: C_25  and  C_26 
ROOT
HETATM    1  C   UNL     1      40.359 -13.357   4.323  1.00  0.00     0.719 A 
HETATM    2  N   UNL     1      39.556 -13.415   3.189  1.00  0.00    -0.154 N 
HETATM    3  C   UNL     1      39.635 -14.739   2.743  1.00  0.00     0.083 A 
HETATM    4  C   UNL     1      38.848 -15.124   1.619  1.00  0.00     0.033 A 
HETATM    5  C   UNL     1      38.106 -14.199   0.984  1.00  0.00     0.004 A 
HETATM    6  C   UNL     1      38.106 -12.812   1.406  1.00  0.00     0.018 A 
HETATM    7  C   UNL     1      38.822 -12.454   2.486  1.00  0.00     0.115 A 
HETATM    8  C   UNL     1      40.563 -15.363   3.545  1.00  0.00     0.107 A 
HETATM    9  N   UNL     1      41.015 -14.496   4.519  1.00  0.00    -0.064 NA
ENDROOT
BRANCH   1  10
HETATM   10  N   UNL     1      40.507 -12.264   5.187  1.00  0.00    -0.147 N 
HETATM   11  C   UNL     1      41.369 -11.204   4.986  1.00  0.00     0.233 A 
HETATM   12  N   UNL     1      41.271 -10.277   5.914  1.00  0.00    -0.236 NA
HETATM   13  C   UNL     1      40.344 -10.750   6.814  1.00  0.00     0.142 A 
HETATM   14  C   UNL     1      39.908 -11.998   6.393  1.00  0.00     0.153 A 
BRANCH  13  15
HETATM   15  C   UNL     1      39.825 -10.072   8.017  1.00  0.00     0.273 C 
HETATM   16  N   UNL     1      40.677  -9.740   9.097  1.00  0.00    -0.347 N 
HETATM   17  C   UNL     1      41.847 -10.541   9.453  1.00  0.00     0.128 C 
HETATM   18  C   UNL     1      40.036  -8.993  10.177  1.00  0.00     0.128 C 
HETATM   19  C   UNL     1      42.832  -9.777  10.333  1.00  0.00     0.053 C 
HETATM   20  C   UNL     1      42.167  -9.112  11.544  1.00  0.00     0.190 C 
HETATM   21  C   UNL     1      41.033  -8.222  11.031  1.00  0.00     0.053 C 
HETATM   22  O   UNL     1      38.631  -9.766   8.060  1.00  0.00    -0.266 OA
BRANCH  20  23
HETATM   23  N   UNL     1      41.671 -10.142  12.576  1.00  0.00    -0.074 N 
HETATM   24  C   UNL     1      41.082  -9.501  13.819  1.00  0.00     0.269 C 
HETATM   25  H   UNL     1      40.917 -10.700  12.158  1.00  0.00     0.279 HD
HETATM   26  C   UNL     1      42.745 -11.124  12.999  1.00  0.00     0.269 C 
ENDBRANCH  20  23
ENDBRANCH  13  15
ENDBRANCH   1  10
BRANCH   8  27
HETATM   27  C   UNL     1      41.078 -16.759   3.467  1.00  0.00     0.294 C 
BRANCH  27  28
HETATM   28  N   UNL     1      42.565 -16.775   3.381  1.00  0.00    -0.066 N 
HETATM   29  H   UNL     1      42.880 -15.795   3.346  1.00  0.00     0.277 HD
HETATM   30  H   UNL     1      42.932 -17.119   4.277  1.00  0.00     0.277 HD
BRANCH  28  31
HETATM   31  C   UNL     1      43.112 -17.558   2.245  1.00  0.00     0.272 C 
BRANCH  31  32
HETATM   32  C   UNL     1      43.640 -18.885   2.682  1.00  0.00    -0.015 A 
HETATM   33  C   UNL     1      44.209 -19.044   3.942  1.00  0.00     0.125 A 
HETATM   34  N   UNL     1      44.733 -20.200   4.391  1.00  0.00    -0.273 NA
HETATM   35  C   UNL     1      44.666 -21.269   3.569  1.00  0.00     0.116 A 
HETATM   36  C   UNL     1      44.118 -21.220   2.300  1.00  0.00     0.020 A 
HETATM   37  C   UNL     1      43.604 -20.007   1.847  1.00  0.00     0.012 A 
ENDBRANCH  31  32
ENDBRANCH  28  31
ENDBRANCH  27  28
ENDBRANCH   8  27
TORSDOF 7
ENDMDL
MODEL 9
REMARK VINA RESULT:      -7.9      3.222      4.342
REMARK  7 active torsions:
REMARK  status: ('A' for Active; 'I' for Inactive)
REMARK    1  A    between atoms: N_2  and  C_4 
REMARK       I    between atoms: N_7  and  C_8 
REMARK    2  A    between atoms: C_8  and  C_9 
REMARK    3  A    between atoms: N_12  and  C_13 
REMARK    4  A    between atoms: C_20  and  C_21 
REMARK    5  A    between atoms: C_21  and  N_22 
REMARK    6  A    between atoms: N_22  and  C_25 
REMARK    7  A    between atoms: C_25  and  C_26 
ROOT
HETATM    1  C   UNL     1      42.811 -15.096   4.603  1.00  0.00     0.719 A 
HETATM    2  N   UNL     1      42.981 -16.253   5.356  1.00  0.00    -0.154 N 
HETATM    3  C   UNL     1      43.704 -15.860   6.487  1.00  0.00     0.083 A 
HETATM    4  C   UNL     1      43.972 -16.833   7.493  1.00  0.00     0.033 A 
HETATM    5  C   UNL     1      43.582 -18.106   7.300  1.00  0.00     0.004 A 
HETATM    6  C   UNL     1      42.913 -18.514   6.081  1.00  0.00     0.018 A 
HETATM    7  C   UNL     1      42.630 -17.591   5.147  1.00  0.00     0.115 A 
HETATM    8  C   UNL     1      44.032 -14.537   6.296  1.00  0.00     0.107 A 
HETATM    9  N   UNL     1      43.481 -14.071   5.119  1.00  0.00    -0.064 NA
ENDROOT
BRANCH   1  10
HETATM   10  N   UNL     1      42.049 -14.963   3.435  1.00  0.00    -0.147 N 
HETATM   11  C   UNL     1      40.692 -14.710   3.397  1.00  0.00     0.233 A 
HETATM   12  N   UNL     1      40.228 -14.569   2.175  1.00  0.00    -0.236 NA
HETATM   13  C   UNL     1      41.302 -14.788   1.342  1.00  0.00     0.142 A 
HETATM   14  C   UNL     1      42.415 -15.079   2.117  1.00  0.00     0.153 A 
BRANCH  13  15
HETATM   15  C   UNL     1      41.338 -14.695  -0.129  1.00  0.00     0.273 C 
HETATM   16  N   UNL     1      41.818 -13.533  -0.779  1.00  0.00    -0.347 N 
HETATM   17  C   UNL     1      41.680 -12.195  -0.207  1.00  0.00     0.128 C 
HETATM   18  C   UNL     1      41.874 -13.624  -2.237  1.00  0.00     0.128 C 
HETATM   19  C   UNL     1      42.631 -11.185  -0.844  1.00  0.00     0.053 C 
HETATM   20  C   UNL     1      42.578 -11.192  -2.376  1.00  0.00     0.190 C 
HETATM   21  C   UNL     1      42.843 -12.623  -2.851  1.00  0.00     0.053 C 
HETATM   22  O   UNL     1      40.968 -15.663  -0.797  1.00  0.00    -0.266 OA
BRANCH  20  23
HETATM   23  N   UNL     1      41.245 -10.642  -2.917  1.00  0.00    -0.074 N 
HETATM   24  C   UNL     1      41.158 -10.680  -4.431  1.00  0.00     0.269 C 
HETATM   25  H   UNL     1      40.475 -11.229  -2.572  1.00  0.00     0.279 HD
HETATM   26  C   UNL     1      40.951  -9.231  -2.449  1.00  0.00     0.269 C 
ENDBRANCH  20  23
ENDBRANCH  13  15
ENDBRANCH   1  10
BRANCH   8  27
HETATM   27  C   UNL     1      44.852 -13.643   7.161  1.00  0.00     0.294 C 
BRANCH  27  28
HETATM   28  N   UNL     1      44.011 -12.992   8.204  1.00  0.00    -0.066 N 
HETATM   29  H   UNL     1      43.428 -12.287   7.730  1.00  0.00     0.277 HD
HETATM   30  H   UNL     1      43.331 -13.684   8.543  1.00  0.00     0.277 HD
BRANCH  28  31
HETATM   31  C   UNL     1      44.770 -12.394   9.329  1.00  0.00     0.272 C 
BRANCH  31  32
HETATM   32  C   UNL     1      43.975 -11.359  10.055  1.00  0.00    -0.015 A 
HETATM   33  C   UNL     1      42.819 -10.827   9.492  1.00  0.00     0.125 A 
HETATM   34  N   UNL     1      42.071  -9.870  10.073  1.00  0.00    -0.273 NA
HETATM   35  C   UNL     1      42.461  -9.432  11.288  1.00  0.00     0.116 A 
HETATM   36  C   UNL     1      43.591  -9.897  11.938  1.00  0.00     0.020 A 
HETATM   37  C   UNL     1      44.364 -10.870  11.307  1.00  0.00     0.012 A 
ENDBRANCH  31  32
ENDBRANCH  28  31
ENDBRANCH  27  28
ENDBRANCH   8  27
TORSDOF 7
ENDMDL
MODEL 10
REMARK VINA RESULT:      -7.8      2.531      9.538
REMARK  7 active torsions:
REMARK  status: ('A' for Active; 'I' for Inactive)
REMARK    1  A    between atoms: N_2  and  C_4 
REMARK       I    between atoms: N_7  and  C_8 
REMARK    2  A    between atoms: C_8  and  C_9 
REMARK    3  A    between atoms: N_12  and  C_13 
REMARK    4  A    between atoms: C_20  and  C_21 
REMARK    5  A    between atoms: C_21  and  N_22 
REMARK    6  A    between atoms: N_22  and  C_25 
REMARK    7  A    between atoms: C_25  and  C_26 
ROOT
HETATM    1  C   UNL     1      41.372 -13.584   0.815  1.00  0.00     0.719 A 
HETATM    2  N   UNL     1      41.153 -12.240   1.093  1.00  0.00    -0.154 N 
HETATM    3  C   UNL     1      41.503 -11.554  -0.076  1.00  0.00     0.083 A 
HETATM    4  C   UNL     1      41.314 -10.143  -0.117  1.00  0.00     0.033 A 
HETATM    5  C   UNL     1      40.868  -9.504   0.981  1.00  0.00     0.004 A 
HETATM    6  C   UNL     1      40.596 -10.219   2.212  1.00  0.00     0.018 A 
HETATM    7  C   UNL     1      40.743 -11.555   2.241  1.00  0.00     0.115 A 
HETATM    8  C   UNL     1      42.022 -12.495  -0.935  1.00  0.00     0.107 A 
HETATM    9  N   UNL     1      41.946 -13.753  -0.372  1.00  0.00    -0.064 NA
ENDROOT
BRANCH   1  10
HETATM   10  N   UNL     1      41.057 -14.671   1.641  1.00  0.00    -0.147 N 
HETATM   11  C   UNL     1      39.836 -15.315   1.674  1.00  0.00     0.233 A 
HETATM   12  N   UNL     1      39.819 -16.345   2.491  1.00  0.00    -0.236 NA
HETATM   13  C   UNL     1      41.063 -16.373   3.080  1.00  0.00     0.142 A 
HETATM   14  C   UNL     1      41.811 -15.312   2.591  1.00  0.00     0.153 A 
BRANCH  13  15
HETATM   15  C   UNL     1      41.587 -17.365   4.037  1.00  0.00     0.273 C 
HETATM   16  N   UNL     1      42.687 -18.192   3.707  1.00  0.00    -0.347 N 
HETATM   17  C   UNL     1      42.957 -18.639   2.341  1.00  0.00     0.128 C 
HETATM   18  C   UNL     1      43.147 -19.062   4.788  1.00  0.00     0.128 C 
HETATM   19  C   UNL     1      44.390 -19.131   2.159  1.00  0.00     0.053 C 
HETATM   20  C   UNL     1      44.815 -20.152   3.220  1.00  0.00     0.190 C 
HETATM   21  C   UNL     1      44.585 -19.525   4.598  1.00  0.00     0.053 C 
HETATM   22  O   UNL     1      41.070 -17.448   5.153  1.00  0.00    -0.266 OA
BRANCH  20  23
HETATM   23  N   UNL     1      44.078 -21.495   3.067  1.00  0.00    -0.074 N 
HETATM   24  C   UNL     1      44.664 -22.597   3.930  1.00  0.00     0.269 C 
HETATM   25  H   UNL     1      43.104 -21.381   3.373  1.00  0.00     0.279 HD
HETATM   26  C   UNL     1      44.021 -21.982   1.633  1.00  0.00     0.269 C 
ENDBRANCH  20  23
ENDBRANCH  13  15
ENDBRANCH   1  10
BRANCH   8  27
HETATM   27  C   UNL     1      42.606 -12.300  -2.292  1.00  0.00     0.294 C 
BRANCH  27  28
HETATM   28  N   UNL     1      41.619 -12.646  -3.353  1.00  0.00    -0.066 N 
HETATM   29  H   UNL     1      40.753 -12.129  -3.144  1.00  0.00     0.277 HD
HETATM   30  H   UNL     1      41.945 -12.234  -4.236  1.00  0.00     0.277 HD
BRANCH  28  31
HETATM   31  C   UNL     1      41.357 -14.098  -3.506  1.00  0.00     0.272 C 
BRANCH  31  32
HETATM   32  C   UNL     1      39.895 -14.400  -3.568  1.00  0.00    -0.015 A 
HETATM   33  C   UNL     1      39.444 -15.644  -4.001  1.00  0.00     0.125 A 
HETATM   34  N   UNL     1      38.144 -15.975  -4.111  1.00  0.00    -0.273 NA
HETATM   35  C   UNL     1      37.235 -15.046  -3.748  1.00  0.00     0.116 A 
HETATM   36  C   UNL     1      37.577 -13.782  -3.300  1.00  0.00     0.020 A 
HETATM   37  C   UNL     1      38.929 -13.452  -3.217  1.00  0.00     0.012 A 
ENDBRANCH  31  32
ENDBRANCH  28  31
ENDBRANCH  27  28
ENDBRANCH   8  27
TORSDOF 7
ENDMDL
