MODEL 1
REMARK VINA RESULT:      -9.3      0.000      0.000
REMARK  6 active torsions:
REMARK  status: ('A' for Active; 'I' for Inactive)
REMARK    1  A    between atoms: C_7  and  C_8 
REMARK    2  A    between atoms: N_9  and  N_10 
REMARK       I    between atoms: N_10  and  C_11 
REMARK    3  A    between atoms: C_11  and  C_12 
REMARK    4  A    between atoms: C_12  and  N_13 
REMARK       I    between atoms: N_13  and  C_14 
REMARK    5  A    between atoms: C_14  and  C_15 
REMARK    6  A    between atoms: C_15  and  C_16 
ROOT
HETATM    1  N   UNL     1      43.993 -14.700   7.180  1.00  0.00    -0.246 N 
HETATM    2  C   UNL     1      45.019 -13.791   7.362  1.00  0.00     0.255 C 
HETATM    3  O   UNL     1      45.834 -13.459   6.501  1.00  0.00    -0.270 OA
HETATM    4  H   UNL     1      43.269 -14.768   7.901  1.00  0.00     0.192 HD
ENDROOT
BRANCH   1   5
HETATM    5  N   UNL     1      43.759 -15.244   5.947  1.00  0.00    -0.184 NA
HETATM    6  C   UNL     1      43.200 -16.410   5.973  1.00  0.00     0.153 C 
BRANCH   6   7
HETATM    7  C   UNL     1      42.820 -17.078   4.742  1.00  0.00     0.018 A 
HETATM    8  C   UNL     1      41.810 -16.629   3.901  1.00  0.00     0.018 A 
HETATM    9  C   UNL     1      40.890 -15.467   4.016  1.00  0.00     0.069 C 
HETATM   10  N   UNL     1      41.754 -17.480   2.825  1.00  0.00    -0.358 N 
HETATM   11  H   UNL     1      41.113 -17.398   2.048  1.00  0.00     0.166 HD
HETATM   12  C   UNL     1      42.699 -18.470   2.939  1.00  0.00     0.043 A 
HETATM   13  C   UNL     1      43.378 -18.254   4.139  1.00  0.00     0.004 A 
HETATM   14  C   UNL     1      43.001 -19.527   2.070  1.00  0.00     0.030 A 
HETATM   15  C   UNL     1      44.412 -19.153   4.486  1.00  0.00     0.014 A 
HETATM   16  C   UNL     1      44.726 -20.216   3.630  1.00  0.00     0.001 A 
HETATM   17  C   UNL     1      44.030 -20.397   2.438  1.00  0.00     0.002 A 
ENDBRANCH   6   7
ENDBRANCH   1   5
BRANCH   2  18
HETATM   18  C   UNL     1      44.957 -13.053   8.706  1.00  0.00     0.227 C 
BRANCH  18  19
HETATM   19  N   UNL     1      43.877 -12.092   8.913  1.00  0.00    -0.352 N 
HETATM   20  C   UNL     1      44.084 -10.859   9.485  1.00  0.00     0.222 C 
HETATM   21  O   UNL     1      45.207 -10.365   9.570  1.00  0.00    -0.273 OA
HETATM   22  H   UNL     1      42.931 -12.445   8.844  1.00  0.00     0.162 HD
BRANCH  20  23
HETATM   23  C   UNL     1      42.832 -10.155   9.972  1.00  0.00     0.141 C 
BRANCH  23  24
HETATM   24  C   UNL     1      42.657 -10.209  11.466  1.00  0.00    -0.050 A 
HETATM   25  C   UNL     1      43.501  -9.475  12.311  1.00  0.00     0.007 A 
HETATM   26  C   UNL     1      43.318  -9.508  13.694  1.00  0.00     0.001 A 
HETATM   27  C   UNL     1      42.297 -10.278  14.247  1.00  0.00     0.000 A 
HETATM   28  C   UNL     1      41.461 -11.022  13.417  1.00  0.00     0.001 A 
HETATM   29  C   UNL     1      41.641 -10.992  12.033  1.00  0.00     0.007 A 
ENDBRANCH  23  24
ENDBRANCH  20  23
ENDBRANCH  18  19
ENDBRANCH   2  18
TORSDOF 6
ENDMDL
MODEL 2
REMARK VINA RESULT:      -9.1      1.502      2.357
REMARK  6 active torsions:
REMARK  status: ('A' for Active; 'I' for Inactive)
REMARK    1  A    between atoms: C_7  and  C_8 
REMARK    2  A    between atoms: N_9  and  N_10 
REMARK       I    between atoms: N_10  and  C_11 
REMARK    3  A    between atoms: C_11  and  C_12 
REMARK    4  A    between atoms: C_12  and  N_13 
REMARK       I    between atoms: N_13  and  C_14 
REMARK    5  A    between atoms: C_14  and  C_15 
REMARK    6  A    between atoms: C_15  and  C_16 
ROOT
HETATM    1  N   UNL     1      43.876 -14.854   7.317  1.00  0.00    -0.246 N 
HETATM    2  C   UNL     1      44.683 -13.735   7.417  1.00  0.00     0.255 C 
HETATM    3  O   UNL     1      45.832 -13.648   6.983  1.00  0.00    -0.270 OA
HETATM    4  H   UNL     1      42.883 -14.761   7.549  1.00  0.00     0.192 HD
ENDROOT
BRANCH   1   5
HETATM    5  N   UNL     1      44.296 -15.952   6.619  1.00  0.00    -0.184 NA
HETATM    6  C   UNL     1      43.417 -16.897   6.526  1.00  0.00     0.153 C 
BRANCH   6   7
HETATM    7  C   UNL     1      43.693 -18.092   5.751  1.00  0.00     0.018 A 
HETATM    8  C   UNL     1      43.918 -19.343   6.313  1.00  0.00     0.018 A 
HETATM    9  C   UNL     1      43.970 -19.777   7.734  1.00  0.00     0.069 C 
HETATM   10  N   UNL     1      44.107 -20.234   5.287  1.00  0.00    -0.358 N 
HETATM   11  H   UNL     1      44.289 -21.222   5.398  1.00  0.00     0.166 HD
HETATM   12  C   UNL     1      44.010 -19.603   4.071  1.00  0.00     0.043 A 
HETATM   13  C   UNL     1      43.762 -18.254   4.327  1.00  0.00     0.004 A 
HETATM   14  C   UNL     1      44.117 -20.128   2.776  1.00  0.00     0.030 A 
HETATM   15  C   UNL     1      43.621 -17.385   3.221  1.00  0.00     0.014 A 
HETATM   16  C   UNL     1      43.726 -17.893   1.920  1.00  0.00     0.001 A 
HETATM   17  C   UNL     1      43.969 -19.246   1.703  1.00  0.00     0.002 A 
ENDBRANCH   6   7
ENDBRANCH   1   5
BRANCH   2  18
HETATM   18  C   UNL     1      43.955 -12.497   7.957  1.00  0.00     0.227 C 
BRANCH  18  19
HETATM   19  N   UNL     1      44.143 -12.150   9.363  1.00  0.00    -0.352 N 
HETATM   20  C   UNL     1      43.796 -10.920   9.873  1.00  0.00     0.222 C 
HETATM   21  O   UNL     1      43.036 -10.161   9.274  1.00  0.00    -0.273 OA
HETATM   22  H   UNL     1      44.752 -12.748   9.905  1.00  0.00     0.162 HD
BRANCH  20  23
HETATM   23  C   UNL     1      44.398 -10.590  11.225  1.00  0.00     0.141 C 
BRANCH  23  24
HETATM   24  C   UNL     1      43.371 -10.424  12.314  1.00  0.00    -0.050 A 
HETATM   25  C   UNL     1      42.180 -11.162  12.290  1.00  0.00     0.007 A 
HETATM   26  C   UNL     1      41.243 -11.024  13.315  1.00  0.00     0.001 A 
HETATM   27  C   UNL     1      41.482 -10.143  14.368  1.00  0.00     0.000 A 
HETATM   28  C   UNL     1      42.657  -9.395  14.394  1.00  0.00     0.001 A 
HETATM   29  C   UNL     1      43.596  -9.530  13.371  1.00  0.00     0.007 A 
ENDBRANCH  23  24
ENDBRANCH  20  23
ENDBRANCH  18  19
ENDBRANCH   2  18
TORSDOF 6
ENDMDL
MODEL 3
REMARK VINA RESULT:      -8.9      5.927      9.702
REMARK  6 active torsions:
REMARK  status: ('A' for Active; 'I' for Inactive)
REMARK    1  A    between atoms: C_7  and  C_8 
REMARK    2  A    between atoms: N_9  and  N_10 
REMARK       I    between atoms: N_10  and  C_11 
REMARK    3  A    between atoms: C_11  and  C_12 
REMARK    4  A    between atoms: C_12  and  N_13 
REMARK       I    between atoms: N_13  and  C_14 
REMARK    5  A    between atoms: C_14  and  C_15 
REMARK    6  A    between atoms: C_15  and  C_16 
ROOT
HETATM    1  N   UNL     1      42.526 -15.211   2.481  1.00  0.00    -0.246 N 
HETATM    2  C   UNL     1      42.933 -13.911   2.718  1.00  0.00     0.255 C 
HETATM    3  O   UNL     1      43.978 -13.586   3.283  1.00  0.00    -0.270 OA
HETATM    4  H   UNL     1      41.736 -15.367   1.850  1.00  0.00     0.192 HD
ENDROOT
BRANCH   1   5
HETATM    5  N   UNL     1      43.342 -16.262   2.799  1.00  0.00    -0.184 NA
HETATM    6  C   UNL     1      42.901 -17.013   3.756  1.00  0.00     0.153 C 
BRANCH   6   7
HETATM    7  C   UNL     1      43.621 -18.209   4.151  1.00  0.00     0.018 A 
HETATM    8  C   UNL     1      44.269 -18.352   5.371  1.00  0.00     0.018 A 
HETATM    9  C   UNL     1      44.430 -17.406   6.506  1.00  0.00     0.069 C 
HETATM   10  N   UNL     1      44.806 -19.615   5.413  1.00  0.00    -0.358 N 
HETATM   11  H   UNL     1      45.334 -20.000   6.184  1.00  0.00     0.166 HD
HETATM   12  C   UNL     1      44.525 -20.301   4.257  1.00  0.00     0.043 A 
HETATM   13  C   UNL     1      43.792 -19.442   3.437  1.00  0.00     0.004 A 
HETATM   14  C   UNL     1      44.860 -21.610   3.886  1.00  0.00     0.030 A 
HETATM   15  C   UNL     1      43.380 -19.924   2.174  1.00  0.00     0.014 A 
HETATM   16  C   UNL     1      43.707 -21.229   1.787  1.00  0.00     0.001 A 
HETATM   17  C   UNL     1      44.435 -22.059   2.633  1.00  0.00     0.002 A 
ENDBRANCH   6   7
ENDBRANCH   1   5
BRANCH   2  18
HETATM   18  C   UNL     1      42.053 -12.856   2.034  1.00  0.00     0.227 C 
BRANCH  18  19
HETATM   19  N   UNL     1      41.964 -12.876   0.577  1.00  0.00    -0.352 N 
HETATM   20  C   UNL     1      41.235 -13.822  -0.106  1.00  0.00     0.222 C 
HETATM   21  O   UNL     1      40.378 -14.505   0.450  1.00  0.00    -0.273 OA
HETATM   22  H   UNL     1      42.642 -12.322   0.070  1.00  0.00     0.162 HD
BRANCH  20  23
HETATM   23  C   UNL     1      41.553 -13.935  -1.585  1.00  0.00     0.141 C 
BRANCH  23  24
HETATM   24  C   UNL     1      40.406 -14.464  -2.405  1.00  0.00    -0.050 A 
HETATM   25  C   UNL     1      39.239 -13.706  -2.574  1.00  0.00     0.007 A 
HETATM   26  C   UNL     1      38.190 -14.190  -3.356  1.00  0.00     0.001 A 
HETATM   27  C   UNL     1      38.293 -15.436  -3.971  1.00  0.00     0.000 A 
HETATM   28  C   UNL     1      39.443 -16.203  -3.800  1.00  0.00     0.001 A 
HETATM   29  C   UNL     1      40.494 -15.723  -3.017  1.00  0.00     0.007 A 
ENDBRANCH  23  24
ENDBRANCH  20  23
ENDBRANCH  18  19
ENDBRANCH   2  18
TORSDOF 6
ENDMDL
MODEL 4
REMARK VINA RESULT:      -8.8      5.082      7.648
REMARK  6 active torsions:
REMARK  status: ('A' for Active; 'I' for Inactive)
REMARK    1  A    between atoms: C_7  and  C_8 
REMARK    2  A    between atoms: N_9  and  N_10 
REMARK       I    between atoms: N_10  and  C_11 
REMARK    3  A    between atoms: C_11  and  C_12 
REMARK    4  A    between atoms: C_12  and  N_13 
REMARK       I    between atoms: N_13  and  C_14 
REMARK    5  A    between atoms: C_14  and  C_15 
REMARK    6  A    between atoms: C_15  and  C_16 
ROOT
HETATM    1  N   UNL     1      42.837 -14.578   5.493  1.00  0.00    -0.246 N 
HETATM    2  C   UNL     1      43.169 -13.581   4.594  1.00  0.00     0.255 C 
HETATM    3  O   UNL     1      44.145 -13.598   3.845  1.00  0.00    -0.270 OA
HETATM    4  H   UNL     1      41.914 -14.548   5.935  1.00  0.00     0.192 HD
ENDROOT
BRANCH   1   5
HETATM    5  N   UNL     1      43.560 -15.738   5.541  1.00  0.00    -0.184 NA
HETATM    6  C   UNL     1      42.870 -16.810   5.322  1.00  0.00     0.153 C 
BRANCH   6   7
HETATM    7  C   UNL     1      43.515 -18.108   5.265  1.00  0.00     0.018 A 
HETATM    8  C   UNL     1      44.028 -18.764   6.377  1.00  0.00     0.018 A 
HETATM    9  C   UNL     1      44.090 -18.358   7.806  1.00  0.00     0.069 C 
HETATM   10  N   UNL     1      44.527 -19.971   5.956  1.00  0.00    -0.358 N 
HETATM   11  H   UNL     1      44.961 -20.663   6.551  1.00  0.00     0.166 HD
HETATM   12  C   UNL     1      44.353 -20.124   4.603  1.00  0.00     0.043 A 
HETATM   13  C   UNL     1      43.732 -18.965   4.135  1.00  0.00     0.004 A 
HETATM   14  C   UNL     1      44.694 -21.197   3.769  1.00  0.00     0.030 A 
HETATM   15  C   UNL     1      43.443 -18.879   2.755  1.00  0.00     0.014 A 
HETATM   16  C   UNL     1      43.778 -19.942   1.907  1.00  0.00     0.001 A 
HETATM   17  C   UNL     1      44.393 -21.085   2.409  1.00  0.00     0.002 A 
ENDBRANCH   6   7
ENDBRANCH   1   5
BRANCH   2  18
HETATM   18  C   UNL     1      42.093 -12.496   4.453  1.00  0.00     0.227 C 
BRANCH  18  19
HETATM   19  N   UNL     1      41.025 -12.710   3.481  1.00  0.00    -0.352 N 
HETATM   20  C   UNL     1      40.001 -13.605   3.694  1.00  0.00     0.222 C 
HETATM   21  O   UNL     1      39.744 -14.041   4.815  1.00  0.00    -0.273 OA
HETATM   22  H   UNL     1      41.181 -12.362   2.545  1.00  0.00     0.162 HD
BRANCH  20  23
HETATM   23  C   UNL     1      39.210 -13.984   2.457  1.00  0.00     0.141 C 
BRANCH  23  24
HETATM   24  C   UNL     1      39.970 -14.869   1.507  1.00  0.00    -0.050 A 
HETATM   25  C   UNL     1      40.363 -14.395   0.248  1.00  0.00     0.007 A 
HETATM   26  C   UNL     1      41.091 -15.210  -0.620  1.00  0.00     0.001 A 
HETATM   27  C   UNL     1      41.427 -16.509  -0.242  1.00  0.00     0.000 A 
HETATM   28  C   UNL     1      41.030 -16.996   1.002  1.00  0.00     0.001 A 
HETATM   29  C   UNL     1      40.301 -16.183   1.871  1.00  0.00     0.007 A 
ENDBRANCH  23  24
ENDBRANCH  20  23
ENDBRANCH  18  19
ENDBRANCH   2  18
TORSDOF 6
ENDMDL
MODEL 5
REMARK VINA RESULT:      -8.5      6.360     10.085
REMARK  6 active torsions:
REMARK  status: ('A' for Active; 'I' for Inactive)
REMARK    1  A    between atoms: C_7  and  C_8 
REMARK    2  A    between atoms: N_9  and  N_10 
REMARK       I    between atoms: N_10  and  C_11 
REMARK    3  A    between atoms: C_11  and  C_12 
REMARK    4  A    between atoms: C_12  and  N_13 
REMARK       I    between atoms: N_13  and  C_14 
REMARK    5  A    between atoms: C_14  and  C_15 
REMARK    6  A    between atoms: C_15  and  C_16 
ROOT
HETATM    1  N   UNL     1      40.112 -16.393   1.391  1.00  0.00    -0.246 N 
HETATM    2  C   UNL     1      39.580 -15.189   1.812  1.00  0.00     0.255 C 
HETATM    3  O   UNL     1      39.601 -14.770   2.970  1.00  0.00    -0.270 OA
HETATM    4  H   UNL     1      40.201 -16.561   0.385  1.00  0.00     0.192 HD
ENDROOT
BRANCH   1   5
HETATM    5  N   UNL     1      40.805 -17.188   2.262  1.00  0.00    -0.184 NA
HETATM    6  C   UNL     1      42.063 -17.315   1.988  1.00  0.00     0.153 C 
BRANCH   6   7
HETATM    7  C   UNL     1      42.940 -18.066   2.866  1.00  0.00     0.018 A 
HETATM    8  C   UNL     1      43.453 -17.566   4.057  1.00  0.00     0.018 A 
HETATM    9  C   UNL     1      43.296 -16.237   4.704  1.00  0.00     0.069 C 
HETATM   10  N   UNL     1      44.207 -18.556   4.635  1.00  0.00    -0.358 N 
HETATM   11  H   UNL     1      44.701 -18.477   5.513  1.00  0.00     0.166 HD
HETATM   12  C   UNL     1      44.200 -19.689   3.858  1.00  0.00     0.043 A 
HETATM   13  C   UNL     1      43.424 -19.410   2.733  1.00  0.00     0.004 A 
HETATM   14  C   UNL     1      44.816 -20.929   4.073  1.00  0.00     0.030 A 
HETATM   15  C   UNL     1      43.263 -20.432   1.770  1.00  0.00     0.014 A 
HETATM   16  C   UNL     1      43.873 -21.677   1.968  1.00  0.00     0.001 A 
HETATM   17  C   UNL     1      44.636 -21.920   3.105  1.00  0.00     0.002 A 
ENDBRANCH   6   7
ENDBRANCH   1   5
BRANCH   2  18
HETATM   18  C   UNL     1      39.110 -14.287   0.664  1.00  0.00     0.227 C 
BRANCH  18  19
HETATM   19  N   UNL     1      39.551 -14.612  -0.689  1.00  0.00    -0.352 N 
HETATM   20  C   UNL     1      40.842 -14.401  -1.117  1.00  0.00     0.222 C 
HETATM   21  O   UNL     1      41.766 -14.226  -0.325  1.00  0.00    -0.273 OA
HETATM   22  H   UNL     1      38.830 -14.775  -1.379  1.00  0.00     0.162 HD
BRANCH  20  23
HETATM   23  C   UNL     1      41.035 -14.426  -2.621  1.00  0.00     0.141 C 
BRANCH  23  24
HETATM   24  C   UNL     1      41.141 -13.056  -3.236  1.00  0.00    -0.050 A 
HETATM   25  C   UNL     1      42.368 -12.380  -3.266  1.00  0.00     0.007 A 
HETATM   26  C   UNL     1      42.467 -11.121  -3.859  1.00  0.00     0.001 A 
HETATM   27  C   UNL     1      41.342 -10.523  -4.421  1.00  0.00     0.000 A 
HETATM   28  C   UNL     1      40.113 -11.180  -4.385  1.00  0.00     0.001 A 
HETATM   29  C   UNL     1      40.011 -12.439  -3.791  1.00  0.00     0.007 A 
ENDBRANCH  23  24
ENDBRANCH  20  23
ENDBRANCH  18  19
ENDBRANCH   2  18
TORSDOF 6
ENDMDL
MODEL 6
REMARK VINA RESULT:      -8.5      2.110      2.740
REMARK  6 active torsions:
REMARK  status: ('A' for Active; 'I' for Inactive)
REMARK    1  A    between atoms: C_7  and  C_8 
REMARK    2  A    between atoms: N_9  and  N_10 
REMARK       I    between atoms: N_10  and  C_11 
REMARK    3  A    between atoms: C_11  and  C_12 
REMARK    4  A    between atoms: C_12  and  N_13 
REMARK       I    between atoms: N_13  and  C_14 
REMARK    5  A    between atoms: C_14  and  C_15 
REMARK    6  A    between atoms: C_15  and  C_16 
ROOT
HETATM    1  N   UNL     1      42.296 -13.438   6.247  1.00  0.00    -0.246 N 
HETATM    2  C   UNL     1      41.387 -12.446   5.932  1.00  0.00     0.255 C 
HETATM    3  O   UNL     1      40.508 -12.536   5.073  1.00  0.00    -0.270 OA
HETATM    4  H   UNL     1      42.863 -13.328   7.092  1.00  0.00     0.192 HD
ENDROOT
BRANCH   1   5
HETATM    5  N   UNL     1      42.213 -14.669   5.657  1.00  0.00    -0.184 NA
HETATM    6  C   UNL     1      43.320 -15.340   5.659  1.00  0.00     0.153 C 
BRANCH   6   7
HETATM    7  C   UNL     1      43.367 -16.693   5.137  1.00  0.00     0.018 A 
HETATM    8  C   UNL     1      43.261 -17.830   5.928  1.00  0.00     0.018 A 
HETATM    9  C   UNL     1      43.115 -17.983   7.399  1.00  0.00     0.069 C 
HETATM   10  N   UNL     1      43.312 -18.922   5.099  1.00  0.00    -0.358 N 
HETATM   11  H   UNL     1      43.255 -19.886   5.398  1.00  0.00     0.166 HD
HETATM   12  C   UNL     1      43.445 -18.532   3.789  1.00  0.00     0.043 A 
HETATM   13  C   UNL     1      43.496 -17.138   3.779  1.00  0.00     0.004 A 
HETATM   14  C   UNL     1      43.518 -19.308   2.624  1.00  0.00     0.030 A 
HETATM   15  C   UNL     1      43.633 -16.489   2.531  1.00  0.00     0.014 A 
HETATM   16  C   UNL     1      43.709 -17.249   1.357  1.00  0.00     0.001 A 
HETATM   17  C   UNL     1      43.650 -18.638   1.405  1.00  0.00     0.002 A 
ENDBRANCH   6   7
ENDBRANCH   1   5
BRANCH   2  18
HETATM   18  C   UNL     1      41.424 -11.248   6.889  1.00  0.00     0.227 C 
BRANCH  18  19
HETATM   19  N   UNL     1      42.100 -11.415   8.172  1.00  0.00    -0.352 N 
HETATM   20  C   UNL     1      42.512 -10.347   8.935  1.00  0.00     0.222 C 
HETATM   21  O   UNL     1      42.073  -9.213   8.752  1.00  0.00    -0.273 OA
HETATM   22  H   UNL     1      42.472 -12.333   8.378  1.00  0.00     0.162 HD
BRANCH  20  23
HETATM   23  C   UNL     1      43.516 -10.680  10.022  1.00  0.00     0.141 C 
BRANCH  23  24
HETATM   24  C   UNL     1      42.961 -10.545  11.414  1.00  0.00    -0.050 A 
HETATM   25  C   UNL     1      41.735 -11.134  11.755  1.00  0.00     0.007 A 
HETATM   26  C   UNL     1      41.237 -11.028  13.054  1.00  0.00     0.001 A 
HETATM   27  C   UNL     1      41.953 -10.327  14.022  1.00  0.00     0.000 A 
HETATM   28  C   UNL     1      43.166  -9.726  13.691  1.00  0.00     0.001 A 
HETATM   29  C   UNL     1      43.667  -9.830  12.393  1.00  0.00     0.007 A 
ENDBRANCH  23  24
ENDBRANCH  20  23
ENDBRANCH  18  19
ENDBRANCH   2  18
TORSDOF 6
ENDMDL
MODEL 7
REMARK VINA RESULT:      -8.5      2.273      3.382
REMARK  6 active torsions:
REMARK  status: ('A' for Active; 'I' for Inactive)
REMARK    1  A    between atoms: C_7  and  C_8 
REMARK    2  A    between atoms: N_9  and  N_10 
REMARK       I    between atoms: N_10  and  C_11 
REMARK    3  A    between atoms: C_11  and  C_12 
REMARK    4  A    between atoms: C_12  and  N_13 
REMARK       I    between atoms: N_13  and  C_14 
REMARK    5  A    between atoms: C_14  and  C_15 
REMARK    6  A    between atoms: C_15  and  C_16 
ROOT
HETATM    1  N   UNL     1      41.742 -14.652   6.220  1.00  0.00    -0.246 N 
HETATM    2  C   UNL     1      41.788 -13.366   5.716  1.00  0.00     0.255 C 
HETATM    3  O   UNL     1      42.632 -12.943   4.926  1.00  0.00    -0.270 OA
HETATM    4  H   UNL     1      40.902 -14.948   6.724  1.00  0.00     0.192 HD
ENDROOT
BRANCH   1   5
HETATM    5  N   UNL     1      42.623 -15.602   5.780  1.00  0.00    -0.184 NA
HETATM    6  C   UNL     1      42.336 -16.809   6.144  1.00  0.00     0.153 C 
BRANCH   6   7
HETATM    7  C   UNL     1      43.137 -17.931   5.690  1.00  0.00     0.018 A 
HETATM    8  C   UNL     1      43.940 -18.694   6.527  1.00  0.00     0.018 A 
HETATM    9  C   UNL     1      44.216 -18.581   7.983  1.00  0.00     0.069 C 
HETATM   10  N   UNL     1      44.517 -19.681   5.767  1.00  0.00    -0.358 N 
HETATM   11  H   UNL     1      45.151 -20.388   6.111  1.00  0.00     0.166 HD
HETATM   12  C   UNL     1      44.111 -19.586   4.458  1.00  0.00     0.043 A 
HETATM   13  C   UNL     1      43.253 -18.488   4.373  1.00  0.00     0.004 A 
HETATM   14  C   UNL     1      44.436 -20.388   3.357  1.00  0.00     0.030 A 
HETATM   15  C   UNL     1      42.697 -18.179   3.111  1.00  0.00     0.014 A 
HETATM   16  C   UNL     1      43.012 -18.970   2.000  1.00  0.00     0.001 A 
HETATM   17  C   UNL     1      43.868 -20.060   2.123  1.00  0.00     0.002 A 
ENDBRANCH   6   7
ENDBRANCH   1   5
BRANCH   2  18
HETATM   18  C   UNL     1      40.558 -12.520   6.073  1.00  0.00     0.227 C 
BRANCH  18  19
HETATM   19  N   UNL     1      40.546 -11.837   7.363  1.00  0.00    -0.352 N 
HETATM   20  C   UNL     1      41.248 -10.676   7.592  1.00  0.00     0.222 C 
HETATM   21  O   UNL     1      41.666  -9.980   6.669  1.00  0.00    -0.273 OA
HETATM   22  H   UNL     1      40.201 -12.363   8.155  1.00  0.00     0.162 HD
BRANCH  20  23
HETATM   23  C   UNL     1      41.438 -10.316   9.053  1.00  0.00     0.141 C 
BRANCH  23  24
HETATM   24  C   UNL     1      42.794 -10.690   9.591  1.00  0.00    -0.050 A 
HETATM   25  C   UNL     1      43.671 -11.477   8.832  1.00  0.00     0.007 A 
HETATM   26  C   UNL     1      44.936 -11.799   9.324  1.00  0.00     0.001 A 
HETATM   27  C   UNL     1      45.335 -11.346  10.580  1.00  0.00     0.000 A 
HETATM   28  C   UNL     1      44.466 -10.574  11.348  1.00  0.00     0.001 A 
HETATM   29  C   UNL     1      43.199 -10.250  10.859  1.00  0.00     0.007 A 
ENDBRANCH  23  24
ENDBRANCH  20  23
ENDBRANCH  18  19
ENDBRANCH   2  18
TORSDOF 6
ENDMDL
MODEL 8
REMARK VINA RESULT:      -8.3      5.570      8.822
REMARK  6 active torsions:
REMARK  status: ('A' for Active; 'I' for Inactive)
REMARK    1  A    between atoms: C_7  and  C_8 
REMARK    2  A    between atoms: N_9  and  N_10 
REMARK       I    between atoms: N_10  and  C_11 
REMARK    3  A    between atoms: C_11  and  C_12 
REMARK    4  A    between atoms: C_12  and  N_13 
REMARK       I    between atoms: N_13  and  C_14 
REMARK    5  A    between atoms: C_14  and  C_15 
REMARK    6  A    between atoms: C_15  and  C_16 
ROOT
HETATM    1  N   UNL     1      42.480 -14.922   3.511  1.00  0.00    -0.246 N 
HETATM    2  C   UNL     1      42.775 -13.666   4.009  1.00  0.00     0.255 C 
HETATM    3  O   UNL     1      43.775 -13.383   4.670  1.00  0.00    -0.270 OA
HETATM    4  H   UNL     1      41.722 -15.009   2.828  1.00  0.00     0.192 HD
ENDROOT
BRANCH   1   5
HETATM    5  N   UNL     1      43.367 -15.953   3.656  1.00  0.00    -0.184 NA
HETATM    6  C   UNL     1      42.847 -17.047   4.109  1.00  0.00     0.153 C 
BRANCH   6   7
HETATM    7  C   UNL     1      43.650 -18.249   4.244  1.00  0.00     0.018 A 
HETATM    8  C   UNL     1      44.507 -18.489   5.310  1.00  0.00     0.018 A 
HETATM    9  C   UNL     1      44.848 -17.656   6.493  1.00  0.00     0.069 C 
HETATM   10  N   UNL     1      45.069 -19.727   5.123  1.00  0.00    -0.358 N 
HETATM   11  H   UNL     1      45.733 -20.167   5.745  1.00  0.00     0.166 HD
HETATM   12  C   UNL     1      44.601 -20.304   3.968  1.00  0.00     0.043 A 
HETATM   13  C   UNL     1      43.717 -19.396   3.384  1.00  0.00     0.004 A 
HETATM   14  C   UNL     1      44.891 -21.555   3.408  1.00  0.00     0.030 A 
HETATM   15  C   UNL     1      43.096 -19.763   2.170  1.00  0.00     0.014 A 
HETATM   16  C   UNL     1      43.376 -21.010   1.595  1.00  0.00     0.001 A 
HETATM   17  C   UNL     1      44.259 -21.892   2.208  1.00  0.00     0.002 A 
ENDBRANCH   6   7
ENDBRANCH   1   5
BRANCH   2  18
HETATM   18  C   UNL     1      41.835 -12.565   3.502  1.00  0.00     0.227 C 
BRANCH  18  19
HETATM   19  N   UNL     1      41.030 -12.841   2.316  1.00  0.00    -0.352 N 
HETATM   20  C   UNL     1      41.426 -12.470   1.052  1.00  0.00     0.222 C 
HETATM   21  O   UNL     1      42.593 -12.173   0.799  1.00  0.00    -0.273 OA
HETATM   22  H   UNL     1      40.064 -13.100   2.468  1.00  0.00     0.162 HD
BRANCH  20  23
HETATM   23  C   UNL     1      40.330 -12.481   0.003  1.00  0.00     0.141 C 
BRANCH  23  24
HETATM   24  C   UNL     1      40.629 -13.378  -1.168  1.00  0.00    -0.050 A 
HETATM   25  C   UNL     1      40.895 -12.837  -2.433  1.00  0.00     0.007 A 
HETATM   26  C   UNL     1      41.197 -13.672  -3.509  1.00  0.00     0.001 A 
HETATM   27  C   UNL     1      41.230 -15.054  -3.335  1.00  0.00     0.000 A 
HETATM   28  C   UNL     1      40.955 -15.604  -2.084  1.00  0.00     0.001 A 
HETATM   29  C   UNL     1      40.652 -14.771  -1.006  1.00  0.00     0.007 A 
ENDBRANCH  23  24
ENDBRANCH  20  23
ENDBRANCH  18  19
ENDBRANCH   2  18
TORSDOF 6
ENDMDL
MODEL 9
REMARK VINA RESULT:      -8.2      2.570      3.263
REMARK  6 active torsions:
REMARK  status: ('A' for Active; 'I' for Inactive)
REMARK    1  A    between atoms: C_7  and  C_8 
REMARK    2  A    between atoms: N_9  and  N_10 
REMARK       I    between atoms: N_10  and  C_11 
REMARK    3  A    between atoms: C_11  and  C_12 
REMARK    4  A    between atoms: C_12  and  N_13 
REMARK       I    between atoms: N_13  and  C_14 
REMARK    5  A    between atoms: C_14  and  C_15 
REMARK    6  A    between atoms: C_15  and  C_16 
ROOT
HETATM    1  N   UNL     1      40.428 -14.705   6.232  1.00  0.00    -0.246 N 
HETATM    2  C   UNL     1      39.846 -13.537   5.775  1.00  0.00     0.255 C 
HETATM    3  O   UNL     1      39.512 -13.319   4.610  1.00  0.00    -0.270 OA
HETATM    4  H   UNL     1      40.500 -14.851   7.242  1.00  0.00     0.192 HD
ENDROOT
BRANCH   1   5
HETATM    5  N   UNL     1      40.595 -15.771   5.392  1.00  0.00    -0.184 NA
HETATM    6  C   UNL     1      41.729 -15.792   4.769  1.00  0.00     0.153 C 
BRANCH   6   7
HETATM    7  C   UNL     1      42.080 -16.902   3.903  1.00  0.00     0.018 A 
HETATM    8  C   UNL     1      41.527 -17.103   2.645  1.00  0.00     0.018 A 
HETATM    9  C   UNL     1      40.493 -16.337   1.900  1.00  0.00     0.069 C 
HETATM   10  N   UNL     1      42.114 -18.220   2.105  1.00  0.00    -0.358 N 
HETATM   11  H   UNL     1      41.908 -18.605   1.193  1.00  0.00     0.166 HD
HETATM   12  C   UNL     1      43.035 -18.752   2.973  1.00  0.00     0.043 A 
HETATM   13  C   UNL     1      43.029 -17.955   4.118  1.00  0.00     0.004 A 
HETATM   14  C   UNL     1      43.868 -19.869   2.824  1.00  0.00     0.030 A 
HETATM   15  C   UNL     1      43.904 -18.303   5.172  1.00  0.00     0.014 A 
HETATM   16  C   UNL     1      44.743 -19.417   5.040  1.00  0.00     0.001 A 
HETATM   17  C   UNL     1      44.725 -20.186   3.880  1.00  0.00     0.002 A 
ENDBRANCH   6   7
ENDBRANCH   1   5
BRANCH   2  18
HETATM   18  C   UNL     1      39.455 -12.565   6.896  1.00  0.00     0.227 C 
BRANCH  18  19
HETATM   19  N   UNL     1      40.483 -11.670   7.420  1.00  0.00    -0.352 N 
HETATM   20  C   UNL     1      40.315 -10.950   8.580  1.00  0.00     0.222 C 
HETATM   21  O   UNL     1      39.446 -11.238   9.401  1.00  0.00    -0.273 OA
HETATM   22  H   UNL     1      41.228 -11.410   6.788  1.00  0.00     0.162 HD
BRANCH  20  23
HETATM   23  C   UNL     1      41.290  -9.805   8.775  1.00  0.00     0.141 C 
BRANCH  23  24
HETATM   24  C   UNL     1      42.430 -10.139   9.699  1.00  0.00    -0.050 A 
HETATM   25  C   UNL     1      43.485 -10.953   9.266  1.00  0.00     0.007 A 
HETATM   26  C   UNL     1      44.553 -11.239  10.118  1.00  0.00     0.001 A 
HETATM   27  C   UNL     1      44.574 -10.720  11.411  1.00  0.00     0.000 A 
HETATM   28  C   UNL     1      43.523  -9.921  11.857  1.00  0.00     0.001 A 
HETATM   29  C   UNL     1      42.453  -9.634  11.007  1.00  0.00     0.007 A 
ENDBRANCH  23  24
ENDBRANCH  20  23
ENDBRANCH  18  19
ENDBRANCH   2  18
TORSDOF 6
ENDMDL
MODEL 10
REMARK VINA RESULT:      -8.2      5.336      6.436
REMARK  6 active torsions:
REMARK  status: ('A' for Active; 'I' for Inactive)
REMARK    1  A    between atoms: C_7  and  C_8 
REMARK    2  A    between atoms: N_9  and  N_10 
REMARK       I    between atoms: N_10  and  C_11 
REMARK    3  A    between atoms: C_11  and  C_12 
REMARK    4  A    between atoms: C_12  and  N_13 
REMARK       I    between atoms: N_13  and  C_14 
REMARK    5  A    between atoms: C_14  and  C_15 
REMARK    6  A    between atoms: C_15  and  C_16 
ROOT
HETATM    1  N   UNL     1      43.032 -15.824   1.889  1.00  0.00    -0.246 N 
HETATM    2  C   UNL     1      42.139 -15.785   0.835  1.00  0.00     0.255 C 
HETATM    3  O   UNL     1      41.900 -16.722   0.073  1.00  0.00    -0.270 OA
HETATM    4  H   UNL     1      43.023 -15.055   2.564  1.00  0.00     0.192 HD
ENDROOT
BRANCH   1   5
HETATM    5  N   UNL     1      43.669 -16.989   2.217  1.00  0.00    -0.184 NA
HETATM    6  C   UNL     1      43.501 -17.364   3.444  1.00  0.00     0.153 C 
BRANCH   6   7
HETATM    7  C   UNL     1      44.052 -18.621   3.917  1.00  0.00     0.018 A 
HETATM    8  C   UNL     1      44.628 -18.788   5.170  1.00  0.00     0.018 A 
HETATM    9  C   UNL     1      44.857 -17.819   6.274  1.00  0.00     0.069 C 
HETATM   10  N   UNL     1      45.005 -20.102   5.285  1.00  0.00    -0.358 N 
HETATM   11  H   UNL     1      45.449 -20.514   6.093  1.00  0.00     0.166 HD
HETATM   12  C   UNL     1      44.689 -20.800   4.144  1.00  0.00     0.043 A 
HETATM   13  C   UNL     1      44.101 -19.895   3.259  1.00  0.00     0.004 A 
HETATM   14  C   UNL     1      44.876 -22.154   3.839  1.00  0.00     0.030 A 
HETATM   15  C   UNL     1      43.684 -20.378   1.999  1.00  0.00     0.014 A 
HETATM   16  C   UNL     1      43.865 -21.729   1.677  1.00  0.00     0.001 A 
HETATM   17  C   UNL     1      44.450 -22.603   2.587  1.00  0.00     0.002 A 
ENDBRANCH   6   7
ENDBRANCH   1   5
BRANCH   2  18
HETATM   18  C   UNL     1      41.292 -14.506   0.791  1.00  0.00     0.227 C 
BRANCH  18  19
HETATM   19  N   UNL     1      40.676 -14.048   2.033  1.00  0.00    -0.352 N 
HETATM   20  C   UNL     1      41.056 -12.885   2.662  1.00  0.00     0.222 C 
HETATM   21  O   UNL     1      41.699 -12.014   2.079  1.00  0.00    -0.273 OA
HETATM   22  H   UNL     1      40.127 -14.724   2.548  1.00  0.00     0.162 HD
BRANCH  20  23
HETATM   23  C   UNL     1      40.604 -12.754   4.104  1.00  0.00     0.141 C 
BRANCH  23  24
HETATM   24  C   UNL     1      41.071 -13.883   4.983  1.00  0.00    -0.050 A 
HETATM   25  C   UNL     1      40.181 -14.887   5.390  1.00  0.00     0.007 A 
HETATM   26  C   UNL     1      40.625 -15.945   6.185  1.00  0.00     0.001 A 
HETATM   27  C   UNL     1      41.958 -16.008   6.585  1.00  0.00     0.000 A 
HETATM   28  C   UNL     1      42.848 -15.009   6.197  1.00  0.00     0.001 A 
HETATM   29  C   UNL     1      42.407 -13.948   5.403  1.00  0.00     0.007 A 
ENDBRANCH  23  24
ENDBRANCH  20  23
ENDBRANCH  18  19
ENDBRANCH   2  18
TORSDOF 6
ENDMDL
