MODEL 1
REMARK VINA RESULT:      -9.6      0.000      0.000
REMARK  5 active torsions:
REMARK  status: ('A' for Active; 'I' for Inactive)
REMARK    1  A    between atoms: C_2  and  C_3 
REMARK    2  A    between atoms: C_8  and  N_9 
REMARK       I    between atoms: N_9  and  C_10 
REMARK       I    between atoms: C_10  and  N_11 
REMARK    3  A    between atoms: N_11  and  C_12 
REMARK    4  A    between atoms: C_12  and  C_13 
REMARK    5  A    between atoms: C_13  and  C_14 
ROOT
HETATM    1  N   UNL     1      44.351 -13.678   8.344  1.00  0.00    -0.305 N 
HETATM    2  C   UNL     1      44.251 -14.178   7.068  1.00  0.00     0.320 C 
HETATM    3  N   UNL     1      43.579 -15.384   7.057  1.00  0.00    -0.343 N 
HETATM    4  O   UNL     1      44.651 -13.650   6.040  1.00  0.00    -0.247 OA
HETATM    5  H   UNL     1      43.834 -14.172   9.052  1.00  0.00     0.171 HD
HETATM    6  H   UNL     1      43.618 -15.955   7.889  1.00  0.00     0.164 HD
ENDROOT
BRANCH   3   7
HETATM    7  C   UNL     1      43.344 -16.088   5.805  1.00  0.00     0.129 C 
BRANCH   7   8
HETATM    8  C   UNL     1      43.992 -17.477   5.769  1.00  0.00     0.059 C 
BRANCH   8   9
HETATM    9  C   UNL     1      43.875 -18.135   4.404  1.00  0.00    -0.045 A 
HETATM   10  C   UNL     1      44.161 -19.515   4.194  1.00  0.00    -0.020 A 
HETATM   11  C   UNL     1      44.050 -20.041   2.881  1.00  0.00    -0.025 A 
HETATM   12  C   UNL     1      44.547 -20.409   5.221  1.00  0.00     0.013 A 
HETATM   13  C   UNL     1      44.324 -21.398   2.639  1.00  0.00     0.012 A 
HETATM   14  C   UNL     1      43.665 -19.205   1.823  1.00  0.00     0.012 A 
HETATM   15  C   UNL     1      44.705 -22.249   3.674  1.00  0.00     0.001 A 
HETATM   16  C   UNL     1      44.816 -21.756   4.965  1.00  0.00     0.001 A 
HETATM   17  C   UNL     1      43.385 -17.859   2.039  1.00  0.00     0.001 A 
HETATM   18  C   UNL     1      43.490 -17.327   3.319  1.00  0.00     0.008 A 
ENDBRANCH   8   9
ENDBRANCH   7   8
ENDBRANCH   3   7
BRANCH   1  19
HETATM   19  C   UNL     1      44.935 -12.478   8.727  1.00  0.00     0.095 A 
HETATM   20  C   UNL     1      44.298 -11.567   9.550  1.00  0.00     0.107 A 
HETATM   21  O   UNL     1      45.096 -10.487   9.743  1.00  0.00    -0.215 OA
HETATM   22  N   UNL     1      46.280 -10.662   9.068  1.00  0.00    -0.131 NA
HETATM   23  C   UNL     1      46.192 -11.854   8.458  1.00  0.00     0.087 A 
HETATM   24  C   UNL     1      47.355 -12.304   7.658  1.00  0.00     0.075 C 
BRANCH  20  25
HETATM   25  C   UNL     1      42.984 -11.508  10.235  1.00  0.00     0.065 C 
HETATM   26  C   UNL     1      42.952 -10.417  11.292  1.00  0.00     0.012 C 
ENDBRANCH  20  25
ENDBRANCH   1  19
TORSDOF 5
ENDMDL
MODEL 2
REMARK VINA RESULT:      -9.0      5.948      8.825
REMARK  5 active torsions:
REMARK  status: ('A' for Active; 'I' for Inactive)
REMARK    1  A    between atoms: C_2  and  C_3 
REMARK    2  A    between atoms: C_8  and  N_9 
REMARK       I    between atoms: N_9  and  C_10 
REMARK       I    between atoms: C_10  and  N_11 
REMARK    3  A    between atoms: N_11  and  C_12 
REMARK    4  A    between atoms: C_12  and  C_13 
REMARK    5  A    between atoms: C_13  and  C_14 
ROOT
HETATM    1  N   UNL     1      40.545 -15.358  -1.519  1.00  0.00    -0.305 N 
HETATM    2  C   UNL     1      41.136 -15.459  -0.283  1.00  0.00     0.320 C 
HETATM    3  N   UNL     1      41.133 -16.765   0.166  1.00  0.00    -0.343 N 
HETATM    4  O   UNL     1      41.646 -14.555   0.363  1.00  0.00    -0.247 OA
HETATM    5  H   UNL     1      40.313 -16.228  -1.968  1.00  0.00     0.171 HD
HETATM    6  H   UNL     1      40.401 -17.378  -0.165  1.00  0.00     0.164 HD
ENDROOT
BRANCH   3   7
HETATM    7  C   UNL     1      41.723 -17.107   1.451  1.00  0.00     0.129 C 
BRANCH   7   8
HETATM    8  C   UNL     1      43.107 -17.753   1.321  1.00  0.00     0.059 C 
BRANCH   8   9
HETATM    9  C   UNL     1      43.604 -18.327   2.637  1.00  0.00    -0.045 A 
HETATM   10  C   UNL     1      43.934 -19.704   2.795  1.00  0.00    -0.020 A 
HETATM   11  C   UNL     1      44.365 -20.160   4.067  1.00  0.00    -0.025 A 
HETATM   12  C   UNL     1      43.864 -20.659   1.752  1.00  0.00     0.013 A 
HETATM   13  C   UNL     1      44.700 -21.512   4.256  1.00  0.00     0.012 A 
HETATM   14  C   UNL     1      44.462 -19.259   5.137  1.00  0.00     0.012 A 
HETATM   15  C   UNL     1      44.616 -22.426   3.208  1.00  0.00     0.001 A 
HETATM   16  C   UNL     1      44.199 -22.000   1.956  1.00  0.00     0.001 A 
HETATM   17  C   UNL     1      44.140 -17.914   4.973  1.00  0.00     0.001 A 
HETATM   18  C   UNL     1      43.714 -17.452   3.733  1.00  0.00     0.008 A 
ENDBRANCH   8   9
ENDBRANCH   7   8
ENDBRANCH   3   7
BRANCH   1  19
HETATM   19  C   UNL     1      40.398 -14.207  -2.282  1.00  0.00     0.095 A 
HETATM   20  C   UNL     1      39.172 -13.778  -2.755  1.00  0.00     0.107 A 
HETATM   21  O   UNL     1      39.333 -12.641  -3.478  1.00  0.00    -0.215 OA
HETATM   22  N   UNL     1      40.660 -12.285  -3.490  1.00  0.00    -0.131 NA
HETATM   23  C   UNL     1      41.305 -13.219  -2.773  1.00  0.00     0.087 A 
HETATM   24  C   UNL     1      42.770 -13.069  -2.611  1.00  0.00     0.075 C 
BRANCH  20  25
HETATM   25  C   UNL     1      37.776 -14.269  -2.658  1.00  0.00     0.065 C 
HETATM   26  C   UNL     1      37.351 -15.003  -3.918  1.00  0.00     0.012 C 
ENDBRANCH  20  25
ENDBRANCH   1  19
TORSDOF 5
ENDMDL
MODEL 3
REMARK VINA RESULT:      -8.8      5.770      8.450
REMARK  5 active torsions:
REMARK  status: ('A' for Active; 'I' for Inactive)
REMARK    1  A    between atoms: C_2  and  C_3 
REMARK    2  A    between atoms: C_8  and  N_9 
REMARK       I    between atoms: N_9  and  C_10 
REMARK       I    between atoms: C_10  and  N_11 
REMARK    3  A    between atoms: N_11  and  C_12 
REMARK    4  A    between atoms: C_12  and  C_13 
REMARK    5  A    between atoms: C_13  and  C_14 
ROOT
HETATM    1  N   UNL     1      40.509 -15.355  -0.848  1.00  0.00    -0.305 N 
HETATM    2  C   UNL     1      41.452 -15.350   0.152  1.00  0.00     0.320 C 
HETATM    3  N   UNL     1      42.122 -16.556   0.210  1.00  0.00    -0.343 N 
HETATM    4  O   UNL     1      41.728 -14.420   0.895  1.00  0.00    -0.247 OA
HETATM    5  H   UNL     1      40.519 -16.155  -1.459  1.00  0.00     0.171 HD
HETATM    6  H   UNL     1      41.638 -17.383  -0.109  1.00  0.00     0.164 HD
ENDROOT
BRANCH   3   7
HETATM    7  C   UNL     1      43.177 -16.769   1.189  1.00  0.00     0.129 C 
BRANCH   7   8
HETATM    8  C   UNL     1      43.582 -18.242   1.322  1.00  0.00     0.059 C 
BRANCH   8   9
HETATM    9  C   UNL     1      43.880 -18.632   2.759  1.00  0.00    -0.045 A 
HETATM   10  C   UNL     1      44.165 -19.975   3.144  1.00  0.00    -0.020 A 
HETATM   11  C   UNL     1      44.406 -20.255   4.513  1.00  0.00    -0.025 A 
HETATM   12  C   UNL     1      44.229 -21.061   2.238  1.00  0.00     0.013 A 
HETATM   13  C   UNL     1      44.691 -21.568   4.926  1.00  0.00     0.012 A 
HETATM   14  C   UNL     1      44.364 -19.218   5.457  1.00  0.00     0.012 A 
HETATM   15  C   UNL     1      44.743 -22.614   4.007  1.00  0.00     0.001 A 
HETATM   16  C   UNL     1      44.512 -22.361   2.664  1.00  0.00     0.001 A 
HETATM   17  C   UNL     1      44.088 -17.909   5.071  1.00  0.00     0.001 A 
HETATM   18  C   UNL     1      43.847 -17.618   3.734  1.00  0.00     0.008 A 
ENDBRANCH   8   9
ENDBRANCH   7   8
ENDBRANCH   3   7
BRANCH   1  19
HETATM   19  C   UNL     1      39.672 -14.308  -1.211  1.00  0.00     0.095 A 
HETATM   20  C   UNL     1      39.852 -13.578  -2.373  1.00  0.00     0.107 A 
HETATM   21  O   UNL     1      38.899 -12.615  -2.460  1.00  0.00    -0.215 OA
HETATM   22  N   UNL     1      38.063 -12.694  -1.373  1.00  0.00    -0.131 NA
HETATM   23  C   UNL     1      38.519 -13.707  -0.621  1.00  0.00     0.087 A 
HETATM   24  C   UNL     1      37.782 -14.023   0.626  1.00  0.00     0.075 C 
BRANCH  20  25
HETATM   25  C   UNL     1      40.821 -13.608  -3.495  1.00  0.00     0.065 C 
HETATM   26  C   UNL     1      41.877 -12.525  -3.352  1.00  0.00     0.012 C 
ENDBRANCH  20  25
ENDBRANCH   1  19
TORSDOF 5
ENDMDL
MODEL 4
REMARK VINA RESULT:      -8.7      5.790      8.654
REMARK  5 active torsions:
REMARK  status: ('A' for Active; 'I' for Inactive)
REMARK    1  A    between atoms: C_2  and  C_3 
REMARK    2  A    between atoms: C_8  and  N_9 
REMARK       I    between atoms: N_9  and  C_10 
REMARK       I    between atoms: C_10  and  N_11 
REMARK    3  A    between atoms: N_11  and  C_12 
REMARK    4  A    between atoms: C_12  and  C_13 
REMARK    5  A    between atoms: C_13  and  C_14 
ROOT
HETATM    1  N   UNL     1      39.991 -15.073  -0.592  1.00  0.00    -0.305 N 
HETATM    2  C   UNL     1      40.914 -15.340   0.389  1.00  0.00     0.320 C 
HETATM    3  N   UNL     1      40.510 -16.398   1.179  1.00  0.00    -0.343 N 
HETATM    4  O   UNL     1      41.985 -14.775   0.563  1.00  0.00    -0.247 OA
HETATM    5  H   UNL     1      39.237 -15.734  -0.680  1.00  0.00     0.171 HD
HETATM    6  H   UNL     1      39.518 -16.568   1.271  1.00  0.00     0.164 HD
ENDROOT
BRANCH   3   7
HETATM    7  C   UNL     1      41.345 -16.865   2.275  1.00  0.00     0.129 C 
BRANCH   7   8
HETATM    8  C   UNL     1      42.564 -17.665   1.800  1.00  0.00     0.059 C 
BRANCH   8   9
HETATM    9  C   UNL     1      43.314 -18.313   2.951  1.00  0.00    -0.045 A 
HETATM   10  C   UNL     1      43.730 -19.676   2.922  1.00  0.00    -0.020 A 
HETATM   11  C   UNL     1      44.403 -20.207   4.053  1.00  0.00    -0.025 A 
HETATM   12  C   UNL     1      43.517 -20.545   1.825  1.00  0.00     0.013 A 
HETATM   13  C   UNL     1      44.827 -21.547   4.056  1.00  0.00     0.012 A 
HETATM   14  C   UNL     1      44.649 -19.392   5.167  1.00  0.00     0.012 A 
HETATM   15  C   UNL     1      44.599 -22.375   2.960  1.00  0.00     0.001 A 
HETATM   16  C   UNL     1      43.944 -21.875   1.845  1.00  0.00     0.001 A 
HETATM   17  C   UNL     1      44.242 -18.060   5.184  1.00  0.00     0.001 A 
HETATM   18  C   UNL     1      43.579 -17.525   4.086  1.00  0.00     0.008 A 
ENDBRANCH   8   9
ENDBRANCH   7   8
ENDBRANCH   3   7
BRANCH   1  19
HETATM   19  C   UNL     1      40.080 -14.100  -1.580  1.00  0.00     0.095 A 
HETATM   20  C   UNL     1      40.056 -14.403  -2.929  1.00  0.00     0.107 A 
HETATM   21  O   UNL     1      40.174 -13.263  -3.656  1.00  0.00    -0.215 OA
HETATM   22  N   UNL     1      40.264 -12.184  -2.810  1.00  0.00    -0.131 NA
HETATM   23  C   UNL     1      40.206 -12.677  -1.564  1.00  0.00     0.087 A 
HETATM   24  C   UNL     1      40.270 -11.714  -0.440  1.00  0.00     0.075 C 
BRANCH  20  25
HETATM   25  C   UNL     1      39.942 -15.648  -3.726  1.00  0.00     0.065 C 
HETATM   26  C   UNL     1      38.495 -15.971  -4.058  1.00  0.00     0.012 C 
ENDBRANCH  20  25
ENDBRANCH   1  19
TORSDOF 5
ENDMDL
MODEL 5
REMARK VINA RESULT:      -8.7      3.835      4.850
REMARK  5 active torsions:
REMARK  status: ('A' for Active; 'I' for Inactive)
REMARK    1  A    between atoms: C_2  and  C_3 
REMARK    2  A    between atoms: C_8  and  N_9 
REMARK       I    between atoms: N_9  and  C_10 
REMARK       I    between atoms: C_10  and  N_11 
REMARK    3  A    between atoms: N_11  and  C_12 
REMARK    4  A    between atoms: C_12  and  C_13 
REMARK    5  A    between atoms: C_13  and  C_14 
ROOT
HETATM    1  N   UNL     1      41.508 -14.091   5.877  1.00  0.00    -0.305 N 
HETATM    2  C   UNL     1      41.527 -15.464   5.920  1.00  0.00     0.320 C 
HETATM    3  N   UNL     1      42.750 -15.932   6.358  1.00  0.00    -0.343 N 
HETATM    4  O   UNL     1      40.602 -16.219   5.654  1.00  0.00    -0.247 OA
HETATM    5  H   UNL     1      42.309 -13.627   6.273  1.00  0.00     0.171 HD
HETATM    6  H   UNL     1      43.564 -15.359   6.190  1.00  0.00     0.164 HD
ENDROOT
BRANCH   3   7
HETATM    7  C   UNL     1      42.989 -17.361   6.495  1.00  0.00     0.129 C 
BRANCH   7   8
HETATM    8  C   UNL     1      44.295 -17.816   5.835  1.00  0.00     0.059 C 
BRANCH   8   9
HETATM    9  C   UNL     1      44.069 -18.410   4.454  1.00  0.00    -0.045 A 
HETATM   10  C   UNL     1      44.277 -19.791   4.173  1.00  0.00    -0.020 A 
HETATM   11  C   UNL     1      44.067 -20.255   2.849  1.00  0.00    -0.025 A 
HETATM   12  C   UNL     1      44.679 -20.744   5.140  1.00  0.00     0.013 A 
HETATM   13  C   UNL     1      44.262 -21.612   2.538  1.00  0.00     0.012 A 
HETATM   14  C   UNL     1      43.662 -19.360   1.849  1.00  0.00     0.012 A 
HETATM   15  C   UNL     1      44.660 -22.523   3.514  1.00  0.00     0.001 A 
HETATM   16  C   UNL     1      44.869 -22.090   4.815  1.00  0.00     0.001 A 
HETATM   17  C   UNL     1      43.458 -18.012   2.135  1.00  0.00     0.001 A 
HETATM   18  C   UNL     1      43.661 -17.540   3.427  1.00  0.00     0.008 A 
ENDBRANCH   8   9
ENDBRANCH   7   8
ENDBRANCH   3   7
BRANCH   1  19
HETATM   19  C   UNL     1      40.440 -13.282   5.513  1.00  0.00     0.095 A 
HETATM   20  C   UNL     1      40.025 -13.138   4.202  1.00  0.00     0.107 A 
HETATM   21  O   UNL     1      38.976 -12.279   4.145  1.00  0.00    -0.215 OA
HETATM   22  N   UNL     1      38.664 -11.848   5.411  1.00  0.00    -0.131 NA
HETATM   23  C   UNL     1      39.536 -12.446   6.237  1.00  0.00     0.087 A 
HETATM   24  C   UNL     1      39.415 -12.161   7.687  1.00  0.00     0.075 C 
BRANCH  20  25
HETATM   25  C   UNL     1      40.461 -13.686   2.894  1.00  0.00     0.065 C 
HETATM   26  C   UNL     1      39.591 -14.854   2.459  1.00  0.00     0.012 C 
ENDBRANCH  20  25
ENDBRANCH   1  19
TORSDOF 5
ENDMDL
MODEL 6
REMARK VINA RESULT:      -8.6      5.981      8.794
REMARK  5 active torsions:
REMARK  status: ('A' for Active; 'I' for Inactive)
REMARK    1  A    between atoms: C_2  and  C_3 
REMARK    2  A    between atoms: C_8  and  N_9 
REMARK       I    between atoms: N_9  and  C_10 
REMARK       I    between atoms: C_10  and  N_11 
REMARK    3  A    between atoms: N_11  and  C_12 
REMARK    4  A    between atoms: C_12  and  C_13 
REMARK    5  A    between atoms: C_13  and  C_14 
ROOT
HETATM    1  N   UNL     1      40.728 -15.354  -1.798  1.00  0.00    -0.305 N 
HETATM    2  C   UNL     1      41.150 -15.421  -0.493  1.00  0.00     0.320 C 
HETATM    3  N   UNL     1      41.552 -16.701  -0.164  1.00  0.00    -0.343 N 
HETATM    4  O   UNL     1      41.219 -14.497   0.304  1.00  0.00    -0.247 OA
HETATM    5  H   UNL     1      40.879 -16.181  -2.353  1.00  0.00     0.171 HD
HETATM    6  H   UNL     1      41.134 -17.472  -0.665  1.00  0.00     0.164 HD
ENDROOT
BRANCH   3   7
HETATM    7  C   UNL     1      42.053 -16.999   1.169  1.00  0.00     0.129 C 
BRANCH   7   8
HETATM    8  C   UNL     1      43.356 -17.807   1.152  1.00  0.00     0.059 C 
BRANCH   8   9
HETATM    9  C   UNL     1      43.735 -18.323   2.530  1.00  0.00    -0.045 A 
HETATM   10  C   UNL     1      44.021 -19.697   2.779  1.00  0.00    -0.020 A 
HETATM   11  C   UNL     1      44.341 -20.096   4.102  1.00  0.00    -0.025 A 
HETATM   12  C   UNL     1      44.012 -20.701   1.781  1.00  0.00     0.013 A 
HETATM   13  C   UNL     1      44.629 -21.443   4.382  1.00  0.00     0.012 A 
HETATM   14  C   UNL     1      44.372 -19.146   5.132  1.00  0.00     0.012 A 
HETATM   15  C   UNL     1      44.609 -22.407   3.376  1.00  0.00     0.001 A 
HETATM   16  C   UNL     1      44.300 -22.036   2.076  1.00  0.00     0.001 A 
HETATM   17  C   UNL     1      44.094 -17.805   4.877  1.00  0.00     0.001 A 
HETATM   18  C   UNL     1      43.777 -17.397   3.587  1.00  0.00     0.008 A 
ENDBRANCH   8   9
ENDBRANCH   7   8
ENDBRANCH   3   7
BRANCH   1  19
HETATM   19  C   UNL     1      40.283 -14.226  -2.476  1.00  0.00     0.095 A 
HETATM   20  C   UNL     1      41.133 -13.206  -2.864  1.00  0.00     0.107 A 
HETATM   21  O   UNL     1      40.423 -12.233  -3.490  1.00  0.00    -0.215 OA
HETATM   22  N   UNL     1      39.098 -12.591  -3.543  1.00  0.00    -0.131 NA
HETATM   23  C   UNL     1      39.006 -13.785  -2.939  1.00  0.00     0.087 A 
HETATM   24  C   UNL     1      37.668 -14.417  -2.867  1.00  0.00     0.075 C 
BRANCH  20  25
HETATM   25  C   UNL     1      42.588 -12.946  -2.745  1.00  0.00     0.065 C 
HETATM   26  C   UNL     1      42.880 -11.850  -1.734  1.00  0.00     0.012 C 
ENDBRANCH  20  25
ENDBRANCH   1  19
TORSDOF 5
ENDMDL
MODEL 7
REMARK VINA RESULT:      -8.3      5.695      8.714
REMARK  5 active torsions:
REMARK  status: ('A' for Active; 'I' for Inactive)
REMARK    1  A    between atoms: C_2  and  C_3 
REMARK    2  A    between atoms: C_8  and  N_9 
REMARK       I    between atoms: N_9  and  C_10 
REMARK       I    between atoms: C_10  and  N_11 
REMARK    3  A    between atoms: N_11  and  C_12 
REMARK    4  A    between atoms: C_12  and  C_13 
REMARK    5  A    between atoms: C_13  and  C_14 
ROOT
HETATM    1  N   UNL     1      39.875 -14.885  -1.049  1.00  0.00    -0.305 N 
HETATM    2  C   UNL     1      40.974 -15.161  -0.272  1.00  0.00     0.320 C 
HETATM    3  N   UNL     1      41.093 -16.518  -0.041  1.00  0.00    -0.343 N 
HETATM    4  O   UNL     1      41.791 -14.358   0.155  1.00  0.00    -0.247 OA
HETATM    5  H   UNL     1      39.398 -15.683  -1.435  1.00  0.00     0.171 HD
HETATM    6  H   UNL     1      40.251 -17.075  -0.053  1.00  0.00     0.164 HD
ENDROOT
BRANCH   3   7
HETATM    7  C   UNL     1      42.198 -17.039   0.749  1.00  0.00     0.129 C 
BRANCH   7   8
HETATM    8  C   UNL     1      41.744 -17.658   2.076  1.00  0.00     0.059 C 
BRANCH   8   9
HETATM    9  C   UNL     1      42.789 -18.589   2.668  1.00  0.00    -0.045 A 
HETATM   10  C   UNL     1      43.436 -18.323   3.909  1.00  0.00    -0.020 A 
HETATM   11  C   UNL     1      44.419 -19.234   4.374  1.00  0.00    -0.025 A 
HETATM   12  C   UNL     1      43.155 -17.198   4.722  1.00  0.00     0.013 A 
HETATM   13  C   UNL     1      45.074 -19.001   5.596  1.00  0.00     0.012 A 
HETATM   14  C   UNL     1      44.735 -20.370   3.616  1.00  0.00     0.012 A 
HETATM   15  C   UNL     1      44.776 -17.882   6.370  1.00  0.00     0.001 A 
HETATM   16  C   UNL     1      43.816 -16.981   5.934  1.00  0.00     0.001 A 
HETATM   17  C   UNL     1      44.095 -20.623   2.405  1.00  0.00     0.001 A 
HETATM   18  C   UNL     1      43.131 -19.740   1.934  1.00  0.00     0.008 A 
ENDBRANCH   8   9
ENDBRANCH   7   8
ENDBRANCH   3   7
BRANCH   1  19
HETATM   19  C   UNL     1      39.464 -13.638  -1.500  1.00  0.00     0.095 A 
HETATM   20  C   UNL     1      40.053 -13.002  -2.578  1.00  0.00     0.107 A 
HETATM   21  O   UNL     1      39.459 -11.799  -2.781  1.00  0.00    -0.215 OA
HETATM   22  N   UNL     1      38.458 -11.617  -1.857  1.00  0.00    -0.131 NA
HETATM   23  C   UNL     1      38.454 -12.716  -1.087  1.00  0.00     0.087 A 
HETATM   24  C   UNL     1      37.448 -12.789  -0.001  1.00  0.00     0.075 C 
BRANCH  20  25
HETATM   25  C   UNL     1      41.153 -13.327  -3.518  1.00  0.00     0.065 C 
HETATM   26  C   UNL     1      42.497 -12.848  -2.996  1.00  0.00     0.012 C 
ENDBRANCH  20  25
ENDBRANCH   1  19
TORSDOF 5
ENDMDL
MODEL 8
REMARK VINA RESULT:      -8.2      5.056      6.373
REMARK  5 active torsions:
REMARK  status: ('A' for Active; 'I' for Inactive)
REMARK    1  A    between atoms: C_2  and  C_3 
REMARK    2  A    between atoms: C_8  and  N_9 
REMARK       I    between atoms: N_9  and  C_10 
REMARK       I    between atoms: C_10  and  N_11 
REMARK    3  A    between atoms: N_11  and  C_12 
REMARK    4  A    between atoms: C_12  and  C_13 
REMARK    5  A    between atoms: C_13  and  C_14 
ROOT
HETATM    1  N   UNL     1      39.559 -14.854   2.768  1.00  0.00    -0.305 N 
HETATM    2  C   UNL     1      40.285 -15.571   1.850  1.00  0.00     0.320 C 
HETATM    3  N   UNL     1      40.627 -16.814   2.346  1.00  0.00    -0.343 N 
HETATM    4  O   UNL     1      40.586 -15.222   0.717  1.00  0.00    -0.247 OA
HETATM    5  H   UNL     1      39.276 -15.355   3.595  1.00  0.00     0.171 HD
HETATM    6  H   UNL     1      40.719 -16.915   3.346  1.00  0.00     0.164 HD
ENDROOT
BRANCH   3   7
HETATM    7  C   UNL     1      41.388 -17.751   1.533  1.00  0.00     0.129 C 
BRANCH   7   8
HETATM    8  C   UNL     1      42.903 -17.536   1.632  1.00  0.00     0.059 C 
BRANCH   8   9
HETATM    9  C   UNL     1      43.505 -18.215   2.850  1.00  0.00    -0.045 A 
HETATM   10  C   UNL     1      43.840 -19.600   2.866  1.00  0.00    -0.020 A 
HETATM   11  C   UNL     1      44.374 -20.158   4.056  1.00  0.00    -0.025 A 
HETATM   12  C   UNL     1      43.677 -20.466   1.758  1.00  0.00     0.013 A 
HETATM   13  C   UNL     1      44.716 -21.520   4.105  1.00  0.00     0.012 A 
HETATM   14  C   UNL     1      44.565 -19.347   5.185  1.00  0.00     0.012 A 
HETATM   15  C   UNL     1      44.541 -22.345   2.997  1.00  0.00     0.001 A 
HETATM   16  C   UNL     1      44.022 -21.819   1.823  1.00  0.00     0.001 A 
HETATM   17  C   UNL     1      44.238 -17.994   5.158  1.00  0.00     0.001 A 
HETATM   18  C   UNL     1      43.711 -17.432   4.001  1.00  0.00     0.008 A 
ENDBRANCH   8   9
ENDBRANCH   7   8
ENDBRANCH   3   7
BRANCH   1  19
HETATM   19  C   UNL     1      39.026 -13.582   2.602  1.00  0.00     0.095 A 
HETATM   20  C   UNL     1      39.306 -12.537   3.464  1.00  0.00     0.107 A 
HETATM   21  O   UNL     1      38.639 -11.424   3.066  1.00  0.00    -0.215 OA
HETATM   22  N   UNL     1      37.917 -11.700   1.930  1.00  0.00    -0.131 NA
HETATM   23  C   UNL     1      38.146 -12.991   1.645  1.00  0.00     0.087 A 
HETATM   24  C   UNL     1      37.489 -13.555   0.442  1.00  0.00     0.075 C 
BRANCH  20  25
HETATM   25  C   UNL     1      40.134 -12.372   4.683  1.00  0.00     0.065 C 
HETATM   26  C   UNL     1      39.363 -12.746   5.938  1.00  0.00     0.012 C 
ENDBRANCH  20  25
ENDBRANCH   1  19
TORSDOF 5
ENDMDL
MODEL 9
REMARK VINA RESULT:      -8.0      3.597      4.227
REMARK  5 active torsions:
REMARK  status: ('A' for Active; 'I' for Inactive)
REMARK    1  A    between atoms: C_2  and  C_3 
REMARK    2  A    between atoms: C_8  and  N_9 
REMARK       I    between atoms: N_9  and  C_10 
REMARK       I    between atoms: C_10  and  N_11 
REMARK    3  A    between atoms: N_11  and  C_12 
REMARK    4  A    between atoms: C_12  and  C_13 
REMARK    5  A    between atoms: C_13  and  C_14 
ROOT
HETATM    1  N   UNL     1      41.085 -12.763   6.054  1.00  0.00    -0.305 N 
HETATM    2  C   UNL     1      40.939 -14.114   5.852  1.00  0.00     0.320 C 
HETATM    3  N   UNL     1      42.103 -14.793   6.155  1.00  0.00    -0.343 N 
HETATM    4  O   UNL     1      39.927 -14.696   5.489  1.00  0.00    -0.247 OA
HETATM    5  H   UNL     1      41.942 -12.475   6.498  1.00  0.00     0.171 HD
HETATM    6  H   UNL     1      42.977 -14.297   6.063  1.00  0.00     0.164 HD
ENDROOT
BRANCH   3   7
HETATM    7  C   UNL     1      42.169 -16.241   6.027  1.00  0.00     0.129 C 
BRANCH   7   8
HETATM    8  C   UNL     1      43.572 -16.746   5.670  1.00  0.00     0.059 C 
BRANCH   8   9
HETATM    9  C   UNL     1      43.619 -17.405   4.302  1.00  0.00    -0.045 A 
HETATM   10  C   UNL     1      44.001 -18.766   4.122  1.00  0.00    -0.020 A 
HETATM   11  C   UNL     1      44.042 -19.293   2.805  1.00  0.00    -0.025 A 
HETATM   12  C   UNL     1      44.340 -19.640   5.183  1.00  0.00     0.013 A 
HETATM   13  C   UNL     1      44.413 -20.632   2.593  1.00  0.00     0.012 A 
HETATM   14  C   UNL     1      43.710 -18.477   1.714  1.00  0.00     0.012 A 
HETATM   15  C   UNL     1      44.744 -21.464   3.660  1.00  0.00     0.001 A 
HETATM   16  C   UNL     1      44.707 -20.969   4.955  1.00  0.00     0.001 A 
HETATM   17  C   UNL     1      43.335 -17.149   1.901  1.00  0.00     0.001 A 
HETATM   18  C   UNL     1      43.291 -16.616   3.184  1.00  0.00     0.008 A 
ENDBRANCH   8   9
ENDBRANCH   7   8
ENDBRANCH   3   7
BRANCH   1  19
HETATM   19  C   UNL     1      40.118 -11.783   5.880  1.00  0.00     0.095 A 
HETATM   20  C   UNL     1      39.805 -10.860   6.861  1.00  0.00     0.107 A 
HETATM   21  O   UNL     1      38.819 -10.038   6.419  1.00  0.00    -0.215 OA
HETATM   22  N   UNL     1      38.469 -10.386   5.137  1.00  0.00    -0.131 NA
HETATM   23  C   UNL     1      39.244 -11.430   4.806  1.00  0.00     0.087 A 
HETATM   24  C   UNL     1      39.079 -12.005   3.450  1.00  0.00     0.075 C 
BRANCH  20  25
HETATM   25  C   UNL     1      40.283 -10.585   8.238  1.00  0.00     0.065 C 
HETATM   26  C   UNL     1      39.393 -11.242   9.280  1.00  0.00     0.012 C 
ENDBRANCH  20  25
ENDBRANCH   1  19
TORSDOF 5
ENDMDL
MODEL 10
REMARK VINA RESULT:      -8.0      4.895      6.556
REMARK  5 active torsions:
REMARK  status: ('A' for Active; 'I' for Inactive)
REMARK    1  A    between atoms: C_2  and  C_3 
REMARK    2  A    between atoms: C_8  and  N_9 
REMARK       I    between atoms: N_9  and  C_10 
REMARK       I    between atoms: C_10  and  N_11 
REMARK    3  A    between atoms: N_11  and  C_12 
REMARK    4  A    between atoms: C_12  and  C_13 
REMARK    5  A    between atoms: C_13  and  C_14 
ROOT
HETATM    1  N   UNL     1      39.560 -14.905   2.703  1.00  0.00    -0.305 N 
HETATM    2  C   UNL     1      40.259 -15.607   1.752  1.00  0.00     0.320 C 
HETATM    3  N   UNL     1      40.548 -16.885   2.188  1.00  0.00    -0.343 N 
HETATM    4  O   UNL     1      40.577 -15.216   0.638  1.00  0.00    -0.247 OA
HETATM    5  H   UNL     1      39.255 -15.433   3.504  1.00  0.00     0.171 HD
HETATM    6  H   UNL     1      40.633 -17.038   3.183  1.00  0.00     0.164 HD
ENDROOT
BRANCH   3   7
HETATM    7  C   UNL     1      41.273 -17.812   1.332  1.00  0.00     0.129 C 
BRANCH   7   8
HETATM    8  C   UNL     1      42.794 -17.648   1.425  1.00  0.00     0.059 C 
BRANCH   8   9
HETATM    9  C   UNL     1      43.433 -18.680   2.340  1.00  0.00    -0.045 A 
HETATM   10  C   UNL     1      43.744 -18.404   3.703  1.00  0.00    -0.020 A 
HETATM   11  C   UNL     1      44.364 -19.417   4.478  1.00  0.00    -0.025 A 
HETATM   12  C   UNL     1      43.467 -17.172   4.344  1.00  0.00     0.013 A 
HETATM   13  C   UNL     1      44.682 -19.178   5.826  1.00  0.00     0.012 A 
HETATM   14  C   UNL     1      44.656 -20.661   3.900  1.00  0.00     0.012 A 
HETATM   15  C   UNL     1      44.399 -17.953   6.425  1.00  0.00     0.001 A 
HETATM   16  C   UNL     1      43.792 -16.950   5.685  1.00  0.00     0.001 A 
HETATM   17  C   UNL     1      44.344 -20.922   2.568  1.00  0.00     0.001 A 
HETATM   18  C   UNL     1      43.739 -19.939   1.793  1.00  0.00     0.008 A 
ENDBRANCH   8   9
ENDBRANCH   7   8
ENDBRANCH   3   7
BRANCH   1  19
HETATM   19  C   UNL     1      39.080 -13.606   2.598  1.00  0.00     0.095 A 
HETATM   20  C   UNL     1      39.396 -12.618   3.513  1.00  0.00     0.107 A 
HETATM   21  O   UNL     1      38.778 -11.460   3.167  1.00  0.00    -0.215 OA
HETATM   22  N   UNL     1      38.055 -11.649   2.014  1.00  0.00    -0.131 NA
HETATM   23  C   UNL     1      38.233 -12.932   1.666  1.00  0.00     0.087 A 
HETATM   24  C   UNL     1      37.564 -13.408   0.432  1.00  0.00     0.075 C 
BRANCH  20  25
HETATM   25  C   UNL     1      40.219 -12.548   4.744  1.00  0.00     0.065 C 
HETATM   26  C   UNL     1      39.416 -12.927   5.977  1.00  0.00     0.012 C 
ENDBRANCH  20  25
ENDBRANCH   1  19
TORSDOF 5
ENDMDL
