MODEL 1
REMARK VINA RESULT:      -7.9      0.000      0.000
REMARK  6 active torsions:
REMARK  status: ('A' for Active; 'I' for Inactive)
REMARK    1  A    between atoms: C_4  and  C_5 
REMARK    2  A    between atoms: C_5  and  C_6 
REMARK    3  A    between atoms: C_6  and  C_7 
REMARK    4  A    between atoms: C_7  and  C_8 
REMARK       I    between atoms: C_8  and  N_9 
REMARK    5  A    between atoms: N_9  and  C_10 
REMARK    6  A    between atoms: C_12  and  C_13 
ROOT
HETATM    1  C   UNL     1      43.274 -16.934   7.990  1.00  0.00     0.222 C 
HETATM    2  N   UNL     1      43.287 -15.709   7.393  1.00  0.00    -0.327 N 
HETATM    3  O   UNL     1      43.531 -16.971   9.197  1.00  0.00    -0.273 OA
HETATM    4  H   UNL     1      43.491 -15.000   8.090  1.00  0.00     0.169 HD
ENDROOT
BRANCH   2   5
HETATM    5  C   UNL     1      43.092 -15.231   6.083  1.00  0.00     0.035 A 
HETATM    6  C   UNL     1      42.014 -15.534   5.249  1.00  0.00     0.042 A 
HETATM    7  C   UNL     1      41.920 -14.997   3.949  1.00  0.00    -0.021 A 
HETATM    8  C   UNL     1      42.936 -14.155   3.486  1.00  0.00     0.012 A 
HETATM    9  C   UNL     1      44.021 -13.849   4.303  1.00  0.00     0.003 A 
HETATM   10  C   UNL     1      44.095 -14.384   5.589  1.00  0.00     0.029 A 
BRANCH   7  11
HETATM   11  C   UNL     1      40.796 -15.321   3.084  1.00  0.00     0.010 A 
HETATM   12  C   UNL     1      39.664 -14.555   2.715  1.00  0.00     0.152 A 
HETATM   13  N   UNL     1      38.833 -15.217   1.905  1.00  0.00    -0.187 NA
HETATM   14  N   UNL     1      39.426 -16.410   1.754  1.00  0.00    -0.289 N 
HETATM   15  H   UNL     1      38.969 -17.104   1.170  1.00  0.00     0.188 HD
HETATM   16  C   UNL     1      40.601 -16.526   2.440  1.00  0.00     0.123 A 
ENDBRANCH   7  11
ENDBRANCH   2   5
BRANCH   1  17
HETATM   17  C   UNL     1      42.952 -18.192   7.215  1.00  0.00     0.103 C 
BRANCH  17  18
HETATM   18  C   UNL     1      44.183 -19.034   6.868  1.00  0.00     0.014 C 
BRANCH  18  19
HETATM   19  C   UNL     1      44.963 -18.476   5.672  1.00  0.00     0.046 C 
BRANCH  19  20
HETATM   20  C   UNL     1      44.479 -19.074   4.383  1.00  0.00    -0.017 A 
HETATM   21  S   UNL     1      44.871 -20.689   3.973  1.00  0.00    -0.100 SA
HETATM   22  C   UNL     1      44.017 -20.596   2.494  1.00  0.00    -0.021 A 
HETATM   23  C   UNL     1      43.963 -21.778   1.589  1.00  0.00     0.056 C 
HETATM   24  C   UNL     1      43.439 -19.356   2.318  1.00  0.00     0.015 A 
HETATM   25  C   UNL     1      43.707 -18.478   3.406  1.00  0.00     0.015 A 
ENDBRANCH  19  20
ENDBRANCH  18  19
ENDBRANCH  17  18
ENDBRANCH   1  17
TORSDOF 6
ENDMDL
MODEL 2
REMARK VINA RESULT:      -7.6      3.399      5.864
REMARK  6 active torsions:
REMARK  status: ('A' for Active; 'I' for Inactive)
REMARK    1  A    between atoms: C_4  and  C_5 
REMARK    2  A    between atoms: C_5  and  C_6 
REMARK    3  A    between atoms: C_6  and  C_7 
REMARK    4  A    between atoms: C_7  and  C_8 
REMARK       I    between atoms: C_8  and  N_9 
REMARK    5  A    between atoms: N_9  and  C_10 
REMARK    6  A    between atoms: C_12  and  C_13 
ROOT
HETATM    1  C   UNL     1      39.634 -15.453   2.086  1.00  0.00     0.222 C 
HETATM    2  N   UNL     1      40.321 -16.541   1.637  1.00  0.00    -0.327 N 
HETATM    3  O   UNL     1      38.461 -15.341   1.717  1.00  0.00    -0.273 OA
HETATM    4  H   UNL     1      39.705 -17.114   1.070  1.00  0.00     0.169 HD
ENDROOT
BRANCH   2   5
HETATM    5  C   UNL     1      41.636 -17.023   1.779  1.00  0.00     0.035 A 
HETATM    6  C   UNL     1      42.008 -18.353   1.983  1.00  0.00     0.042 A 
HETATM    7  C   UNL     1      43.361 -18.724   2.113  1.00  0.00    -0.021 A 
HETATM    8  C   UNL     1      44.347 -17.735   2.047  1.00  0.00     0.012 A 
HETATM    9  C   UNL     1      43.992 -16.402   1.851  1.00  0.00     0.003 A 
HETATM   10  C   UNL     1      42.648 -16.053   1.719  1.00  0.00     0.029 A 
BRANCH   7  11
HETATM   11  C   UNL     1      43.740 -20.111   2.329  1.00  0.00     0.010 A 
HETATM   12  C   UNL     1      43.395 -21.286   1.617  1.00  0.00     0.152 A 
HETATM   13  N   UNL     1      43.937 -22.388   2.143  1.00  0.00    -0.187 NA
HETATM   14  N   UNL     1      44.627 -21.927   3.196  1.00  0.00    -0.289 N 
HETATM   15  H   UNL     1      45.134 -22.595   3.769  1.00  0.00     0.188 HD
HETATM   16  C   UNL     1      44.541 -20.573   3.354  1.00  0.00     0.123 A 
ENDBRANCH   7  11
ENDBRANCH   2   5
BRANCH   1  17
HETATM   17  C   UNL     1      40.273 -14.430   2.999  1.00  0.00     0.103 C 
BRANCH  17  18
HETATM   18  C   UNL     1      39.940 -14.633   4.479  1.00  0.00     0.014 C 
BRANCH  18  19
HETATM   19  C   UNL     1      41.164 -14.477   5.388  1.00  0.00     0.046 C 
BRANCH  19  20
HETATM   20  C   UNL     1      41.914 -15.772   5.515  1.00  0.00    -0.017 A 
HETATM   21  S   UNL     1      43.601 -15.774   5.804  1.00  0.00    -0.100 SA
HETATM   22  C   UNL     1      43.668 -17.484   5.814  1.00  0.00    -0.021 A 
HETATM   23  C   UNL     1      44.968 -18.177   6.040  1.00  0.00     0.056 C 
HETATM   24  C   UNL     1      42.425 -18.041   5.605  1.00  0.00     0.015 A 
HETATM   25  C   UNL     1      41.414 -17.055   5.431  1.00  0.00     0.015 A 
ENDBRANCH  19  20
ENDBRANCH  18  19
ENDBRANCH  17  18
ENDBRANCH   1  17
TORSDOF 6
ENDMDL
MODEL 3
REMARK VINA RESULT:      -7.6      3.076      5.329
REMARK  6 active torsions:
REMARK  status: ('A' for Active; 'I' for Inactive)
REMARK    1  A    between atoms: C_4  and  C_5 
REMARK    2  A    between atoms: C_5  and  C_6 
REMARK    3  A    between atoms: C_6  and  C_7 
REMARK    4  A    between atoms: C_7  and  C_8 
REMARK       I    between atoms: C_8  and  N_9 
REMARK    5  A    between atoms: N_9  and  C_10 
REMARK    6  A    between atoms: C_12  and  C_13 
ROOT
HETATM    1  C   UNL     1      41.185 -15.204   4.713  1.00  0.00     0.222 C 
HETATM    2  N   UNL     1      41.245 -16.451   4.168  1.00  0.00    -0.327 N 
HETATM    3  O   UNL     1      40.208 -14.950   5.425  1.00  0.00    -0.273 OA
HETATM    4  H   UNL     1      40.445 -16.992   4.482  1.00  0.00     0.169 HD
ENDROOT
BRANCH   2   5
HETATM    5  C   UNL     1      42.129 -17.125   3.304  1.00  0.00     0.035 A 
HETATM    6  C   UNL     1      42.606 -18.427   3.466  1.00  0.00     0.042 A 
HETATM    7  C   UNL     1      43.494 -19.003   2.535  1.00  0.00    -0.021 A 
HETATM    8  C   UNL     1      43.910 -18.248   1.434  1.00  0.00     0.012 A 
HETATM    9  C   UNL     1      43.448 -16.946   1.262  1.00  0.00     0.003 A 
HETATM   10  C   UNL     1      42.567 -16.392   2.191  1.00  0.00     0.029 A 
BRANCH   7  11
HETATM   11  C   UNL     1      43.990 -20.359   2.714  1.00  0.00     0.010 A 
HETATM   12  C   UNL     1      43.989 -21.467   1.832  1.00  0.00     0.152 A 
HETATM   13  N   UNL     1      44.528 -22.561   2.376  1.00  0.00    -0.187 NA
HETATM   14  N   UNL     1      44.873 -22.162   3.608  1.00  0.00    -0.289 N 
HETATM   15  H   UNL     1      45.309 -22.838   4.229  1.00  0.00     0.188 HD
HETATM   16  C   UNL     1      44.571 -20.855   3.862  1.00  0.00     0.123 A 
ENDBRANCH   7  11
ENDBRANCH   2   5
BRANCH   1  17
HETATM   17  C   UNL     1      42.268 -14.176   4.467  1.00  0.00     0.103 C 
BRANCH  17  18
HETATM   18  C   UNL     1      43.607 -14.523   5.124  1.00  0.00     0.014 C 
BRANCH  18  19
HETATM   19  C   UNL     1      43.446 -15.045   6.556  1.00  0.00     0.046 C 
BRANCH  19  20
HETATM   20  C   UNL     1      43.851 -16.487   6.657  1.00  0.00    -0.017 A 
HETATM   21  S   UNL     1      42.801 -17.636   7.369  1.00  0.00    -0.100 SA
HETATM   22  C   UNL     1      43.910 -18.913   7.113  1.00  0.00    -0.021 A 
HETATM   23  C   UNL     1      43.565 -20.298   7.541  1.00  0.00     0.056 C 
HETATM   24  C   UNL     1      45.058 -18.470   6.491  1.00  0.00     0.015 A 
HETATM   25  C   UNL     1      45.025 -17.071   6.230  1.00  0.00     0.015 A 
ENDBRANCH  19  20
ENDBRANCH  18  19
ENDBRANCH  17  18
ENDBRANCH   1  17
TORSDOF 6
ENDMDL
MODEL 4
REMARK VINA RESULT:      -7.5      3.174      5.587
REMARK  6 active torsions:
REMARK  status: ('A' for Active; 'I' for Inactive)
REMARK    1  A    between atoms: C_4  and  C_5 
REMARK    2  A    between atoms: C_5  and  C_6 
REMARK    3  A    between atoms: C_6  and  C_7 
REMARK    4  A    between atoms: C_7  and  C_8 
REMARK       I    between atoms: C_8  and  N_9 
REMARK    5  A    between atoms: N_9  and  C_10 
REMARK    6  A    between atoms: C_12  and  C_13 
ROOT
HETATM    1  C   UNL     1      44.292 -15.867   6.443  1.00  0.00     0.222 C 
HETATM    2  N   UNL     1      44.755 -17.045   6.947  1.00  0.00    -0.327 N 
HETATM    3  O   UNL     1      44.752 -14.830   6.930  1.00  0.00    -0.273 OA
HETATM    4  H   UNL     1      45.456 -16.853   7.655  1.00  0.00     0.169 HD
ENDROOT
BRANCH   2   5
HETATM    5  C   UNL     1      44.487 -18.408   6.715  1.00  0.00     0.035 A 
HETATM    6  C   UNL     1      44.664 -19.088   5.509  1.00  0.00     0.042 A 
HETATM    7  C   UNL     1      44.360 -20.459   5.389  1.00  0.00    -0.021 A 
HETATM    8  C   UNL     1      43.861 -21.145   6.500  1.00  0.00     0.012 A 
HETATM    9  C   UNL     1      43.672 -20.480   7.708  1.00  0.00     0.003 A 
HETATM   10  C   UNL     1      43.983 -19.124   7.811  1.00  0.00     0.029 A 
BRANCH   7  11
HETATM   11  C   UNL     1      44.543 -21.159   4.127  1.00  0.00     0.010 A 
HETATM   12  C   UNL     1      44.574 -22.544   3.834  1.00  0.00     0.152 A 
HETATM   13  N   UNL     1      44.785 -22.796   2.540  1.00  0.00    -0.187 NA
HETATM   14  N   UNL     1      44.894 -21.574   1.997  1.00  0.00    -0.289 N 
HETATM   15  H   UNL     1      45.066 -21.505   0.998  1.00  0.00     0.188 HD
HETATM   16  C   UNL     1      44.760 -20.561   2.903  1.00  0.00     0.123 A 
ENDBRANCH   7  11
ENDBRANCH   2   5
BRANCH   1  17
HETATM   17  C   UNL     1      43.266 -15.826   5.332  1.00  0.00     0.103 C 
BRANCH  17  18
HETATM   18  C   UNL     1      41.845 -16.162   5.793  1.00  0.00     0.014 C 
BRANCH  18  19
HETATM   19  C   UNL     1      41.260 -17.380   5.069  1.00  0.00     0.046 C 
BRANCH  19  20
HETATM   20  C   UNL     1      41.531 -17.316   3.594  1.00  0.00    -0.017 A 
HETATM   21  S   UNL     1      40.801 -16.106   2.628  1.00  0.00    -0.100 SA
HETATM   22  C   UNL     1      41.560 -16.683   1.207  1.00  0.00    -0.021 A 
HETATM   23  C   UNL     1      41.320 -16.001  -0.096  1.00  0.00     0.056 C 
HETATM   24  C   UNL     1      42.359 -17.776   1.467  1.00  0.00     0.015 A 
HETATM   25  C   UNL     1      42.341 -18.143   2.843  1.00  0.00     0.015 A 
ENDBRANCH  19  20
ENDBRANCH  18  19
ENDBRANCH  17  18
ENDBRANCH   1  17
TORSDOF 6
ENDMDL
MODEL 5
REMARK VINA RESULT:      -7.5      2.069      4.642
REMARK  6 active torsions:
REMARK  status: ('A' for Active; 'I' for Inactive)
REMARK    1  A    between atoms: C_4  and  C_5 
REMARK    2  A    between atoms: C_5  and  C_6 
REMARK    3  A    between atoms: C_6  and  C_7 
REMARK    4  A    between atoms: C_7  and  C_8 
REMARK       I    between atoms: C_8  and  N_9 
REMARK    5  A    between atoms: N_9  and  C_10 
REMARK    6  A    between atoms: C_12  and  C_13 
ROOT
HETATM    1  C   UNL     1      44.250 -18.524   7.007  1.00  0.00     0.222 C 
HETATM    2  N   UNL     1      43.829 -19.366   6.022  1.00  0.00    -0.327 N 
HETATM    3  O   UNL     1      44.186 -18.944   8.166  1.00  0.00    -0.273 OA
HETATM    4  H   UNL     1      43.546 -20.249   6.435  1.00  0.00     0.169 HD
ENDROOT
BRANCH   2   5
HETATM    5  C   UNL     1      43.702 -19.286   4.621  1.00  0.00     0.035 A 
HETATM    6  C   UNL     1      42.893 -18.392   3.919  1.00  0.00     0.042 A 
HETATM    7  C   UNL     1      42.843 -18.401   2.510  1.00  0.00    -0.021 A 
HETATM    8  C   UNL     1      43.613 -19.332   1.807  1.00  0.00     0.012 A 
HETATM    9  C   UNL     1      44.420 -20.235   2.494  1.00  0.00     0.003 A 
HETATM   10  C   UNL     1      44.462 -20.210   3.889  1.00  0.00     0.029 A 
BRANCH   7  11
HETATM   11  C   UNL     1      41.993 -17.469   1.785  1.00  0.00     0.010 A 
HETATM   12  C   UNL     1      42.285 -16.598   0.707  1.00  0.00     0.152 A 
HETATM   13  N   UNL     1      41.229 -15.878   0.322  1.00  0.00    -0.187 NA
HETATM   14  N   UNL     1      40.255 -16.280   1.152  1.00  0.00    -0.289 N 
HETATM   15  H   UNL     1      39.336 -15.860   1.055  1.00  0.00     0.188 HD
HETATM   16  C   UNL     1      40.660 -17.228   2.048  1.00  0.00     0.123 A 
ENDBRANCH   7  11
ENDBRANCH   2   5
BRANCH   1  17
HETATM   17  C   UNL     1      44.779 -17.141   6.698  1.00  0.00     0.103 C 
BRANCH  17  18
HETATM   18  C   UNL     1      43.826 -16.013   7.103  1.00  0.00     0.014 C 
BRANCH  18  19
HETATM   19  C   UNL     1      42.367 -16.315   6.746  1.00  0.00     0.046 C 
BRANCH  19  20
HETATM   20  C   UNL     1      41.887 -15.432   5.631  1.00  0.00    -0.017 A 
HETATM   21  S   UNL     1      43.003 -14.714   4.550  1.00  0.00    -0.100 SA
HETATM   22  C   UNL     1      41.758 -13.939   3.668  1.00  0.00    -0.021 A 
HETATM   23  C   UNL     1      42.096 -13.089   2.492  1.00  0.00     0.056 C 
HETATM   24  C   UNL     1      40.514 -14.228   4.187  1.00  0.00     0.015 A 
HETATM   25  C   UNL     1      40.588 -15.086   5.321  1.00  0.00     0.015 A 
ENDBRANCH  19  20
ENDBRANCH  18  19
ENDBRANCH  17  18
ENDBRANCH   1  17
TORSDOF 6
ENDMDL
MODEL 6
REMARK VINA RESULT:      -7.5      3.108      4.544
REMARK  6 active torsions:
REMARK  status: ('A' for Active; 'I' for Inactive)
REMARK    1  A    between atoms: C_4  and  C_5 
REMARK    2  A    between atoms: C_5  and  C_6 
REMARK    3  A    between atoms: C_6  and  C_7 
REMARK    4  A    between atoms: C_7  and  C_8 
REMARK       I    between atoms: C_8  and  N_9 
REMARK    5  A    between atoms: N_9  and  C_10 
REMARK    6  A    between atoms: C_12  and  C_13 
ROOT
HETATM    1  C   UNL     1      41.442 -16.941   3.831  1.00  0.00     0.222 C 
HETATM    2  N   UNL     1      40.351 -16.602   3.088  1.00  0.00    -0.327 N 
HETATM    3  O   UNL     1      41.285 -17.813   4.690  1.00  0.00    -0.273 OA
HETATM    4  H   UNL     1      39.563 -17.177   3.369  1.00  0.00     0.169 HD
ENDROOT
BRANCH   2   5
HETATM    5  C   UNL     1      40.086 -15.671   2.065  1.00  0.00     0.035 A 
HETATM    6  C   UNL     1      40.660 -15.661   0.793  1.00  0.00     0.042 A 
HETATM    7  C   UNL     1      40.320 -14.676  -0.157  1.00  0.00    -0.021 A 
HETATM    8  C   UNL     1      39.398 -13.685   0.191  1.00  0.00     0.012 A 
HETATM    9  C   UNL     1      38.821 -13.678   1.459  1.00  0.00     0.003 A 
HETATM   10  C   UNL     1      39.164 -14.663   2.385  1.00  0.00     0.029 A 
BRANCH   7  11
HETATM   11  C   UNL     1      40.926 -14.670  -1.479  1.00  0.00     0.010 A 
HETATM   12  C   UNL     1      40.815 -15.588  -2.552  1.00  0.00     0.152 A 
HETATM   13  N   UNL     1      41.549 -15.238  -3.611  1.00  0.00    -0.187 NA
HETATM   14  N   UNL     1      42.138 -14.097  -3.222  1.00  0.00    -0.289 N 
HETATM   15  H   UNL     1      42.763 -13.632  -3.873  1.00  0.00     0.188 HD
HETATM   16  C   UNL     1      41.801 -13.715  -1.955  1.00  0.00     0.123 A 
ENDBRANCH   7  11
ENDBRANCH   2   5
BRANCH   1  17
HETATM   17  C   UNL     1      42.788 -16.286   3.611  1.00  0.00     0.103 C 
BRANCH  17  18
HETATM   18  C   UNL     1      43.894 -17.269   3.219  1.00  0.00     0.014 C 
BRANCH  18  19
HETATM   19  C   UNL     1      43.420 -18.321   2.209  1.00  0.00     0.046 C 
BRANCH  19  20
HETATM   20  C   UNL     1      43.826 -19.703   2.634  1.00  0.00    -0.017 A 
HETATM   21  S   UNL     1      44.436 -19.983   4.208  1.00  0.00    -0.100 SA
HETATM   22  C   UNL     1      44.639 -21.655   3.909  1.00  0.00    -0.021 A 
HETATM   23  C   UNL     1      45.176 -22.544   4.977  1.00  0.00     0.056 C 
HETATM   24  C   UNL     1      44.242 -21.993   2.632  1.00  0.00     0.015 A 
HETATM   25  C   UNL     1      43.776 -20.867   1.896  1.00  0.00     0.015 A 
ENDBRANCH  19  20
ENDBRANCH  18  19
ENDBRANCH  17  18
ENDBRANCH   1  17
TORSDOF 6
ENDMDL
MODEL 7
REMARK VINA RESULT:      -7.3      3.230      6.494
REMARK  6 active torsions:
REMARK  status: ('A' for Active; 'I' for Inactive)
REMARK    1  A    between atoms: C_4  and  C_5 
REMARK    2  A    between atoms: C_5  and  C_6 
REMARK    3  A    between atoms: C_6  and  C_7 
REMARK    4  A    between atoms: C_7  and  C_8 
REMARK       I    between atoms: C_8  and  N_9 
REMARK    5  A    between atoms: N_9  and  C_10 
REMARK    6  A    between atoms: C_12  and  C_13 
ROOT
HETATM    1  C   UNL     1      39.710 -15.333   2.042  1.00  0.00     0.222 C 
HETATM    2  N   UNL     1      40.225 -16.558   1.741  1.00  0.00    -0.327 N 
HETATM    3  O   UNL     1      38.531 -15.131   1.736  1.00  0.00    -0.273 OA
HETATM    4  H   UNL     1      39.501 -17.131   1.320  1.00  0.00     0.169 HD
ENDROOT
BRANCH   2   5
HETATM    5  C   UNL     1      41.483 -17.177   1.878  1.00  0.00     0.035 A 
HETATM    6  C   UNL     1      41.924 -17.910   2.981  1.00  0.00     0.042 A 
HETATM    7  C   UNL     1      43.210 -18.487   3.011  1.00  0.00    -0.021 A 
HETATM    8  C   UNL     1      44.061 -18.309   1.916  1.00  0.00     0.012 A 
HETATM    9  C   UNL     1      43.638 -17.575   0.811  1.00  0.00     0.003 A 
HETATM   10  C   UNL     1      42.361 -17.015   0.795  1.00  0.00     0.029 A 
BRANCH   7  11
HETATM   11  C   UNL     1      43.664 -19.245   4.166  1.00  0.00     0.010 A 
HETATM   12  C   UNL     1      43.339 -19.122   5.538  1.00  0.00     0.152 A 
HETATM   13  N   UNL     1      43.984 -20.006   6.304  1.00  0.00    -0.187 NA
HETATM   14  N   UNL     1      44.729 -20.696   5.429  1.00  0.00    -0.289 N 
HETATM   15  H   UNL     1      45.324 -21.438   5.783  1.00  0.00     0.188 HD
HETATM   16  C   UNL     1      44.576 -20.280   4.137  1.00  0.00     0.123 A 
ENDBRANCH   7  11
ENDBRANCH   2   5
BRANCH   1  17
HETATM   17  C   UNL     1      40.539 -14.268   2.727  1.00  0.00     0.103 C 
BRANCH  17  18
HETATM   18  C   UNL     1      39.767 -13.469   3.780  1.00  0.00     0.014 C 
BRANCH  18  19
HETATM   19  C   UNL     1      39.772 -14.145   5.156  1.00  0.00     0.046 C 
BRANCH  19  20
HETATM   20  C   UNL     1      41.170 -14.478   5.591  1.00  0.00    -0.017 A 
HETATM   21  S   UNL     1      42.343 -13.244   5.763  1.00  0.00    -0.100 SA
HETATM   22  C   UNL     1      43.549 -14.358   6.244  1.00  0.00    -0.021 A 
HETATM   23  C   UNL     1      44.920 -13.878   6.573  1.00  0.00     0.056 C 
HETATM   24  C   UNL     1      43.062 -15.648   6.277  1.00  0.00     0.015 A 
HETATM   25  C   UNL     1      41.692 -15.717   5.898  1.00  0.00     0.015 A 
ENDBRANCH  19  20
ENDBRANCH  18  19
ENDBRANCH  17  18
ENDBRANCH   1  17
TORSDOF 6
ENDMDL
MODEL 8
REMARK VINA RESULT:      -7.3      3.035      5.907
REMARK  6 active torsions:
REMARK  status: ('A' for Active; 'I' for Inactive)
REMARK    1  A    between atoms: C_4  and  C_5 
REMARK    2  A    between atoms: C_5  and  C_6 
REMARK    3  A    between atoms: C_6  and  C_7 
REMARK    4  A    between atoms: C_7  and  C_8 
REMARK       I    between atoms: C_8  and  N_9 
REMARK    5  A    between atoms: N_9  and  C_10 
REMARK    6  A    between atoms: C_12  and  C_13 
ROOT
HETATM    1  C   UNL     1      44.290 -18.374   7.111  1.00  0.00     0.222 C 
HETATM    2  N   UNL     1      43.867 -19.227   6.136  1.00  0.00    -0.327 N 
HETATM    3  O   UNL     1      44.218 -18.776   8.276  1.00  0.00    -0.273 OA
HETATM    4  H   UNL     1      43.576 -20.102   6.560  1.00  0.00     0.169 HD
ENDROOT
BRANCH   2   5
HETATM    5  C   UNL     1      43.748 -19.166   4.734  1.00  0.00     0.035 A 
HETATM    6  C   UNL     1      42.966 -18.262   4.014  1.00  0.00     0.042 A 
HETATM    7  C   UNL     1      42.921 -18.292   2.605  1.00  0.00    -0.021 A 
HETATM    8  C   UNL     1      43.667 -19.256   1.921  1.00  0.00     0.012 A 
HETATM    9  C   UNL     1      44.448 -20.169   2.626  1.00  0.00     0.003 A 
HETATM   10  C   UNL     1      44.485 -20.122   4.020  1.00  0.00     0.029 A 
BRANCH   7  11
HETATM   11  C   UNL     1      42.100 -17.349   1.862  1.00  0.00     0.010 A 
HETATM   12  C   UNL     1      42.463 -16.278   1.010  1.00  0.00     0.152 A 
HETATM   13  N   UNL     1      41.407 -15.625   0.519  1.00  0.00    -0.187 NA
HETATM   14  N   UNL     1      40.361 -16.270   1.057  1.00  0.00    -0.289 N 
HETATM   15  H   UNL     1      39.426 -15.945   0.830  1.00  0.00     0.188 HD
HETATM   16  C   UNL     1      40.721 -17.308   1.869  1.00  0.00     0.123 A 
ENDBRANCH   7  11
ENDBRANCH   2   5
BRANCH   1  17
HETATM   17  C   UNL     1      44.830 -16.999   6.785  1.00  0.00     0.103 C 
BRANCH  17  18
HETATM   18  C   UNL     1      43.888 -15.858   7.178  1.00  0.00     0.014 C 
BRANCH  18  19
HETATM   19  C   UNL     1      44.141 -14.578   6.373  1.00  0.00     0.046 C 
BRANCH  19  20
HETATM   20  C   UNL     1      44.965 -13.598   7.157  1.00  0.00    -0.017 A 
HETATM   21  S   UNL     1      44.312 -12.824   8.537  1.00  0.00    -0.100 SA
HETATM   22  C   UNL     1      45.757 -11.952   8.819  1.00  0.00    -0.021 A 
HETATM   23  C   UNL     1      45.852 -11.020   9.977  1.00  0.00     0.056 C 
HETATM   24  C   UNL     1      46.721 -12.251   7.880  1.00  0.00     0.015 A 
HETATM   25  C   UNL     1      46.264 -13.198   6.920  1.00  0.00     0.015 A 
ENDBRANCH  19  20
ENDBRANCH  18  19
ENDBRANCH  17  18
ENDBRANCH   1  17
TORSDOF 6
ENDMDL
MODEL 9
REMARK VINA RESULT:      -7.2      4.310      7.368
REMARK  6 active torsions:
REMARK  status: ('A' for Active; 'I' for Inactive)
REMARK    1  A    between atoms: C_4  and  C_5 
REMARK    2  A    between atoms: C_5  and  C_6 
REMARK    3  A    between atoms: C_6  and  C_7 
REMARK    4  A    between atoms: C_7  and  C_8 
REMARK       I    between atoms: C_8  and  N_9 
REMARK    5  A    between atoms: N_9  and  C_10 
REMARK    6  A    between atoms: C_12  and  C_13 
ROOT
HETATM    1  C   UNL     1      42.148 -15.377   5.440  1.00  0.00     0.222 C 
HETATM    2  N   UNL     1      41.861 -16.207   4.397  1.00  0.00    -0.327 N 
HETATM    3  O   UNL     1      41.197 -14.797   5.972  1.00  0.00    -0.273 OA
HETATM    4  H   UNL     1      40.857 -16.224   4.251  1.00  0.00     0.169 HD
ENDROOT
BRANCH   2   5
HETATM    5  C   UNL     1      42.614 -17.008   3.518  1.00  0.00     0.035 A 
HETATM    6  C   UNL     1      42.996 -18.332   3.734  1.00  0.00     0.042 A 
HETATM    7  C   UNL     1      43.755 -19.041   2.781  1.00  0.00    -0.021 A 
HETATM    8  C   UNL     1      44.140 -18.396   1.601  1.00  0.00     0.012 A 
HETATM    9  C   UNL     1      43.772 -17.072   1.374  1.00  0.00     0.003 A 
HETATM   10  C   UNL     1      43.017 -16.387   2.326  1.00  0.00     0.029 A 
BRANCH   7  11
HETATM   11  C   UNL     1      44.153 -20.420   3.015  1.00  0.00     0.010 A 
HETATM   12  C   UNL     1      44.098 -21.555   2.170  1.00  0.00     0.152 A 
HETATM   13  N   UNL     1      44.547 -22.664   2.762  1.00  0.00    -0.187 NA
HETATM   14  N   UNL     1      44.889 -22.248   3.990  1.00  0.00    -0.289 N 
HETATM   15  H   UNL     1      45.263 -22.931   4.643  1.00  0.00     0.188 HD
HETATM   16  C   UNL     1      44.672 -20.916   4.194  1.00  0.00     0.123 A 
ENDBRANCH   7  11
ENDBRANCH   2   5
BRANCH   1  17
HETATM   17  C   UNL     1      43.566 -15.179   5.931  1.00  0.00     0.103 C 
BRANCH  17  18
HETATM   18  C   UNL     1      43.801 -13.823   6.601  1.00  0.00     0.014 C 
BRANCH  18  19
HETATM   19  C   UNL     1      45.195 -13.707   7.228  1.00  0.00     0.046 C 
BRANCH  19  20
HETATM   20  C   UNL     1      45.231 -12.631   8.274  1.00  0.00    -0.017 A 
HETATM   21  S   UNL     1      43.796 -12.145   9.071  1.00  0.00    -0.100 SA
HETATM   22  C   UNL     1      44.629 -10.988  10.017  1.00  0.00    -0.021 A 
HETATM   23  C   UNL     1      43.884 -10.158  11.005  1.00  0.00     0.056 C 
HETATM   24  C   UNL     1      45.978 -10.977   9.733  1.00  0.00     0.015 A 
HETATM   25  C   UNL     1      46.325 -11.922   8.726  1.00  0.00     0.015 A 
ENDBRANCH  19  20
ENDBRANCH  18  19
ENDBRANCH  17  18
ENDBRANCH   1  17
TORSDOF 6
ENDMDL
MODEL 10
REMARK VINA RESULT:      -7.2      2.541      5.147
REMARK  6 active torsions:
REMARK  status: ('A' for Active; 'I' for Inactive)
REMARK    1  A    between atoms: C_4  and  C_5 
REMARK    2  A    between atoms: C_5  and  C_6 
REMARK    3  A    between atoms: C_6  and  C_7 
REMARK    4  A    between atoms: C_7  and  C_8 
REMARK       I    between atoms: C_8  and  N_9 
REMARK    5  A    between atoms: N_9  and  C_10 
REMARK    6  A    between atoms: C_12  and  C_13 
ROOT
HETATM    1  C   UNL     1      40.775 -16.190   2.724  1.00  0.00     0.222 C 
HETATM    2  N   UNL     1      40.778 -16.071   4.082  1.00  0.00    -0.327 N 
HETATM    3  O   UNL     1      39.690 -16.045   2.152  1.00  0.00    -0.273 OA
HETATM    4  H   UNL     1      39.841 -15.845   4.400  1.00  0.00     0.169 HD
ENDROOT
BRANCH   2   5
HETATM    5  C   UNL     1      41.749 -16.189   5.095  1.00  0.00     0.035 A 
HETATM    6  C   UNL     1      42.634 -15.191   5.507  1.00  0.00     0.042 A 
HETATM    7  C   UNL     1      43.570 -15.421   6.535  1.00  0.00    -0.021 A 
HETATM    8  C   UNL     1      43.617 -16.678   7.145  1.00  0.00     0.012 A 
HETATM    9  C   UNL     1      42.745 -17.686   6.740  1.00  0.00     0.003 A 
HETATM   10  C   UNL     1      41.822 -17.441   5.724  1.00  0.00     0.029 A 
BRANCH   7  11
HETATM   11  C   UNL     1      44.492 -14.377   6.956  1.00  0.00     0.010 A 
HETATM   12  C   UNL     1      45.659 -13.870   6.336  1.00  0.00     0.152 A 
HETATM   13  N   UNL     1      46.251 -12.910   7.052  1.00  0.00    -0.187 NA
HETATM   14  N   UNL     1      45.469 -12.801   8.136  1.00  0.00    -0.289 N 
HETATM   15  H   UNL     1      45.725 -12.121   8.847  1.00  0.00     0.188 HD
HETATM   16  C   UNL     1      44.405 -13.656   8.130  1.00  0.00     0.123 A 
ENDBRANCH   7  11
ENDBRANCH   2   5
BRANCH   1  17
HETATM   17  C   UNL     1      42.041 -16.479   1.949  1.00  0.00     0.103 C 
BRANCH  17  18
HETATM   18  C   UNL     1      42.427 -17.960   1.930  1.00  0.00     0.014 C 
BRANCH  18  19
HETATM   19  C   UNL     1      43.904 -18.191   2.268  1.00  0.00     0.046 C 
BRANCH  19  20
HETATM   20  C   UNL     1      44.143 -19.602   2.723  1.00  0.00    -0.017 A 
HETATM   21  S   UNL     1      44.686 -19.922   4.314  1.00  0.00    -0.100 SA
HETATM   22  C   UNL     1      44.703 -21.611   4.044  1.00  0.00    -0.021 A 
HETATM   23  C   UNL     1      45.115 -22.536   5.137  1.00  0.00     0.056 C 
HETATM   24  C   UNL     1      44.298 -21.925   2.764  1.00  0.00     0.015 A 
HETATM   25  C   UNL     1      43.977 -20.766   2.002  1.00  0.00     0.015 A 
ENDBRANCH  19  20
ENDBRANCH  18  19
ENDBRANCH  17  18
ENDBRANCH   1  17
TORSDOF 6
ENDMDL
