MODEL 1
REMARK VINA RESULT:     -10.6      0.000      0.000
REMARK  7 active torsions:
REMARK  status: ('A' for Active; 'I' for Inactive)
REMARK    1  A    between atoms: C_2  and  C_3 
REMARK    2  A    between atoms: C_4  and  N_5 
REMARK    3  A    between atoms: N_5  and  C_6 
REMARK    4  A    between atoms: C_8  and  N_9 
REMARK    5  A    between atoms: C_11  and  C_12 
REMARK    6  A    between atoms: C_12  and  N_13 
REMARK    7  A    between atoms: C_17  and  C_18 
ROOT
HETATM    1  C   UNL     1      41.401 -12.859   4.280  1.00  0.00     0.218 C 
ENDROOT
BRANCH   1   2
HETATM    2  C   UNL     1      41.532 -11.611   5.136  1.00  0.00     0.166 A 
HETATM    3  N   UNL     1      41.366 -10.420   4.555  1.00  0.00    -0.200 NA
HETATM    4  C   UNL     1      41.458  -9.382   5.367  1.00  0.00     0.219 A 
HETATM    5  N   UNL     1      41.642  -9.455   6.672  1.00  0.00    -0.031 NA
HETATM    6  C   UNL     1      41.791 -10.676   7.176  1.00  0.00     0.731 A 
HETATM    7  N   UNL     1      41.755 -11.786   6.441  1.00  0.00    -0.045 NA
BRANCH   4   8
HETATM    8  N   UNL     1      41.303  -8.127   4.815  1.00  0.00    -0.270 NA
HETATM    9  H   UNL     1      41.232  -8.199   3.809  1.00  0.00     0.127 HD
HETATM   10  H   UNL     1      41.991  -7.488   5.186  1.00  0.00     0.127 HD
ENDBRANCH   4   8
BRANCH   6  11
HETATM   11  N   UNL     1      42.035 -10.862   8.536  1.00  0.00    -0.188 N 
HETATM   12  H   UNL     1      41.220 -10.607   9.072  1.00  0.00     0.184 HD
BRANCH  11  13
HETATM   13  C   UNL     1      43.225 -11.025   9.265  1.00  0.00     0.055 A 
HETATM   14  C   UNL     1      43.394 -10.372  10.509  1.00  0.00    -0.031 A 
HETATM   15  C   UNL     1      44.588 -10.552  11.235  1.00  0.00     0.009 A 
HETATM   16  C   UNL     1      45.597 -11.385  10.762  1.00  0.00     0.001 A 
HETATM   17  C   UNL     1      45.425 -12.056   9.559  1.00  0.00     0.002 A 
HETATM   18  C   UNL     1      44.247 -11.883   8.827  1.00  0.00     0.030 A 
BRANCH  14  19
HETATM   19  C   UNL     1      42.332  -9.476  11.109  1.00  0.00     0.036 C 
HETATM   20  C   UNL     1      42.743  -8.943  12.473  1.00  0.00     0.010 C 
ENDBRANCH  14  19
ENDBRANCH  11  13
ENDBRANCH   6  11
ENDBRANCH   1   2
BRANCH   1  21
HETATM   21  N   UNL     1      41.831 -14.063   4.956  1.00  0.00    -0.260 N 
HETATM   22  C   UNL     1      41.057 -14.766   5.818  1.00  0.00     0.326 A 
HETATM   23  O   UNL     1      39.878 -14.585   6.069  1.00  0.00    -0.247 OA
HETATM   24  N   UNL     1      41.822 -15.748   6.393  1.00  0.00    -0.321 N 
HETATM   25  C   UNL     1      43.216 -15.679   6.004  1.00  0.00     0.140 A 
HETATM   26  H   UNL     1      41.426 -16.380   7.074  1.00  0.00     0.165 HD
HETATM   27  C   UNL     1      44.084 -15.221   7.182  1.00  0.00     0.054 C 
HETATM   28  C   UNL     1      43.124 -14.502   5.002  1.00  0.00     0.261 A 
HETATM   29  O   UNL     1      44.061 -14.011   4.382  1.00  0.00    -0.270 OA
BRANCH  25  30
HETATM   30  C   UNL     1      43.674 -17.016   5.435  1.00  0.00    -0.020 A 
HETATM   31  C   UNL     1      43.181 -17.446   4.185  1.00  0.00     0.022 A 
HETATM   32  C   UNL     1      43.561 -18.675   3.614  1.00  0.00    -0.025 A 
HETATM   33  C   UNL     1      44.465 -19.505   4.307  1.00  0.00    -0.026 A 
HETATM   34  C   UNL     1      43.060 -19.093   2.370  1.00  0.00     0.012 A 
HETATM   35  C   UNL     1      44.960 -19.085   5.549  1.00  0.00     0.013 A 
HETATM   36  C   UNL     1      44.846 -20.733   3.741  1.00  0.00     0.012 A 
HETATM   37  C   UNL     1      44.571 -17.861   6.105  1.00  0.00     0.011 A 
HETATM   38  C   UNL     1      44.340 -21.135   2.505  1.00  0.00     0.001 A 
HETATM   39  C   UNL     1      43.448 -20.316   1.819  1.00  0.00     0.001 A 
ENDBRANCH  25  30
ENDBRANCH   1  21
TORSDOF 7
ENDMDL
MODEL 2
REMARK VINA RESULT:     -10.6      4.151      7.450
REMARK  7 active torsions:
REMARK  status: ('A' for Active; 'I' for Inactive)
REMARK    1  A    between atoms: C_2  and  C_3 
REMARK    2  A    between atoms: C_4  and  N_5 
REMARK    3  A    between atoms: N_5  and  C_6 
REMARK    4  A    between atoms: C_8  and  N_9 
REMARK    5  A    between atoms: C_11  and  C_12 
REMARK    6  A    between atoms: C_12  and  N_13 
REMARK    7  A    between atoms: C_17  and  C_18 
ROOT
HETATM    1  C   UNL     1      41.276 -13.009   3.922  1.00  0.00     0.218 C 
ENDROOT
BRANCH   1   2
HETATM    2  C   UNL     1      40.797 -13.405   2.536  1.00  0.00     0.166 A 
HETATM    3  N   UNL     1      39.529 -13.796   2.389  1.00  0.00    -0.200 NA
HETATM    4  C   UNL     1      39.173 -14.090   1.151  1.00  0.00     0.219 A 
HETATM    5  N   UNL     1      39.950 -13.971   0.091  1.00  0.00    -0.031 NA
HETATM    6  C   UNL     1      41.196 -13.569   0.319  1.00  0.00     0.731 A 
HETATM    7  N   UNL     1      41.668 -13.286   1.532  1.00  0.00    -0.045 NA
BRANCH   4   8
HETATM    8  N   UNL     1      37.874 -14.507   0.945  1.00  0.00    -0.270 NA
HETATM    9  H   UNL     1      37.649 -15.262   1.578  1.00  0.00     0.127 HD
HETATM   10  H   UNL     1      37.702 -14.660  -0.038  1.00  0.00     0.127 HD
ENDBRANCH   4   8
BRANCH   6  11
HETATM   11  N   UNL     1      42.112 -13.454  -0.725  1.00  0.00    -0.188 N 
HETATM   12  H   UNL     1      42.889 -14.079  -0.575  1.00  0.00     0.184 HD
BRANCH  11  13
HETATM   13  C   UNL     1      42.295 -12.471  -1.713  1.00  0.00     0.055 A 
HETATM   14  C   UNL     1      41.894 -12.718  -3.047  1.00  0.00    -0.031 A 
HETATM   15  C   UNL     1      42.073 -11.720  -4.026  1.00  0.00     0.009 A 
HETATM   16  C   UNL     1      42.614 -10.481  -3.697  1.00  0.00     0.001 A 
HETATM   17  C   UNL     1      42.978 -10.219  -2.383  1.00  0.00     0.002 A 
HETATM   18  C   UNL     1      42.809 -11.202  -1.403  1.00  0.00     0.030 A 
BRANCH  14  19
HETATM   19  C   UNL     1      41.267 -14.025  -3.481  1.00  0.00     0.036 C 
HETATM   20  C   UNL     1      39.749 -13.947  -3.507  1.00  0.00     0.010 C 
ENDBRANCH  14  19
ENDBRANCH  11  13
ENDBRANCH   6  11
ENDBRANCH   1   2
BRANCH   1  21
HETATM   21  N   UNL     1      41.785 -14.124   4.691  1.00  0.00    -0.260 N 
HETATM   22  C   UNL     1      41.097 -14.738   5.683  1.00  0.00     0.326 A 
HETATM   23  O   UNL     1      39.937 -14.547   6.006  1.00  0.00    -0.247 OA
HETATM   24  N   UNL     1      41.928 -15.638   6.300  1.00  0.00    -0.321 N 
HETATM   25  C   UNL     1      43.285 -15.593   5.796  1.00  0.00     0.140 A 
HETATM   26  H   UNL     1      41.601 -16.196   7.076  1.00  0.00     0.165 HD
HETATM   27  C   UNL     1      44.231 -14.993   6.843  1.00  0.00     0.054 C 
HETATM   28  C   UNL     1      43.088 -14.537   4.681  1.00  0.00     0.261 A 
HETATM   29  O   UNL     1      43.962 -14.104   3.938  1.00  0.00    -0.270 OA
BRANCH  25  30
HETATM   30  C   UNL     1      43.729 -16.978   5.344  1.00  0.00    -0.020 A 
HETATM   31  C   UNL     1      43.305 -17.469   4.091  1.00  0.00     0.022 A 
HETATM   32  C   UNL     1      43.675 -18.744   3.623  1.00  0.00    -0.025 A 
HETATM   33  C   UNL     1      44.498 -19.559   4.427  1.00  0.00    -0.026 A 
HETATM   34  C   UNL     1      43.244 -19.224   2.376  1.00  0.00     0.012 A 
HETATM   35  C   UNL     1      44.924 -19.079   5.673  1.00  0.00     0.013 A 
HETATM   36  C   UNL     1      44.869 -20.833   3.965  1.00  0.00     0.012 A 
HETATM   37  C   UNL     1      44.545 -17.809   6.124  1.00  0.00     0.011 A 
HETATM   38  C   UNL     1      44.432 -21.295   2.723  1.00  0.00     0.001 A 
HETATM   39  C   UNL     1      43.620 -20.492   1.929  1.00  0.00     0.001 A 
ENDBRANCH  25  30
ENDBRANCH   1  21
TORSDOF 7
ENDMDL
MODEL 3
REMARK VINA RESULT:     -10.5      4.274      7.180
REMARK  7 active torsions:
REMARK  status: ('A' for Active; 'I' for Inactive)
REMARK    1  A    between atoms: C_2  and  C_3 
REMARK    2  A    between atoms: C_4  and  N_5 
REMARK    3  A    between atoms: N_5  and  C_6 
REMARK    4  A    between atoms: C_8  and  N_9 
REMARK    5  A    between atoms: C_11  and  C_12 
REMARK    6  A    between atoms: C_12  and  N_13 
REMARK    7  A    between atoms: C_17  and  C_18 
ROOT
HETATM    1  C   UNL     1      41.614 -12.509   3.716  1.00  0.00     0.218 C 
ENDROOT
BRANCH   1   2
HETATM    2  C   UNL     1      41.350 -12.874   2.265  1.00  0.00     0.166 A 
HETATM    3  N   UNL     1      40.248 -13.568   1.973  1.00  0.00    -0.200 NA
HETATM    4  C   UNL     1      40.066 -13.817   0.688  1.00  0.00     0.219 A 
HETATM    5  N   UNL     1      40.848 -13.390  -0.284  1.00  0.00    -0.031 NA
HETATM    6  C   UNL     1      41.922 -12.700   0.086  1.00  0.00     0.731 A 
HETATM    7  N   UNL     1      42.220 -12.427   1.355  1.00  0.00    -0.045 NA
BRANCH   4   8
HETATM    8  N   UNL     1      38.944 -14.539   0.334  1.00  0.00    -0.270 NA
HETATM    9  H   UNL     1      39.025 -14.855  -0.622  1.00  0.00     0.127 HD
HETATM   10  H   UNL     1      38.105 -14.038   0.587  1.00  0.00     0.127 HD
ENDBRANCH   4   8
BRANCH   6  11
HETATM   11  N   UNL     1      42.838 -12.241  -0.859  1.00  0.00    -0.188 N 
HETATM   12  H   UNL     1      43.772 -12.278  -0.482  1.00  0.00     0.184 HD
BRANCH  11  13
HETATM   13  C   UNL     1      42.679 -11.494  -2.038  1.00  0.00     0.055 A 
HETATM   14  C   UNL     1      42.859 -10.091  -2.022  1.00  0.00    -0.031 A 
HETATM   15  C   UNL     1      42.707  -9.353  -3.213  1.00  0.00     0.009 A 
HETATM   16  C   UNL     1      42.407  -9.986  -4.416  1.00  0.00     0.001 A 
HETATM   17  C   UNL     1      42.262 -11.367  -4.446  1.00  0.00     0.002 A 
HETATM   18  C   UNL     1      42.407 -12.109  -3.271  1.00  0.00     0.030 A 
BRANCH  14  19
HETATM   19  C   UNL     1      43.219  -9.329  -0.764  1.00  0.00     0.036 C 
HETATM   20  C   UNL     1      44.277  -8.269  -1.024  1.00  0.00     0.010 C 
ENDBRANCH  14  19
ENDBRANCH  11  13
ENDBRANCH   6  11
ENDBRANCH   1   2
BRANCH   1  21
HETATM   21  N   UNL     1      41.995 -13.643   4.529  1.00  0.00    -0.260 N 
HETATM   22  C   UNL     1      41.187 -14.223   5.449  1.00  0.00     0.326 A 
HETATM   23  O   UNL     1      40.010 -13.980   5.656  1.00  0.00    -0.247 OA
HETATM   24  N   UNL     1      41.912 -15.157   6.143  1.00  0.00    -0.321 N 
HETATM   25  C   UNL     1      43.313 -15.173   5.775  1.00  0.00     0.140 A 
HETATM   26  H   UNL     1      41.486 -15.697   6.883  1.00  0.00     0.165 HD
HETATM   27  C   UNL     1      44.177 -14.612   6.911  1.00  0.00     0.054 C 
HETATM   28  C   UNL     1      43.273 -14.113   4.647  1.00  0.00     0.261 A 
HETATM   29  O   UNL     1      44.234 -13.722   3.994  1.00  0.00    -0.270 OA
BRANCH  25  30
HETATM   30  C   UNL     1      43.738 -16.578   5.367  1.00  0.00    -0.020 A 
HETATM   31  C   UNL     1      43.358 -17.079   4.104  1.00  0.00     0.022 A 
HETATM   32  C   UNL     1      43.713 -18.372   3.676  1.00  0.00    -0.025 A 
HETATM   33  C   UNL     1      44.474 -19.195   4.531  1.00  0.00    -0.026 A 
HETATM   34  C   UNL     1      43.326 -18.862   2.417  1.00  0.00     0.012 A 
HETATM   35  C   UNL     1      44.855 -18.704   5.787  1.00  0.00     0.013 A 
HETATM   36  C   UNL     1      44.830 -20.487   4.107  1.00  0.00     0.012 A 
HETATM   37  C   UNL     1      44.493 -17.417   6.198  1.00  0.00     0.011 A 
HETATM   38  C   UNL     1      44.437 -20.959   2.855  1.00  0.00     0.001 A 
HETATM   39  C   UNL     1      43.686 -20.148   2.010  1.00  0.00     0.001 A 
ENDBRANCH  25  30
ENDBRANCH   1  21
TORSDOF 7
ENDMDL
MODEL 4
REMARK VINA RESULT:     -10.1      4.678      8.279
REMARK  7 active torsions:
REMARK  status: ('A' for Active; 'I' for Inactive)
REMARK    1  A    between atoms: C_2  and  C_3 
REMARK    2  A    between atoms: C_4  and  N_5 
REMARK    3  A    between atoms: N_5  and  C_6 
REMARK    4  A    between atoms: C_8  and  N_9 
REMARK    5  A    between atoms: C_11  and  C_12 
REMARK    6  A    between atoms: C_12  and  N_13 
REMARK    7  A    between atoms: C_17  and  C_18 
ROOT
HETATM    1  C   UNL     1      41.538 -12.255   2.983  1.00  0.00     0.218 C 
ENDROOT
BRANCH   1   2
HETATM    2  C   UNL     1      41.511 -12.206   1.465  1.00  0.00     0.166 A 
HETATM    3  N   UNL     1      42.557 -11.676   0.826  1.00  0.00    -0.200 NA
HETATM    4  C   UNL     1      42.480 -11.699  -0.492  1.00  0.00     0.219 A 
HETATM    5  N   UNL     1      41.496 -12.243  -1.183  1.00  0.00    -0.031 NA
HETATM    6  C   UNL     1      40.495 -12.756  -0.476  1.00  0.00     0.731 A 
HETATM    7  N   UNL     1      40.454 -12.748   0.855  1.00  0.00    -0.045 NA
BRANCH   4   8
HETATM    8  N   UNL     1      43.532 -11.156  -1.200  1.00  0.00    -0.270 NA
HETATM    9  H   UNL     1      43.543 -11.525  -2.141  1.00  0.00     0.127 HD
HETATM   10  H   UNL     1      44.388 -11.220  -0.668  1.00  0.00     0.127 HD
ENDBRANCH   4   8
BRANCH   6  11
HETATM   11  N   UNL     1      39.385 -13.314  -1.109  1.00  0.00    -0.188 N 
HETATM   12  H   UNL     1      38.555 -13.149  -0.561  1.00  0.00     0.184 HD
BRANCH  11  13
HETATM   13  C   UNL     1      39.267 -14.269  -2.132  1.00  0.00     0.055 A 
HETATM   14  C   UNL     1      38.204 -14.190  -3.063  1.00  0.00    -0.031 A 
HETATM   15  C   UNL     1      38.103 -15.147  -4.091  1.00  0.00     0.009 A 
HETATM   16  C   UNL     1      39.049 -16.159  -4.226  1.00  0.00     0.001 A 
HETATM   17  C   UNL     1      40.115 -16.223  -3.338  1.00  0.00     0.002 A 
HETATM   18  C   UNL     1      40.224 -15.282  -2.311  1.00  0.00     0.030 A 
BRANCH  14  19
HETATM   19  C   UNL     1      37.153 -13.103  -3.007  1.00  0.00     0.036 C 
HETATM   20  C   UNL     1      36.399 -12.972  -4.321  1.00  0.00     0.010 C 
ENDBRANCH  14  19
ENDBRANCH  11  13
ENDBRANCH   6  11
ENDBRANCH   1   2
BRANCH   1  21
HETATM   21  N   UNL     1      41.654 -13.597   3.509  1.00  0.00    -0.260 N 
HETATM   22  C   UNL     1      40.671 -14.231   4.193  1.00  0.00     0.326 A 
HETATM   23  O   UNL     1      39.528 -13.846   4.370  1.00  0.00    -0.247 OA
HETATM   24  N   UNL     1      41.167 -15.413   4.679  1.00  0.00    -0.321 N 
HETATM   25  C   UNL     1      42.583 -15.581   4.420  1.00  0.00     0.140 A 
HETATM   26  H   UNL     1      40.586 -16.032   5.226  1.00  0.00     0.165 HD
HETATM   27  C   UNL     1      43.388 -15.462   5.719  1.00  0.00     0.054 C 
HETATM   28  C   UNL     1      42.827 -14.294   3.596  1.00  0.00     0.261 A 
HETATM   29  O   UNL     1      43.902 -13.930   3.133  1.00  0.00    -0.270 OA
BRANCH  25  30
HETATM   30  C   UNL     1      42.837 -16.901   3.702  1.00  0.00    -0.020 A 
HETATM   31  C   UNL     1      43.568 -17.917   4.353  1.00  0.00     0.022 A 
HETATM   32  C   UNL     1      43.841 -19.153   3.736  1.00  0.00    -0.025 A 
HETATM   33  C   UNL     1      43.370 -19.388   2.429  1.00  0.00    -0.026 A 
HETATM   34  C   UNL     1      44.574 -20.155   4.392  1.00  0.00     0.012 A 
HETATM   35  C   UNL     1      42.643 -18.384   1.776  1.00  0.00     0.013 A 
HETATM   36  C   UNL     1      43.642 -20.620   1.809  1.00  0.00     0.012 A 
HETATM   37  C   UNL     1      42.380 -17.160   2.402  1.00  0.00     0.011 A 
HETATM   38  C   UNL     1      44.371 -21.606   2.474  1.00  0.00     0.001 A 
HETATM   39  C   UNL     1      44.837 -21.375   3.765  1.00  0.00     0.001 A 
ENDBRANCH  25  30
ENDBRANCH   1  21
TORSDOF 7
ENDMDL
MODEL 5
REMARK VINA RESULT:     -10.0      1.315      2.271
REMARK  7 active torsions:
REMARK  status: ('A' for Active; 'I' for Inactive)
REMARK    1  A    between atoms: C_2  and  C_3 
REMARK    2  A    between atoms: C_4  and  N_5 
REMARK    3  A    between atoms: N_5  and  C_6 
REMARK    4  A    between atoms: C_8  and  N_9 
REMARK    5  A    between atoms: C_11  and  C_12 
REMARK    6  A    between atoms: C_12  and  N_13 
REMARK    7  A    between atoms: C_17  and  C_18 
ROOT
HETATM    1  C   UNL     1      41.608 -12.147   4.396  1.00  0.00     0.218 C 
ENDROOT
BRANCH   1   2
HETATM    2  C   UNL     1      41.150 -11.246   5.529  1.00  0.00     0.166 A 
HETATM    3  N   UNL     1      39.983 -10.607   5.404  1.00  0.00    -0.200 NA
HETATM    4  C   UNL     1      39.633  -9.871   6.443  1.00  0.00     0.219 A 
HETATM    5  N   UNL     1      40.313  -9.778   7.569  1.00  0.00    -0.031 NA
HETATM    6  C   UNL     1      41.460 -10.447   7.619  1.00  0.00     0.731 A 
HETATM    7  N   UNL     1      41.925 -11.187   6.615  1.00  0.00    -0.045 NA
BRANCH   4   8
HETATM    8  N   UNL     1      38.439  -9.184   6.360  1.00  0.00    -0.270 NA
HETATM    9  H   UNL     1      37.701  -9.808   6.065  1.00  0.00     0.127 HD
HETATM   10  H   UNL     1      38.558  -8.327   5.839  1.00  0.00     0.127 HD
ENDBRANCH   4   8
BRANCH   6  11
HETATM   11  N   UNL     1      42.278 -10.381   8.746  1.00  0.00    -0.188 N 
HETATM   12  H   UNL     1      43.242 -10.279   8.469  1.00  0.00     0.184 HD
BRANCH  11  13
HETATM   13  C   UNL     1      42.057 -10.724  10.091  1.00  0.00     0.055 A 
HETATM   14  C   UNL     1      43.148 -10.861  10.980  1.00  0.00    -0.031 A 
HETATM   15  C   UNL     1      42.913 -11.195  12.329  1.00  0.00     0.009 A 
HETATM   16  C   UNL     1      41.619 -11.367  12.810  1.00  0.00     0.001 A 
HETATM   17  C   UNL     1      40.540 -11.200  11.951  1.00  0.00     0.002 A 
HETATM   18  C   UNL     1      40.761 -10.873  10.611  1.00  0.00     0.030 A 
BRANCH  14  19
HETATM   19  C   UNL     1      44.584 -10.658  10.546  1.00  0.00     0.036 C 
HETATM   20  C   UNL     1      45.409 -11.927  10.697  1.00  0.00     0.010 C 
ENDBRANCH  14  19
ENDBRANCH  11  13
ENDBRANCH   6  11
ENDBRANCH   1   2
BRANCH   1  21
HETATM   21  N   UNL     1      41.858 -13.509   4.814  1.00  0.00    -0.260 N 
HETATM   22  C   UNL     1      40.970 -14.267   5.501  1.00  0.00     0.326 A 
HETATM   23  O   UNL     1      39.813 -13.990   5.767  1.00  0.00    -0.247 OA
HETATM   24  N   UNL     1      41.584 -15.435   5.871  1.00  0.00    -0.321 N 
HETATM   25  C   UNL     1      42.991 -15.469   5.525  1.00  0.00     0.140 A 
HETATM   26  H   UNL     1      41.087 -16.136   6.402  1.00  0.00     0.165 HD
HETATM   27  C   UNL     1      43.860 -15.375   6.784  1.00  0.00     0.054 C 
HETATM   28  C   UNL     1      43.085 -14.111   4.786  1.00  0.00     0.261 A 
HETATM   29  O   UNL     1      44.099 -13.629   4.295  1.00  0.00    -0.270 OA
BRANCH  25  30
HETATM   30  C   UNL     1      43.304 -16.710   4.699  1.00  0.00    -0.020 A 
HETATM   31  C   UNL     1      43.771 -17.875   5.344  1.00  0.00     0.022 A 
HETATM   32  C   UNL     1      44.084 -19.048   4.631  1.00  0.00    -0.025 A 
HETATM   33  C   UNL     1      43.926 -19.066   3.231  1.00  0.00    -0.026 A 
HETATM   34  C   UNL     1      44.551 -20.201   5.284  1.00  0.00     0.012 A 
HETATM   35  C   UNL     1      43.464 -17.913   2.583  1.00  0.00     0.013 A 
HETATM   36  C   UNL     1      44.240 -20.235   2.516  1.00  0.00     0.012 A 
HETATM   37  C   UNL     1      43.158 -16.754   3.305  1.00  0.00     0.011 A 
HETATM   38  C   UNL     1      44.703 -21.372   3.179  1.00  0.00     0.001 A 
HETATM   39  C   UNL     1      44.859 -21.356   4.562  1.00  0.00     0.001 A 
ENDBRANCH  25  30
ENDBRANCH   1  21
TORSDOF 7
ENDMDL
MODEL 6
REMARK VINA RESULT:     -10.0      3.571      8.500
REMARK  7 active torsions:
REMARK  status: ('A' for Active; 'I' for Inactive)
REMARK    1  A    between atoms: C_2  and  C_3 
REMARK    2  A    between atoms: C_4  and  N_5 
REMARK    3  A    between atoms: N_5  and  C_6 
REMARK    4  A    between atoms: C_8  and  N_9 
REMARK    5  A    between atoms: C_11  and  C_12 
REMARK    6  A    between atoms: C_12  and  N_13 
REMARK    7  A    between atoms: C_17  and  C_18 
ROOT
HETATM    1  C   UNL     1      43.090 -15.368   7.113  1.00  0.00     0.218 C 
ENDROOT
BRANCH   1   2
HETATM    2  C   UNL     1      43.611 -16.786   6.953  1.00  0.00     0.166 A 
HETATM    3  N   UNL     1      43.612 -17.588   8.021  1.00  0.00    -0.200 NA
HETATM    4  C   UNL     1      44.045 -18.816   7.800  1.00  0.00     0.219 A 
HETATM    5  N   UNL     1      44.408 -19.290   6.623  1.00  0.00    -0.031 NA
HETATM    6  C   UNL     1      44.373 -18.433   5.608  1.00  0.00     0.731 A 
HETATM    7  N   UNL     1      43.992 -17.163   5.730  1.00  0.00    -0.045 NA
BRANCH   4   8
HETATM    8  N   UNL     1      44.073 -19.683   8.873  1.00  0.00    -0.270 NA
HETATM    9  H   UNL     1      44.658 -19.306   9.606  1.00  0.00     0.127 HD
HETATM   10  H   UNL     1      44.267 -20.625   8.563  1.00  0.00     0.127 HD
ENDBRANCH   4   8
BRANCH   6  11
HETATM   11  N   UNL     1      44.780 -18.820   4.332  1.00  0.00    -0.188 N 
HETATM   12  H   UNL     1      45.255 -18.057   3.874  1.00  0.00     0.184 HD
BRANCH  11  13
HETATM   13  C   UNL     1      44.398 -19.891   3.507  1.00  0.00     0.055 A 
HETATM   14  C   UNL     1      43.562 -19.667   2.388  1.00  0.00    -0.031 A 
HETATM   15  C   UNL     1      43.194 -20.748   1.563  1.00  0.00     0.009 A 
HETATM   16  C   UNL     1      43.664 -22.034   1.814  1.00  0.00     0.001 A 
HETATM   17  C   UNL     1      44.512 -22.256   2.889  1.00  0.00     0.002 A 
HETATM   18  C   UNL     1      44.881 -21.193   3.718  1.00  0.00     0.030 A 
BRANCH  14  19
HETATM   19  C   UNL     1      43.035 -18.294   2.027  1.00  0.00     0.036 C 
HETATM   20  C   UNL     1      43.965 -17.561   1.073  1.00  0.00     0.010 C 
ENDBRANCH  14  19
ENDBRANCH  11  13
ENDBRANCH   6  11
ENDBRANCH   1   2
BRANCH   1  21
HETATM   21  N   UNL     1      42.856 -14.700   5.851  1.00  0.00    -0.260 N 
HETATM   22  C   UNL     1      43.740 -13.858   5.265  1.00  0.00     0.326 A 
HETATM   23  O   UNL     1      44.882 -13.621   5.618  1.00  0.00    -0.247 OA
HETATM   24  N   UNL     1      43.139 -13.283   4.173  1.00  0.00    -0.321 N 
HETATM   25  C   UNL     1      41.745 -13.652   4.036  1.00  0.00     0.140 A 
HETATM   26  H   UNL     1      43.636 -12.615   3.602  1.00  0.00     0.165 HD
HETATM   27  C   UNL     1      40.837 -12.457   4.348  1.00  0.00     0.054 C 
HETATM   28  C   UNL     1      41.644 -14.642   5.222  1.00  0.00     0.261 A 
HETATM   29  O   UNL     1      40.635 -15.243   5.573  1.00  0.00    -0.270 OA
BRANCH  25  30
HETATM   30  C   UNL     1      41.484 -14.229   2.651  1.00  0.00    -0.020 A 
HETATM   31  C   UNL     1      41.869 -13.497   1.508  1.00  0.00     0.022 A 
HETATM   32  C   UNL     1      41.646 -13.976   0.203  1.00  0.00    -0.025 A 
HETATM   33  C   UNL     1      41.020 -15.226   0.027  1.00  0.00    -0.026 A 
HETATM   34  C   UNL     1      42.030 -13.236  -0.927  1.00  0.00     0.012 A 
HETATM   35  C   UNL     1      40.634 -15.960   1.157  1.00  0.00     0.013 A 
HETATM   36  C   UNL     1      40.793 -15.707  -1.274  1.00  0.00     0.012 A 
HETATM   37  C   UNL     1      40.861 -15.469   2.448  1.00  0.00     0.011 A 
HETATM   38  C   UNL     1      41.181 -14.960  -2.387  1.00  0.00     0.001 A 
HETATM   39  C   UNL     1      41.799 -13.726  -2.214  1.00  0.00     0.001 A 
ENDBRANCH  25  30
ENDBRANCH   1  21
TORSDOF 7
ENDMDL
MODEL 7
REMARK VINA RESULT:      -9.9      4.575      7.943
REMARK  7 active torsions:
REMARK  status: ('A' for Active; 'I' for Inactive)
REMARK    1  A    between atoms: C_2  and  C_3 
REMARK    2  A    between atoms: C_4  and  N_5 
REMARK    3  A    between atoms: N_5  and  C_6 
REMARK    4  A    between atoms: C_8  and  N_9 
REMARK    5  A    between atoms: C_11  and  C_12 
REMARK    6  A    between atoms: C_12  and  N_13 
REMARK    7  A    between atoms: C_17  and  C_18 
ROOT
HETATM    1  C   UNL     1      40.972 -13.760   3.693  1.00  0.00     0.218 C 
ENDROOT
BRANCH   1   2
HETATM    2  C   UNL     1      40.670 -12.805   2.551  1.00  0.00     0.166 A 
HETATM    3  N   UNL     1      41.128 -11.553   2.630  1.00  0.00    -0.200 NA
HETATM    4  C   UNL     1      40.859 -10.790   1.586  1.00  0.00     0.219 A 
HETATM    5  N   UNL     1      40.238 -11.193   0.494  1.00  0.00    -0.031 NA
HETATM    6  C   UNL     1      39.819 -12.454   0.488  1.00  0.00     0.731 A 
HETATM    7  N   UNL     1      40.003 -13.295   1.504  1.00  0.00    -0.045 NA
BRANCH   4   8
HETATM    8  N   UNL     1      41.304  -9.484   1.622  1.00  0.00    -0.270 NA
HETATM    9  H   UNL     1      41.967  -9.365   2.375  1.00  0.00     0.127 HD
HETATM   10  H   UNL     1      40.525  -8.843   1.585  1.00  0.00     0.127 HD
ENDBRANCH   4   8
BRANCH   6  11
HETATM   11  N   UNL     1      39.112 -12.967  -0.598  1.00  0.00    -0.188 N 
HETATM   12  H   UNL     1      38.133 -12.743  -0.512  1.00  0.00     0.184 HD
BRANCH  11  13
HETATM   13  C   UNL     1      39.439 -13.940  -1.558  1.00  0.00     0.055 A 
HETATM   14  C   UNL     1      38.667 -14.066  -2.737  1.00  0.00    -0.031 A 
HETATM   15  C   UNL     1      39.010 -15.040  -3.696  1.00  0.00     0.009 A 
HETATM   16  C   UNL     1      40.117 -15.865  -3.517  1.00  0.00     0.001 A 
HETATM   17  C   UNL     1      40.899 -15.724  -2.379  1.00  0.00     0.002 A 
HETATM   18  C   UNL     1      40.566 -14.765  -1.418  1.00  0.00     0.030 A 
BRANCH  14  19
HETATM   19  C   UNL     1      37.469 -13.187  -3.024  1.00  0.00     0.036 C 
HETATM   20  C   UNL     1      36.637 -13.719  -4.181  1.00  0.00     0.010 C 
ENDBRANCH  14  19
ENDBRANCH  11  13
ENDBRANCH   6  11
ENDBRANCH   1   2
BRANCH   1  21
HETATM   21  N   UNL     1      41.994 -14.732   3.370  1.00  0.00    -0.260 N 
HETATM   22  C   UNL     1      43.304 -14.429   3.211  1.00  0.00     0.326 A 
HETATM   23  O   UNL     1      43.846 -13.358   3.422  1.00  0.00    -0.247 OA
HETATM   24  N   UNL     1      43.960 -15.545   2.757  1.00  0.00    -0.321 N 
HETATM   25  C   UNL     1      43.067 -16.653   2.485  1.00  0.00     0.140 A 
HETATM   26  H   UNL     1      44.952 -15.522   2.568  1.00  0.00     0.165 HD
HETATM   27  C   UNL     1      42.958 -16.902   0.976  1.00  0.00     0.054 C 
HETATM   28  C   UNL     1      41.740 -16.008   2.953  1.00  0.00     0.261 A 
HETATM   29  O   UNL     1      40.633 -16.534   2.915  1.00  0.00    -0.270 OA
BRANCH  25  30
HETATM   30  C   UNL     1      43.519 -17.895   3.243  1.00  0.00    -0.020 A 
HETATM   31  C   UNL     1      43.702 -19.108   2.545  1.00  0.00     0.022 A 
HETATM   32  C   UNL     1      44.109 -20.289   3.194  1.00  0.00    -0.025 A 
HETATM   33  C   UNL     1      44.344 -20.264   4.584  1.00  0.00    -0.026 A 
HETATM   34  C   UNL     1      44.285 -21.491   2.489  1.00  0.00     0.012 A 
HETATM   35  C   UNL     1      44.164 -19.064   5.284  1.00  0.00     0.013 A 
HETATM   36  C   UNL     1      44.749 -21.442   5.235  1.00  0.00     0.012 A 
HETATM   37  C   UNL     1      43.757 -17.899   4.625  1.00  0.00     0.011 A 
HETATM   38  C   UNL     1      44.919 -22.628   4.521  1.00  0.00     0.001 A 
HETATM   39  C   UNL     1      44.688 -22.654   3.150  1.00  0.00     0.001 A 
ENDBRANCH  25  30
ENDBRANCH   1  21
TORSDOF 7
ENDMDL
MODEL 8
REMARK VINA RESULT:      -9.7      1.843      8.948
REMARK  7 active torsions:
REMARK  status: ('A' for Active; 'I' for Inactive)
REMARK    1  A    between atoms: C_2  and  C_3 
REMARK    2  A    between atoms: C_4  and  N_5 
REMARK    3  A    between atoms: N_5  and  C_6 
REMARK    4  A    between atoms: C_8  and  N_9 
REMARK    5  A    between atoms: C_11  and  C_12 
REMARK    6  A    between atoms: C_12  and  N_13 
REMARK    7  A    between atoms: C_17  and  C_18 
ROOT
HETATM    1  C   UNL     1      40.588 -13.139   4.116  1.00  0.00     0.218 C 
ENDROOT
BRANCH   1   2
HETATM    2  C   UNL     1      40.999 -14.508   4.629  1.00  0.00     0.166 A 
HETATM    3  N   UNL     1      40.241 -15.093   5.560  1.00  0.00    -0.200 NA
HETATM    4  C   UNL     1      40.638 -16.297   5.932  1.00  0.00     0.219 A 
HETATM    5  N   UNL     1      41.665 -16.947   5.419  1.00  0.00    -0.031 NA
HETATM    6  C   UNL     1      42.366 -16.301   4.493  1.00  0.00     0.731 A 
HETATM    7  N   UNL     1      42.076 -15.071   4.075  1.00  0.00    -0.045 NA
BRANCH   4   8
HETATM    8  N   UNL     1      39.893 -16.941   6.898  1.00  0.00    -0.270 NA
HETATM    9  H   UNL     1      39.006 -16.473   7.020  1.00  0.00     0.127 HD
HETATM   10  H   UNL     1      40.449 -17.104   7.725  1.00  0.00     0.127 HD
ENDBRANCH   4   8
BRANCH   6  11
HETATM   11  N   UNL     1      43.497 -16.880   3.919  1.00  0.00    -0.188 N 
HETATM   12  H   UNL     1      44.097 -16.165   3.539  1.00  0.00     0.184 HD
BRANCH  11  13
HETATM   13  C   UNL     1      43.780 -18.197   3.520  1.00  0.00     0.055 A 
HETATM   14  C   UNL     1      44.505 -19.061   4.374  1.00  0.00    -0.031 A 
HETATM   15  C   UNL     1      44.774 -20.383   3.966  1.00  0.00     0.009 A 
HETATM   16  C   UNL     1      44.312 -20.865   2.745  1.00  0.00     0.001 A 
HETATM   17  C   UNL     1      43.569 -20.034   1.917  1.00  0.00     0.002 A 
HETATM   18  C   UNL     1      43.300 -18.720   2.308  1.00  0.00     0.030 A 
BRANCH  14  19
HETATM   19  C   UNL     1      45.014 -18.626   5.731  1.00  0.00     0.036 C 
HETATM   20  C   UNL     1      44.105 -19.095   6.857  1.00  0.00     0.010 C 
ENDBRANCH  14  19
ENDBRANCH  11  13
ENDBRANCH   6  11
ENDBRANCH   1   2
BRANCH   1  21
HETATM   21  N   UNL     1      40.431 -12.158   5.167  1.00  0.00    -0.260 N 
HETATM   22  C   UNL     1      39.294 -11.455   5.384  1.00  0.00     0.326 A 
HETATM   23  O   UNL     1      38.216 -11.606   4.837  1.00  0.00    -0.247 OA
HETATM   24  N   UNL     1      39.540 -10.509   6.346  1.00  0.00    -0.321 N 
HETATM   25  C   UNL     1      40.930 -10.468   6.756  1.00  0.00     0.140 A 
HETATM   26  H   UNL     1      38.814  -9.874   6.646  1.00  0.00     0.165 HD
HETATM   27  C   UNL     1      41.605  -9.188   6.250  1.00  0.00     0.054 C 
HETATM   28  C   UNL     1      41.461 -11.648   5.906  1.00  0.00     0.261 A 
HETATM   29  O   UNL     1      42.623 -12.038   5.865  1.00  0.00    -0.270 OA
BRANCH  25  30
HETATM   30  C   UNL     1      41.041 -10.620   8.268  1.00  0.00    -0.020 A 
HETATM   31  C   UNL     1      42.270 -10.348   8.906  1.00  0.00     0.022 A 
HETATM   32  C   UNL     1      42.434 -10.480  10.297  1.00  0.00    -0.025 A 
HETATM   33  C   UNL     1      41.340 -10.894  11.083  1.00  0.00    -0.026 A 
HETATM   34  C   UNL     1      43.664 -10.211  10.921  1.00  0.00     0.012 A 
HETATM   35  C   UNL     1      40.116 -11.166  10.457  1.00  0.00     0.013 A 
HETATM   36  C   UNL     1      41.501 -11.029  12.473  1.00  0.00     0.012 A 
HETATM   37  C   UNL     1      39.969 -11.032   9.072  1.00  0.00     0.011 A 
HETATM   38  C   UNL     1      42.728 -10.757  13.077  1.00  0.00     0.001 A 
HETATM   39  C   UNL     1      43.809 -10.348  12.303  1.00  0.00     0.001 A 
ENDBRANCH  25  30
ENDBRANCH   1  21
TORSDOF 7
ENDMDL
MODEL 9
REMARK VINA RESULT:      -9.7      3.654      6.282
REMARK  7 active torsions:
REMARK  status: ('A' for Active; 'I' for Inactive)
REMARK    1  A    between atoms: C_2  and  C_3 
REMARK    2  A    between atoms: C_4  and  N_5 
REMARK    3  A    between atoms: N_5  and  C_6 
REMARK    4  A    between atoms: C_8  and  N_9 
REMARK    5  A    between atoms: C_11  and  C_12 
REMARK    6  A    between atoms: C_12  and  N_13 
REMARK    7  A    between atoms: C_17  and  C_18 
ROOT
HETATM    1  C   UNL     1      39.923 -14.281   5.315  1.00  0.00     0.218 C 
ENDROOT
BRANCH   1   2
HETATM    2  C   UNL     1      39.655 -12.920   4.698  1.00  0.00     0.166 A 
HETATM    3  N   UNL     1      39.365 -11.899   5.509  1.00  0.00    -0.200 NA
HETATM    4  C   UNL     1      39.180 -10.738   4.906  1.00  0.00     0.219 A 
HETATM    5  N   UNL     1      39.312 -10.529   3.610  1.00  0.00    -0.031 NA
HETATM    6  C   UNL     1      39.608 -11.593   2.871  1.00  0.00     0.731 A 
HETATM    7  N   UNL     1      39.777 -12.815   3.373  1.00  0.00    -0.045 NA
BRANCH   4   8
HETATM    8  N   UNL     1      38.870  -9.653   5.699  1.00  0.00    -0.270 NA
HETATM    9  H   UNL     1      38.397  -9.960   6.537  1.00  0.00     0.127 HD
HETATM   10  H   UNL     1      38.423  -8.930   5.153  1.00  0.00     0.127 HD
ENDBRANCH   4   8
BRANCH   6  11
HETATM   11  N   UNL     1      39.726 -11.490   1.486  1.00  0.00    -0.188 N 
HETATM   12  H   UNL     1      39.133 -10.750   1.142  1.00  0.00     0.184 HD
BRANCH  11  13
HETATM   13  C   UNL     1      40.237 -12.369   0.517  1.00  0.00     0.055 A 
HETATM   14  C   UNL     1      39.360 -13.162  -0.260  1.00  0.00    -0.031 A 
HETATM   15  C   UNL     1      39.885 -14.033  -1.236  1.00  0.00     0.009 A 
HETATM   16  C   UNL     1      41.255 -14.107  -1.469  1.00  0.00     0.001 A 
HETATM   17  C   UNL     1      42.120 -13.307  -0.734  1.00  0.00     0.002 A 
HETATM   18  C   UNL     1      41.612 -12.442   0.239  1.00  0.00     0.030 A 
BRANCH  14  19
HETATM   19  C   UNL     1      37.857 -13.116  -0.093  1.00  0.00     0.036 C 
HETATM   20  C   UNL     1      37.355 -14.210   0.837  1.00  0.00     0.010 C 
ENDBRANCH  14  19
ENDBRANCH  11  13
ENDBRANCH   6  11
ENDBRANCH   1   2
BRANCH   1  21
HETATM   21  N   UNL     1      41.181 -14.860   4.897  1.00  0.00    -0.260 N 
HETATM   22  C   UNL     1      42.394 -14.407   5.295  1.00  0.00     0.326 A 
HETATM   23  O   UNL     1      42.625 -13.552   6.132  1.00  0.00    -0.247 OA
HETATM   24  N   UNL     1      43.364 -15.074   4.592  1.00  0.00    -0.321 N 
HETATM   25  C   UNL     1      42.821 -15.961   3.583  1.00  0.00     0.140 A 
HETATM   26  H   UNL     1      44.342 -14.873   4.741  1.00  0.00     0.165 HD
HETATM   27  C   UNL     1      43.096 -15.414   2.177  1.00  0.00     0.054 C 
HETATM   28  C   UNL     1      41.314 -15.762   3.879  1.00  0.00     0.261 A 
HETATM   29  O   UNL     1      40.387 -16.288   3.273  1.00  0.00    -0.270 OA
BRANCH  25  30
HETATM   30  C   UNL     1      43.365 -17.372   3.770  1.00  0.00    -0.020 A 
HETATM   31  C   UNL     1      43.247 -18.307   2.720  1.00  0.00     0.022 A 
HETATM   32  C   UNL     1      43.722 -19.627   2.838  1.00  0.00    -0.025 A 
HETATM   33  C   UNL     1      44.339 -20.031   4.039  1.00  0.00    -0.026 A 
HETATM   34  C   UNL     1      43.596 -20.550   1.787  1.00  0.00     0.012 A 
HETATM   35  C   UNL     1      44.459 -19.108   5.087  1.00  0.00     0.013 A 
HETATM   36  C   UNL     1      44.813 -21.348   4.162  1.00  0.00     0.012 A 
HETATM   37  C   UNL     1      43.980 -17.800   4.954  1.00  0.00     0.011 A 
HETATM   38  C   UNL     1      44.680 -22.254   3.109  1.00  0.00     0.001 A 
HETATM   39  C   UNL     1      44.072 -21.856   1.922  1.00  0.00     0.001 A 
ENDBRANCH  25  30
ENDBRANCH   1  21
TORSDOF 7
ENDMDL
MODEL 10
REMARK VINA RESULT:      -9.7      2.083      3.856
REMARK  7 active torsions:
REMARK  status: ('A' for Active; 'I' for Inactive)
REMARK    1  A    between atoms: C_2  and  C_3 
REMARK    2  A    between atoms: C_4  and  N_5 
REMARK    3  A    between atoms: N_5  and  C_6 
REMARK    4  A    between atoms: C_8  and  N_9 
REMARK    5  A    between atoms: C_11  and  C_12 
REMARK    6  A    between atoms: C_12  and  N_13 
REMARK    7  A    between atoms: C_17  and  C_18 
ROOT
HETATM    1  C   UNL     1      44.767 -13.245   6.921  1.00  0.00     0.218 C 
ENDROOT
BRANCH   1   2
HETATM    2  C   UNL     1      44.255 -12.668   8.229  1.00  0.00     0.166 A 
HETATM    3  N   UNL     1      44.627 -13.251   9.372  1.00  0.00    -0.200 NA
HETATM    4  C   UNL     1      44.174 -12.674  10.470  1.00  0.00     0.219 A 
HETATM    5  N   UNL     1      43.451 -11.570  10.502  1.00  0.00    -0.031 NA
HETATM    6  C   UNL     1      43.127 -11.046   9.325  1.00  0.00     0.731 A 
HETATM    7  N   UNL     1      43.499 -11.570   8.158  1.00  0.00    -0.045 NA
BRANCH   4   8
HETATM    8  N   UNL     1      44.523 -13.243  11.677  1.00  0.00    -0.270 NA
HETATM    9  H   UNL     1      43.732 -13.734  12.070  1.00  0.00     0.127 HD
HETATM   10  H   UNL     1      44.989 -12.568  12.267  1.00  0.00     0.127 HD
ENDBRANCH   4   8
BRANCH   6  11
HETATM   11  N   UNL     1      42.329  -9.906   9.246  1.00  0.00    -0.188 N 
HETATM   12  H   UNL     1      42.897  -9.100   9.033  1.00  0.00     0.184 HD
BRANCH  11  13
HETATM   13  C   UNL     1      41.023  -9.639   9.690  1.00  0.00     0.055 A 
HETATM   14  C   UNL     1      40.804  -8.748  10.767  1.00  0.00    -0.031 A 
HETATM   15  C   UNL     1      39.489  -8.480  11.196  1.00  0.00     0.009 A 
HETATM   16  C   UNL     1      38.395  -9.059  10.559  1.00  0.00     0.001 A 
HETATM   17  C   UNL     1      38.600  -9.908   9.480  1.00  0.00     0.002 A 
HETATM   18  C   UNL     1      39.900 -10.184   9.048  1.00  0.00     0.030 A 
BRANCH  14  19
HETATM   19  C   UNL     1      41.936  -8.052  11.491  1.00  0.00     0.036 C 
HETATM   20  C   UNL     1      42.444  -8.867  12.670  1.00  0.00     0.010 C 
ENDBRANCH  14  19
ENDBRANCH  11  13
ENDBRANCH   6  11
ENDBRANCH   1   2
BRANCH   1  21
HETATM   21  N   UNL     1      43.887 -14.243   6.354  1.00  0.00    -0.260 N 
HETATM   22  C   UNL     1      42.701 -13.961   5.765  1.00  0.00     0.326 A 
HETATM   23  O   UNL     1      42.245 -12.859   5.512  1.00  0.00    -0.247 OA
HETATM   24  N   UNL     1      42.058 -15.140   5.485  1.00  0.00    -0.321 N 
HETATM   25  C   UNL     1      42.766 -16.301   5.985  1.00  0.00     0.140 A 
HETATM   26  H   UNL     1      41.148 -15.142   5.047  1.00  0.00     0.165 HD
HETATM   27  C   UNL     1      42.014 -16.927   7.165  1.00  0.00     0.054 C 
HETATM   28  C   UNL     1      44.020 -15.589   6.550  1.00  0.00     0.261 A 
HETATM   29  O   UNL     1      44.958 -16.132   7.122  1.00  0.00    -0.270 OA
BRANCH  25  30
HETATM   30  C   UNL     1      43.007 -17.299   4.859  1.00  0.00    -0.020 A 
HETATM   31  C   UNL     1      43.605 -18.544   5.150  1.00  0.00     0.022 A 
HETATM   32  C   UNL     1      43.860 -19.502   4.150  1.00  0.00    -0.025 A 
HETATM   33  C   UNL     1      43.508 -19.214   2.816  1.00  0.00    -0.026 A 
HETATM   34  C   UNL     1      44.458 -20.736   4.451  1.00  0.00     0.012 A 
HETATM   35  C   UNL     1      42.914 -17.980   2.519  1.00  0.00     0.013 A 
HETATM   36  C   UNL     1      43.763 -20.167   1.815  1.00  0.00     0.012 A 
HETATM   37  C   UNL     1      42.668 -17.038   3.524  1.00  0.00     0.011 A 
HETATM   38  C   UNL     1      44.358 -21.389   2.130  1.00  0.00     0.001 A 
HETATM   39  C   UNL     1      44.706 -21.674   3.446  1.00  0.00     0.001 A 
ENDBRANCH  25  30
ENDBRANCH   1  21
TORSDOF 7
ENDMDL
