MODEL 1
REMARK VINA RESULT:      -7.3      0.000      0.000
REMARK  5 active torsions:
REMARK  status: ('A' for Active; 'I' for Inactive)
REMARK    1  A    between atoms: C_2  and  C_3 
REMARK    2  A    between atoms: C_3  and  O_4 
REMARK    3  A    between atoms: C_3  and  C_5 
REMARK    4  A    between atoms: N_8  and  C_10 
REMARK    5  A    between atoms: C_10  and  C_11 
ROOT
HETATM    1  C   UNL     1      41.580 -16.778   2.973  1.00  0.00     0.022 C 
HETATM    2  C   UNL     1      41.036 -17.496   1.731  1.00  0.00     0.035 C 
HETATM    3  C   UNL     1      41.436 -16.793   0.442  1.00  0.00     0.235 C 
HETATM    4  N   UNL     1      40.983 -15.354   0.474  1.00  0.00    -0.066 N 
HETATM    5  H   UNL     1      39.951 -15.378   0.414  1.00  0.00     0.280 HD
HETATM    6  C   UNL     1      41.393 -14.581   1.696  1.00  0.00     0.235 C 
HETATM    7  C   UNL     1      41.030 -15.340   2.964  1.00  0.00     0.035 C 
ENDROOT
BRANCH   1   8
HETATM    8  C   UNL     1      43.130 -16.812   3.071  1.00  0.00     0.155 C 
BRANCH   8   9
HETATM    9  C   UNL     1      43.688 -18.128   3.569  1.00  0.00    -0.029 A 
HETATM   10  C   UNL     1      43.807 -18.394   4.943  1.00  0.00     0.011 A 
HETATM   11  C   UNL     1      44.290 -19.626   5.389  1.00  0.00     0.024 A 
HETATM   12  C   UNL     1      44.660 -20.603   4.467  1.00  0.00     0.034 A 
HETATM   13  C   UNL     1      44.561 -20.351   3.100  1.00  0.00     0.024 A 
HETATM   14 CL   UNL     1      45.239 -22.125   5.014  1.00  0.00    -0.084 Cl
HETATM   15  C   UNL     1      44.082 -19.118   2.653  1.00  0.00     0.011 A 
ENDBRANCH   8   9
BRANCH   8  16
HETATM   16  O   UNL     1      43.555 -15.743   3.907  1.00  0.00    -0.391 OA
HETATM   17  H   UNL     1      44.185 -15.190   3.407  1.00  0.00     0.210 HD
ENDBRANCH   8  16
ENDBRANCH   1   8
BRANCH   4  18
HETATM   18  C   UNL     1      41.368 -14.614  -0.803  1.00  0.00     0.295 C 
BRANCH  18  19
HETATM   19  C   UNL     1      40.436 -14.912  -1.932  1.00  0.00     0.081 A 
HETATM   20  N   UNL     1      39.193 -14.404  -1.914  1.00  0.00    -0.178 NA
HETATM   21  N   UNL     1      38.637 -14.874  -3.052  1.00  0.00    -0.289 N 
HETATM   22  H   UNL     1      37.685 -14.602  -3.286  1.00  0.00     0.188 HD
HETATM   23  C   UNL     1      39.468 -15.701  -3.749  1.00  0.00     0.111 A 
HETATM   24  C   UNL     1      40.651 -15.743  -3.053  1.00  0.00     0.049 A 
ENDBRANCH  18  19
ENDBRANCH   4  18
TORSDOF 5
ENDMDL
MODEL 2
REMARK VINA RESULT:      -7.2      5.280      7.730
REMARK  5 active torsions:
REMARK  status: ('A' for Active; 'I' for Inactive)
REMARK    1  A    between atoms: C_2  and  C_3 
REMARK    2  A    between atoms: C_3  and  O_4 
REMARK    3  A    between atoms: C_3  and  C_5 
REMARK    4  A    between atoms: N_8  and  C_10 
REMARK    5  A    between atoms: C_10  and  C_11 
ROOT
HETATM    1  C   UNL     1      43.044 -17.083   5.859  1.00  0.00     0.022 C 
HETATM    2  C   UNL     1      42.931 -15.744   5.117  1.00  0.00     0.035 C 
HETATM    3  C   UNL     1      43.977 -14.742   5.583  1.00  0.00     0.235 C 
HETATM    4  N   UNL     1      43.876 -14.542   7.074  1.00  0.00    -0.066 N 
HETATM    5  H   UNL     1      42.987 -14.039   7.235  1.00  0.00     0.280 HD
HETATM    6  C   UNL     1      43.891 -15.803   7.892  1.00  0.00     0.235 C 
HETATM    7  C   UNL     1      42.874 -16.803   7.363  1.00  0.00     0.035 C 
ENDROOT
BRANCH   1   8
HETATM    8  C   UNL     1      44.361 -17.846   5.550  1.00  0.00     0.155 C 
BRANCH   8   9
HETATM    9  C   UNL     1      44.229 -18.890   4.460  1.00  0.00    -0.029 A 
HETATM   10  C   UNL     1      43.578 -18.598   3.251  1.00  0.00     0.011 A 
HETATM   11  C   UNL     1      43.494 -19.559   2.240  1.00  0.00     0.024 A 
HETATM   12  C   UNL     1      44.058 -20.818   2.429  1.00  0.00     0.034 A 
HETATM   13  C   UNL     1      44.697 -21.128   3.628  1.00  0.00     0.024 A 
HETATM   14 CL   UNL     1      43.970 -21.995   1.180  1.00  0.00    -0.084 Cl
HETATM   15  C   UNL     1      44.777 -20.170   4.641  1.00  0.00     0.011 A 
ENDBRANCH   8   9
BRANCH   8  16
HETATM   16  O   UNL     1      44.835 -18.440   6.752  1.00  0.00    -0.391 OA
HETATM   17  H   UNL     1      45.518 -17.859   7.136  1.00  0.00     0.210 HD
ENDBRANCH   8  16
ENDBRANCH   1   8
BRANCH   4  18
HETATM   18  C   UNL     1      44.912 -13.543   7.580  1.00  0.00     0.295 C 
BRANCH  18  19
HETATM   19  C   UNL     1      44.379 -12.683   8.679  1.00  0.00     0.081 A 
HETATM   20  N   UNL     1      44.668 -12.987   9.955  1.00  0.00    -0.178 NA
HETATM   21  N   UNL     1      44.029 -12.032  10.665  1.00  0.00    -0.289 N 
HETATM   22  H   UNL     1      44.118 -12.027  11.679  1.00  0.00     0.188 HD
HETATM   23  C   UNL     1      43.307 -11.179   9.883  1.00  0.00     0.111 A 
HETATM   24  C   UNL     1      43.518 -11.568   8.583  1.00  0.00     0.049 A 
ENDBRANCH  18  19
ENDBRANCH   4  18
TORSDOF 5
ENDMDL
MODEL 3
REMARK VINA RESULT:      -7.1      4.715      5.816
REMARK  5 active torsions:
REMARK  status: ('A' for Active; 'I' for Inactive)
REMARK    1  A    between atoms: C_2  and  C_3 
REMARK    2  A    between atoms: C_3  and  O_4 
REMARK    3  A    between atoms: C_3  and  C_5 
REMARK    4  A    between atoms: N_8  and  C_10 
REMARK    5  A    between atoms: C_10  and  C_11 
ROOT
HETATM    1  C   UNL     1      43.265 -17.737   6.553  1.00  0.00     0.022 C 
HETATM    2  C   UNL     1      41.986 -17.384   5.781  1.00  0.00     0.035 C 
HETATM    3  C   UNL     1      42.056 -15.996   5.163  1.00  0.00     0.235 C 
HETATM    4  N   UNL     1      42.343 -14.968   6.227  1.00  0.00    -0.066 N 
HETATM    5  H   UNL     1      41.492 -14.917   6.812  1.00  0.00     0.280 HD
HETATM    6  C   UNL     1      43.531 -15.263   7.100  1.00  0.00     0.235 C 
HETATM    7  C   UNL     1      43.456 -16.678   7.655  1.00  0.00     0.035 C 
ENDROOT
BRANCH   1   8
HETATM    8  C   UNL     1      44.516 -17.868   5.642  1.00  0.00     0.155 C 
BRANCH   8   9
HETATM    9  C   UNL     1      44.389 -18.930   4.569  1.00  0.00    -0.029 A 
HETATM   10  C   UNL     1      43.949 -18.606   3.276  1.00  0.00     0.011 A 
HETATM   11  C   UNL     1      43.872 -19.589   2.286  1.00  0.00     0.024 A 
HETATM   12  C   UNL     1      44.230 -20.902   2.581  1.00  0.00     0.034 A 
HETATM   13  C   UNL     1      44.656 -21.243   3.862  1.00  0.00     0.024 A 
HETATM   14 CL   UNL     1      44.150 -22.109   1.359  1.00  0.00    -0.084 Cl
HETATM   15  C   UNL     1      44.730 -20.263   4.854  1.00  0.00     0.011 A 
ENDBRANCH   8   9
BRANCH   8  16
HETATM   16  O   UNL     1      45.650 -18.121   6.461  1.00  0.00    -0.391 OA
HETATM   17  H   UNL     1      45.429 -18.840   7.084  1.00  0.00     0.210 HD
ENDBRANCH   8  16
ENDBRANCH   1   8
BRANCH   4  18
HETATM   18  C   UNL     1      42.423 -13.560   5.644  1.00  0.00     0.295 C 
BRANCH  18  19
HETATM   19  C   UNL     1      41.180 -12.771   5.901  1.00  0.00     0.081 A 
HETATM   20  N   UNL     1      40.029 -13.141   5.315  1.00  0.00    -0.178 NA
HETATM   21  N   UNL     1      39.138 -12.222   5.747  1.00  0.00    -0.289 N 
HETATM   22  H   UNL     1      38.166 -12.302   5.459  1.00  0.00     0.188 HD
HETATM   23  C   UNL     1      39.703 -11.261   6.533  1.00  0.00     0.111 A 
HETATM   24  C   UNL     1      41.030 -11.591   6.662  1.00  0.00     0.049 A 
ENDBRANCH  18  19
ENDBRANCH   4  18
TORSDOF 5
ENDMDL
MODEL 4
REMARK VINA RESULT:      -6.9      4.315      7.735
REMARK  5 active torsions:
REMARK  status: ('A' for Active; 'I' for Inactive)
REMARK    1  A    between atoms: C_2  and  C_3 
REMARK    2  A    between atoms: C_3  and  O_4 
REMARK    3  A    between atoms: C_3  and  C_5 
REMARK    4  A    between atoms: N_8  and  C_10 
REMARK    5  A    between atoms: C_10  and  C_11 
ROOT
HETATM    1  C   UNL     1      42.217 -16.469   2.867  1.00  0.00     0.022 C 
HETATM    2  C   UNL     1      43.582 -16.392   2.169  1.00  0.00     0.035 C 
HETATM    3  C   UNL     1      44.005 -17.735   1.592  1.00  0.00     0.235 C 
HETATM    4  N   UNL     1      44.012 -18.786   2.674  1.00  0.00    -0.066 N 
HETATM    5  H   UNL     1      44.799 -18.545   3.300  1.00  0.00     0.280 HD
HETATM    6  C   UNL     1      42.746 -18.886   3.478  1.00  0.00     0.235 C 
HETATM    7  C   UNL     1      42.322 -17.517   3.991  1.00  0.00     0.035 C 
ENDROOT
BRANCH   1   8
HETATM    8  C   UNL     1      41.046 -16.769   1.893  1.00  0.00     0.155 C 
BRANCH   8   9
HETATM    9  C   UNL     1      40.856 -15.722   0.815  1.00  0.00    -0.029 A 
HETATM   10  C   UNL     1      40.290 -14.472   1.109  1.00  0.00     0.011 A 
HETATM   11  C   UNL     1      40.154 -13.502   0.112  1.00  0.00     0.024 A 
HETATM   12  C   UNL     1      40.580 -13.775  -1.186  1.00  0.00     0.034 A 
HETATM   13  C   UNL     1      41.133 -15.015  -1.497  1.00  0.00     0.024 A 
HETATM   14 CL   UNL     1      40.428 -12.577  -2.408  1.00  0.00    -0.084 Cl
HETATM   15  C   UNL     1      41.265 -15.986  -0.503  1.00  0.00     0.011 A 
ENDBRANCH   8   9
BRANCH   8  16
HETATM   16  O   UNL     1      39.853 -16.924   2.652  1.00  0.00    -0.391 OA
HETATM   17  H   UNL     1      39.117 -17.110   2.038  1.00  0.00     0.210 HD
ENDBRANCH   8  16
ENDBRANCH   1   8
BRANCH   4  18
HETATM   18  C   UNL     1      44.431 -20.149   2.132  1.00  0.00     0.295 C 
BRANCH  18  19
HETATM   19  C   UNL     1      44.664 -21.143   3.222  1.00  0.00     0.081 A 
HETATM   20  N   UNL     1      44.415 -22.444   2.996  1.00  0.00    -0.178 NA
HETATM   21  N   UNL     1      44.716 -23.038   4.171  1.00  0.00    -0.289 N 
HETATM   22  H   UNL     1      44.634 -24.049   4.249  1.00  0.00     0.188 HD
HETATM   23  C   UNL     1      45.087 -22.150   5.138  1.00  0.00     0.111 A 
HETATM   24  C   UNL     1      45.074 -20.908   4.553  1.00  0.00     0.049 A 
ENDBRANCH  18  19
ENDBRANCH   4  18
TORSDOF 5
ENDMDL
MODEL 5
REMARK VINA RESULT:      -6.9      2.128      2.722
REMARK  5 active torsions:
REMARK  status: ('A' for Active; 'I' for Inactive)
REMARK    1  A    between atoms: C_2  and  C_3 
REMARK    2  A    between atoms: C_3  and  O_4 
REMARK    3  A    between atoms: C_3  and  C_5 
REMARK    4  A    between atoms: N_8  and  C_10 
REMARK    5  A    between atoms: C_10  and  C_11 
ROOT
HETATM    1  C   UNL     1      41.845 -16.664   5.425  1.00  0.00     0.022 C 
HETATM    2  C   UNL     1      40.977 -17.361   4.368  1.00  0.00     0.035 C 
HETATM    3  C   UNL     1      41.163 -16.755   2.985  1.00  0.00     0.235 C 
HETATM    4  N   UNL     1      40.878 -15.275   3.025  1.00  0.00    -0.066 N 
HETATM    5  H   UNL     1      39.860 -15.185   3.182  1.00  0.00     0.280 HD
HETATM    6  C   UNL     1      41.616 -14.508   4.086  1.00  0.00     0.235 C 
HETATM    7  C   UNL     1      41.455 -15.174   5.445  1.00  0.00     0.035 C 
ENDROOT
BRANCH   1   8
HETATM    8  C   UNL     1      43.368 -16.868   5.201  1.00  0.00     0.155 C 
BRANCH   8   9
HETATM    9  C   UNL     1      43.795 -18.320   5.154  1.00  0.00    -0.029 A 
HETATM   10  C   UNL     1      44.296 -18.892   3.973  1.00  0.00     0.011 A 
HETATM   11  C   UNL     1      44.720 -20.223   3.953  1.00  0.00     0.024 A 
HETATM   12  C   UNL     1      44.646 -20.993   5.111  1.00  0.00     0.034 A 
HETATM   13  C   UNL     1      44.140 -20.446   6.287  1.00  0.00     0.024 A 
HETATM   14 CL   UNL     1      45.182 -22.626   5.091  1.00  0.00    -0.084 Cl
HETATM   15  C   UNL     1      43.711 -19.117   6.308  1.00  0.00     0.011 A 
ENDBRANCH   8   9
BRANCH   8  16
HETATM   16  O   UNL     1      44.074 -16.175   6.222  1.00  0.00    -0.391 OA
HETATM   17  H   UNL     1      43.744 -16.478   7.089  1.00  0.00     0.210 HD
ENDBRANCH   8  16
ENDBRANCH   1   8
BRANCH   4  18
HETATM   18  C   UNL     1      41.055 -14.630   1.653  1.00  0.00     0.295 C 
BRANCH  18  19
HETATM   19  C   UNL     1      39.752 -14.423   0.953  1.00  0.00     0.081 A 
HETATM   20  N   UNL     1      39.724 -14.363  -0.388  1.00  0.00    -0.178 NA
HETATM   21  N   UNL     1      38.419 -14.160  -0.674  1.00  0.00    -0.289 N 
HETATM   22  H   UNL     1      38.129 -14.105  -1.648  1.00  0.00     0.188 HD
HETATM   23  C   UNL     1      37.643 -14.033   0.441  1.00  0.00     0.111 A 
HETATM   24  C   UNL     1      38.476 -14.207   1.518  1.00  0.00     0.049 A 
ENDBRANCH  18  19
ENDBRANCH   4  18
TORSDOF 5
ENDMDL
MODEL 6
REMARK VINA RESULT:      -6.7      1.860      2.707
REMARK  5 active torsions:
REMARK  status: ('A' for Active; 'I' for Inactive)
REMARK    1  A    between atoms: C_2  and  C_3 
REMARK    2  A    between atoms: C_3  and  O_4 
REMARK    3  A    between atoms: C_3  and  C_5 
REMARK    4  A    between atoms: N_8  and  C_10 
REMARK    5  A    between atoms: C_10  and  C_11 
ROOT
HETATM    1  C   UNL     1      41.717 -17.335   2.711  1.00  0.00     0.022 C 
HETATM    2  C   UNL     1      41.325 -17.673   1.266  1.00  0.00     0.035 C 
HETATM    3  C   UNL     1      41.780 -16.603   0.285  1.00  0.00     0.235 C 
HETATM    4  N   UNL     1      41.231 -15.259   0.691  1.00  0.00    -0.066 N 
HETATM    5  H   UNL     1      40.211 -15.306   0.525  1.00  0.00     0.280 HD
HETATM    6  C   UNL     1      41.486 -14.867   2.120  1.00  0.00     0.235 C 
HETATM    7  C   UNL     1      41.072 -15.983   3.069  1.00  0.00     0.035 C 
ENDROOT
BRANCH   1   8
HETATM    8  C   UNL     1      43.252 -17.334   2.947  1.00  0.00     0.155 C 
BRANCH   8   9
HETATM    9  C   UNL     1      43.792 -18.636   3.500  1.00  0.00    -0.029 A 
HETATM   10  C   UNL     1      43.944 -18.830   4.882  1.00  0.00     0.011 A 
HETATM   11  C   UNL     1      44.410 -20.049   5.381  1.00  0.00     0.024 A 
HETATM   12  C   UNL     1      44.730 -21.083   4.503  1.00  0.00     0.034 A 
HETATM   13  C   UNL     1      44.597 -20.903   3.128  1.00  0.00     0.024 A 
HETATM   14 CL   UNL     1      45.288 -22.588   5.116  1.00  0.00    -0.084 Cl
HETATM   15  C   UNL     1      44.135 -19.683   2.628  1.00  0.00     0.011 A 
ENDBRANCH   8   9
BRANCH   8  16
HETATM   16  O   UNL     1      43.577 -16.253   3.811  1.00  0.00    -0.391 OA
HETATM   17  H   UNL     1      43.277 -16.475   4.712  1.00  0.00     0.210 HD
ENDBRANCH   8  16
ENDBRANCH   1   8
BRANCH   4  18
HETATM   18  C   UNL     1      41.668 -14.157  -0.270  1.00  0.00     0.295 C 
BRANCH  18  19
HETATM   19  C   UNL     1      41.406 -12.793   0.278  1.00  0.00     0.081 A 
HETATM   20  N   UNL     1      42.439 -12.026   0.664  1.00  0.00    -0.178 NA
HETATM   21  N   UNL     1      41.852 -10.894   1.108  1.00  0.00    -0.289 N 
HETATM   22  H   UNL     1      42.437 -10.129   1.436  1.00  0.00     0.188 HD
HETATM   23  C   UNL     1      40.489 -10.949   1.067  1.00  0.00     0.111 A 
HETATM   24  C   UNL     1      40.164 -12.168   0.525  1.00  0.00     0.049 A 
ENDBRANCH  18  19
ENDBRANCH   4  18
TORSDOF 5
ENDMDL
MODEL 7
REMARK VINA RESULT:      -6.6      1.182      1.725
REMARK  5 active torsions:
REMARK  status: ('A' for Active; 'I' for Inactive)
REMARK    1  A    between atoms: C_2  and  C_3 
REMARK    2  A    between atoms: C_3  and  O_4 
REMARK    3  A    between atoms: C_3  and  C_5 
REMARK    4  A    between atoms: N_8  and  C_10 
REMARK    5  A    between atoms: C_10  and  C_11 
ROOT
HETATM    1  C   UNL     1      41.477 -16.323   2.907  1.00  0.00     0.022 C 
HETATM    2  C   UNL     1      40.770 -17.317   1.976  1.00  0.00     0.035 C 
HETATM    3  C   UNL     1      41.080 -17.049   0.511  1.00  0.00     0.235 C 
HETATM    4  N   UNL     1      40.718 -15.629   0.155  1.00  0.00    -0.066 N 
HETATM    5  H   UNL     1      39.686 -15.582   0.185  1.00  0.00     0.280 HD
HETATM    6  C   UNL     1      41.293 -14.576   1.061  1.00  0.00     0.235 C 
HETATM    7  C   UNL     1      41.013 -14.906   2.520  1.00  0.00     0.035 C 
ENDROOT
BRANCH   1   8
HETATM    8  C   UNL     1      43.024 -16.458   2.889  1.00  0.00     0.155 C 
BRANCH   8   9
HETATM    9  C   UNL     1      43.531 -17.802   3.370  1.00  0.00    -0.029 A 
HETATM   10  C   UNL     1      44.004 -18.765   2.465  1.00  0.00     0.011 A 
HETATM   11  C   UNL     1      44.503 -19.987   2.924  1.00  0.00     0.024 A 
HETATM   12  C   UNL     1      44.530 -20.256   4.291  1.00  0.00     0.034 A 
HETATM   13  C   UNL     1      44.052 -19.318   5.201  1.00  0.00     0.024 A 
HETATM   14 CL   UNL     1      45.158 -21.752   4.858  1.00  0.00    -0.084 Cl
HETATM   15  C   UNL     1      43.550 -18.098   4.743  1.00  0.00     0.011 A 
ENDBRANCH   8   9
BRANCH   8  16
HETATM   16  O   UNL     1      43.581 -15.408   3.670  1.00  0.00    -0.391 OA
HETATM   17  H   UNL     1      44.029 -14.781   3.071  1.00  0.00     0.210 HD
ENDBRANCH   8  16
ENDBRANCH   1   8
BRANCH   4  18
HETATM   18  C   UNL     1      41.017 -15.321  -1.309  1.00  0.00     0.295 C 
BRANCH  18  19
HETATM   19  C   UNL     1      40.271 -14.123  -1.798  1.00  0.00     0.081 A 
HETATM   20  N   UNL     1      40.953 -13.058  -2.250  1.00  0.00    -0.178 NA
HETATM   21  N   UNL     1      39.987 -12.177  -2.590  1.00  0.00    -0.289 N 
HETATM   22  H   UNL     1      40.254 -11.283  -2.994  1.00  0.00     0.188 HD
HETATM   23  C   UNL     1      38.731 -12.632  -2.314  1.00  0.00     0.111 A 
HETATM   24  C   UNL     1      38.876 -13.899  -1.805  1.00  0.00     0.049 A 
ENDBRANCH  18  19
ENDBRANCH   4  18
TORSDOF 5
ENDMDL
MODEL 8
REMARK VINA RESULT:      -6.5      3.140      4.119
REMARK  5 active torsions:
REMARK  status: ('A' for Active; 'I' for Inactive)
REMARK    1  A    between atoms: C_2  and  C_3 
REMARK    2  A    between atoms: C_3  and  O_4 
REMARK    3  A    between atoms: C_3  and  C_5 
REMARK    4  A    between atoms: N_8  and  C_10 
REMARK    5  A    between atoms: C_10  and  C_11 
ROOT
HETATM    1  C   UNL     1      43.287 -15.888   4.081  1.00  0.00     0.022 C 
HETATM    2  C   UNL     1      41.953 -15.823   4.837  1.00  0.00     0.035 C 
HETATM    3  C   UNL     1      40.802 -15.412   3.932  1.00  0.00     0.235 C 
HETATM    4  N   UNL     1      41.110 -14.093   3.268  1.00  0.00    -0.066 N 
HETATM    5  H   UNL     1      41.079 -13.382   4.018  1.00  0.00     0.280 HD
HETATM    6  C   UNL     1      42.438 -14.023   2.567  1.00  0.00     0.235 C 
HETATM    7  C   UNL     1      43.558 -14.495   3.484  1.00  0.00     0.035 C 
ENDROOT
BRANCH   1   8
HETATM    8  C   UNL     1      43.328 -17.006   3.004  1.00  0.00     0.155 C 
BRANCH   8   9
HETATM    9  C   UNL     1      43.790 -18.350   3.527  1.00  0.00    -0.029 A 
HETATM   10  C   UNL     1      44.056 -19.416   2.654  1.00  0.00     0.011 A 
HETATM   11  C   UNL     1      44.516 -20.640   3.146  1.00  0.00     0.024 A 
HETATM   12  C   UNL     1      44.713 -20.809   4.515  1.00  0.00     0.034 A 
HETATM   13  C   UNL     1      44.441 -19.766   5.397  1.00  0.00     0.024 A 
HETATM   14 CL   UNL     1      45.294 -22.308   5.120  1.00  0.00    -0.084 Cl
HETATM   15  C   UNL     1      43.977 -18.543   4.906  1.00  0.00     0.011 A 
ENDBRANCH   8   9
BRANCH   8  16
HETATM   16  O   UNL     1      44.159 -16.576   1.934  1.00  0.00    -0.391 OA
HETATM   17  H   UNL     1      44.927 -16.104   2.308  1.00  0.00     0.210 HD
ENDBRANCH   8  16
ENDBRANCH   1   8
BRANCH   4  18
HETATM   18  C   UNL     1      39.976 -13.648   2.348  1.00  0.00     0.295 C 
BRANCH  18  19
HETATM   19  C   UNL     1      39.205 -12.501   2.916  1.00  0.00     0.081 A 
HETATM   20  N   UNL     1      38.239 -11.926   2.182  1.00  0.00    -0.178 NA
HETATM   21  N   UNL     1      37.771 -10.941   2.980  1.00  0.00    -0.289 N 
HETATM   22  H   UNL     1      36.999 -10.365   2.654  1.00  0.00     0.188 HD
HETATM   23  C   UNL     1      38.449 -10.845   4.160  1.00  0.00     0.111 A 
HETATM   24  C   UNL     1      39.384 -11.851   4.157  1.00  0.00     0.049 A 
ENDBRANCH  18  19
ENDBRANCH   4  18
TORSDOF 5
ENDMDL
MODEL 9
REMARK VINA RESULT:      -6.5      1.813      2.386
REMARK  5 active torsions:
REMARK  status: ('A' for Active; 'I' for Inactive)
REMARK    1  A    between atoms: C_2  and  C_3 
REMARK    2  A    between atoms: C_3  and  O_4 
REMARK    3  A    between atoms: C_3  and  C_5 
REMARK    4  A    between atoms: N_8  and  C_10 
REMARK    5  A    between atoms: C_10  and  C_11 
ROOT
HETATM    1  C   UNL     1      40.575 -16.283   2.805  1.00  0.00     0.022 C 
HETATM    2  C   UNL     1      40.839 -17.289   1.676  1.00  0.00     0.035 C 
HETATM    3  C   UNL     1      41.425 -16.620   0.441  1.00  0.00     0.235 C 
HETATM    4  N   UNL     1      40.520 -15.510  -0.027  1.00  0.00    -0.066 N 
HETATM    5  H   UNL     1      39.670 -15.970  -0.396  1.00  0.00     0.280 HD
HETATM    6  C   UNL     1      40.128 -14.513   1.028  1.00  0.00     0.235 C 
HETATM    7  C   UNL     1      39.600 -15.219   2.269  1.00  0.00     0.035 C 
ENDROOT
BRANCH   1   8
HETATM    8  C   UNL     1      41.871 -15.654   3.382  1.00  0.00     0.155 C 
BRANCH   8   9
HETATM    9  C   UNL     1      42.463 -16.419   4.548  1.00  0.00    -0.029 A 
HETATM   10  C   UNL     1      43.497 -17.349   4.356  1.00  0.00     0.011 A 
HETATM   11  C   UNL     1      44.059 -18.022   5.444  1.00  0.00     0.024 A 
HETATM   12  C   UNL     1      43.590 -17.772   6.732  1.00  0.00     0.034 A 
HETATM   13  C   UNL     1      42.556 -16.862   6.939  1.00  0.00     0.024 A 
HETATM   14 CL   UNL     1      44.291 -18.587   8.073  1.00  0.00    -0.084 Cl
HETATM   15  C   UNL     1      41.991 -16.193   5.852  1.00  0.00     0.011 A 
ENDBRANCH   8   9
BRANCH   8  16
HETATM   16  O   UNL     1      41.596 -14.310   3.758  1.00  0.00    -0.391 OA
HETATM   17  H   UNL     1      41.648 -14.243   4.730  1.00  0.00     0.210 HD
ENDBRANCH   8  16
ENDBRANCH   1   8
BRANCH   4  18
HETATM   18  C   UNL     1      41.076 -14.813  -1.266  1.00  0.00     0.295 C 
BRANCH  18  19
HETATM   19  C   UNL     1      40.202 -15.004  -2.462  1.00  0.00     0.081 A 
HETATM   20  N   UNL     1      39.366 -14.020  -2.833  1.00  0.00    -0.178 NA
HETATM   21  N   UNL     1      38.737 -14.525  -3.917  1.00  0.00    -0.289 N 
HETATM   22  H   UNL     1      38.058 -13.948  -4.408  1.00  0.00     0.188 HD
HETATM   23  C   UNL     1      39.109 -15.807  -4.200  1.00  0.00     0.111 A 
HETATM   24  C   UNL     1      40.068 -16.148  -3.279  1.00  0.00     0.049 A 
ENDBRANCH  18  19
ENDBRANCH   4  18
TORSDOF 5
ENDMDL
MODEL 10
REMARK VINA RESULT:      -6.4      3.775      4.512
REMARK  5 active torsions:
REMARK  status: ('A' for Active; 'I' for Inactive)
REMARK    1  A    between atoms: C_2  and  C_3 
REMARK    2  A    between atoms: C_3  and  O_4 
REMARK    3  A    between atoms: C_3  and  C_5 
REMARK    4  A    between atoms: N_8  and  C_10 
REMARK    5  A    between atoms: C_10  and  C_11 
ROOT
HETATM    1  C   UNL     1      41.381 -17.048   4.778  1.00  0.00     0.022 C 
HETATM    2  C   UNL     1      40.789 -16.484   3.479  1.00  0.00     0.035 C 
HETATM    3  C   UNL     1      41.241 -15.054   3.218  1.00  0.00     0.235 C 
HETATM    4  N   UNL     1      40.893 -14.177   4.394  1.00  0.00    -0.066 N 
HETATM    5  H   UNL     1      39.862 -14.097   4.395  1.00  0.00     0.280 HD
HETATM    6  C   UNL     1      41.354 -14.685   5.732  1.00  0.00     0.235 C 
HETATM    7  C   UNL     1      40.934 -16.134   5.934  1.00  0.00     0.035 C 
ENDROOT
BRANCH   1   8
HETATM    8  C   UNL     1      42.924 -17.217   4.727  1.00  0.00     0.155 C 
BRANCH   8   9
HETATM    9  C   UNL     1      43.385 -18.451   3.979  1.00  0.00    -0.029 A 
HETATM   10  C   UNL     1      44.244 -19.384   4.580  1.00  0.00     0.011 A 
HETATM   11  C   UNL     1      44.633 -20.536   3.892  1.00  0.00     0.024 A 
HETATM   12  C   UNL     1      44.168 -20.763   2.598  1.00  0.00     0.034 A 
HETATM   13  C   UNL     1      43.326 -19.841   1.983  1.00  0.00     0.024 A 
HETATM   14 CL   UNL     1      44.634 -22.188   1.757  1.00  0.00    -0.084 Cl
HETATM   15  C   UNL     1      42.940 -18.687   2.668  1.00  0.00     0.011 A 
ENDBRANCH   8   9
BRANCH   8  16
HETATM   16  O   UNL     1      43.424 -17.225   6.058  1.00  0.00    -0.391 OA
HETATM   17  H   UNL     1      42.700 -17.482   6.660  1.00  0.00     0.210 HD
ENDBRANCH   8  16
ENDBRANCH   1   8
BRANCH   4  18
HETATM   18  C   UNL     1      41.333 -12.733   4.170  1.00  0.00     0.295 C 
BRANCH  18  19
HETATM   19  C   UNL     1      40.172 -11.812   3.981  1.00  0.00     0.081 A 
HETATM   20  N   UNL     1      38.949 -12.200   4.378  1.00  0.00    -0.178 NA
HETATM   21  N   UNL     1      38.158 -11.154   4.051  1.00  0.00    -0.289 N 
HETATM   22  H   UNL     1      37.168 -11.193   4.280  1.00  0.00     0.188 HD
HETATM   23  C   UNL     1      38.833 -10.154   3.414  1.00  0.00     0.111 A 
HETATM   24  C   UNL     1      40.148 -10.544   3.359  1.00  0.00     0.049 A 
ENDBRANCH  18  19
ENDBRANCH   4  18
TORSDOF 5
ENDMDL
