MODEL 1
REMARK VINA RESULT:     -10.0      0.000      0.000
REMARK  4 active torsions:
REMARK  status: ('A' for Active; 'I' for Inactive)
REMARK    1  A    between atoms: C_7  and  C_8 
REMARK    2  A    between atoms: N_9  and  N_10 
REMARK       I    between atoms: N_10  and  C_11 
REMARK    3  A    between atoms: C_11  and  C_12 
REMARK    4  A    between atoms: C_16  and  C_17 
ROOT
HETATM    1  N   UNL     1      44.426 -14.580   7.481  1.00  0.00    -0.242 N 
HETATM    2  C   UNL     1      45.275 -13.487   7.418  1.00  0.00     0.289 C 
HETATM    3  O   UNL     1      46.192 -13.368   6.609  1.00  0.00    -0.264 OA
HETATM    4  H   UNL     1      43.688 -14.620   8.171  1.00  0.00     0.192 HD
ENDROOT
BRANCH   2   5
HETATM    5  C   UNL     1      45.010 -12.458   8.393  1.00  0.00     0.121 A 
HETATM    6  N   UNL     1      45.955 -11.520   8.701  1.00  0.00    -0.272 N 
HETATM    7  H   UNL     1      46.888 -11.448   8.304  1.00  0.00     0.189 HD
HETATM    8  N   UNL     1      45.567 -10.629   9.623  1.00  0.00    -0.174 NA
HETATM    9  C   UNL     1      44.313 -10.986   9.942  1.00  0.00     0.089 A 
HETATM   10  C   UNL     1      43.928 -12.134   9.187  1.00  0.00     0.071 A 
BRANCH   9  11
HETATM   11  C   UNL     1      43.532 -10.239  10.937  1.00  0.00    -0.003 A 
HETATM   12  C   UNL     1      42.372  -9.538  10.570  1.00  0.00     0.053 A 
HETATM   13  C   UNL     1      41.681  -8.854  11.553  1.00  0.00     0.106 A 
HETATM   14  C   UNL     1      42.095  -8.844  12.863  1.00  0.00     0.105 A 
HETATM   15  O   UNL     1      40.546  -8.130  11.361  1.00  0.00    -0.323 OA
HETATM   16  O   UNL     1      41.273  -8.113  13.662  1.00  0.00    -0.323 OA
HETATM   17  C   UNL     1      43.223  -9.517  13.268  1.00  0.00     0.040 A 
HETATM   18  C   UNL     1      40.292  -7.663  12.704  1.00  0.00     0.352 A 
HETATM   19  C   UNL     1      43.944 -10.218  12.293  1.00  0.00     0.017 A 
ENDBRANCH   9  11
ENDBRANCH   2   5
BRANCH   1  20
HETATM   20  N   UNL     1      44.582 -15.617   6.604  1.00  0.00    -0.183 NA
HETATM   21  C   UNL     1      43.566 -16.406   6.466  1.00  0.00     0.153 C 
BRANCH  21  22
HETATM   22  C   UNL     1      43.632 -17.537   5.558  1.00  0.00     0.018 A 
HETATM   23  C   UNL     1      43.731 -18.880   5.900  1.00  0.00     0.018 A 
HETATM   24  C   UNL     1      43.796 -19.552   7.227  1.00  0.00     0.069 C 
HETATM   25  N   UNL     1      43.766 -19.606   4.737  1.00  0.00    -0.358 N 
HETATM   26  H   UNL     1      43.836 -20.613   4.684  1.00  0.00     0.166 HD
HETATM   27  C   UNL     1      43.693 -18.777   3.644  1.00  0.00     0.043 A 
HETATM   28  C   UNL     1      43.608 -17.471   4.125  1.00  0.00     0.004 A 
HETATM   29  C   UNL     1      43.697 -19.088   2.279  1.00  0.00     0.030 A 
HETATM   30  C   UNL     1      43.522 -16.420   3.186  1.00  0.00     0.014 A 
HETATM   31  C   UNL     1      43.524 -16.712   1.816  1.00  0.00     0.001 A 
HETATM   32  C   UNL     1      43.610 -18.029   1.372  1.00  0.00     0.002 A 
ENDBRANCH  21  22
ENDBRANCH   1  20
TORSDOF 4
ENDMDL
MODEL 2
REMARK VINA RESULT:      -9.4      1.150      2.041
REMARK  4 active torsions:
REMARK  status: ('A' for Active; 'I' for Inactive)
REMARK    1  A    between atoms: C_7  and  C_8 
REMARK    2  A    between atoms: N_9  and  N_10 
REMARK       I    between atoms: N_10  and  C_11 
REMARK    3  A    between atoms: C_11  and  C_12 
REMARK    4  A    between atoms: C_16  and  C_17 
ROOT
HETATM    1  N   UNL     1      43.835 -14.198   7.128  1.00  0.00    -0.242 N 
HETATM    2  C   UNL     1      44.910 -13.361   7.385  1.00  0.00     0.289 C 
HETATM    3  O   UNL     1      45.943 -13.338   6.721  1.00  0.00    -0.264 OA
HETATM    4  H   UNL     1      43.010 -14.170   7.712  1.00  0.00     0.192 HD
ENDROOT
BRANCH   2   5
HETATM    5  C   UNL     1      44.738 -12.485   8.518  1.00  0.00     0.121 A 
HETATM    6  N   UNL     1      45.790 -12.172   9.331  1.00  0.00    -0.272 N 
HETATM    7  H   UNL     1      46.748 -12.498   9.234  1.00  0.00     0.189 HD
HETATM    8  N   UNL     1      45.480 -11.348  10.341  1.00  0.00    -0.174 NA
HETATM    9  C   UNL     1      44.169 -11.103  10.196  1.00  0.00     0.089 A 
HETATM   10  C   UNL     1      43.666 -11.802   9.058  1.00  0.00     0.071 A 
BRANCH   9  11
HETATM   11  C   UNL     1      43.444 -10.227  11.126  1.00  0.00    -0.003 A 
HETATM   12  C   UNL     1      42.349  -9.460  10.696  1.00  0.00     0.053 A 
HETATM   13  C   UNL     1      41.709  -8.655  11.620  1.00  0.00     0.106 A 
HETATM   14  C   UNL     1      42.112  -8.587  12.932  1.00  0.00     0.105 A 
HETATM   15  O   UNL     1      40.638  -7.856  11.364  1.00  0.00    -0.323 OA
HETATM   16  O   UNL     1      41.348  -7.736  13.667  1.00  0.00    -0.323 OA
HETATM   17  C   UNL     1      43.178  -9.320  13.397  1.00  0.00     0.040 A 
HETATM   18  C   UNL     1      40.414  -7.276  12.667  1.00  0.00     0.352 A 
HETATM   19  C   UNL     1      43.846 -10.144  12.483  1.00  0.00     0.017 A 
ENDBRANCH   9  11
ENDBRANCH   2   5
BRANCH   1  20
HETATM   20  N   UNL     1      43.885 -15.070   6.078  1.00  0.00    -0.183 NA
HETATM   21  C   UNL     1      42.758 -15.590   5.713  1.00  0.00     0.153 C 
BRANCH  21  22
HETATM   22  C   UNL     1      42.706 -16.529   4.607  1.00  0.00     0.018 A 
HETATM   23  C   UNL     1      41.934 -16.424   3.457  1.00  0.00     0.018 A 
HETATM   24  C   UNL     1      40.971 -15.380   3.013  1.00  0.00     0.069 C 
HETATM   25  N   UNL     1      42.190 -17.526   2.680  1.00  0.00    -0.358 N 
HETATM   26  H   UNL     1      41.766 -17.713   1.782  1.00  0.00     0.166 HD
HETATM   27  C   UNL     1      43.107 -18.348   3.289  1.00  0.00     0.043 A 
HETATM   28  C   UNL     1      43.451 -17.751   4.502  1.00  0.00     0.004 A 
HETATM   29  C   UNL     1      43.649 -19.565   2.858  1.00  0.00     0.030 A 
HETATM   30  C   UNL     1      44.390 -18.410   5.325  1.00  0.00     0.014 A 
HETATM   31  C   UNL     1      44.942 -19.627   4.910  1.00  0.00     0.001 A 
HETATM   32  C   UNL     1      44.576 -20.194   3.692  1.00  0.00     0.002 A 
ENDBRANCH  21  22
ENDBRANCH   1  20
TORSDOF 4
ENDMDL
MODEL 3
REMARK VINA RESULT:      -9.2      7.399     11.462
REMARK  4 active torsions:
REMARK  status: ('A' for Active; 'I' for Inactive)
REMARK    1  A    between atoms: C_7  and  C_8 
REMARK    2  A    between atoms: N_9  and  N_10 
REMARK       I    between atoms: N_10  and  C_11 
REMARK    3  A    between atoms: C_11  and  C_12 
REMARK    4  A    between atoms: C_16  and  C_17 
ROOT
HETATM    1  N   UNL     1      42.371 -16.862   0.267  1.00  0.00    -0.242 N 
HETATM    2  C   UNL     1      41.355 -15.921   0.201  1.00  0.00     0.289 C 
HETATM    3  O   UNL     1      40.529 -15.730   1.090  1.00  0.00    -0.264 OA
HETATM    4  H   UNL     1      43.021 -16.972  -0.499  1.00  0.00     0.192 HD
ENDROOT
BRANCH   2   5
HETATM    5  C   UNL     1      41.324 -15.148  -1.017  1.00  0.00     0.121 A 
HETATM    6  N   UNL     1      41.352 -15.758  -2.239  1.00  0.00    -0.272 N 
HETATM    7  H   UNL     1      41.394 -16.758  -2.414  1.00  0.00     0.189 HD
HETATM    8  N   UNL     1      41.316 -14.913  -3.278  1.00  0.00    -0.174 NA
HETATM    9  C   UNL     1      41.264 -13.691  -2.727  1.00  0.00     0.089 A 
HETATM   10  C   UNL     1      41.267 -13.798  -1.304  1.00  0.00     0.071 A 
BRANCH   9  11
HETATM   11  C   UNL     1      41.213 -12.478  -3.554  1.00  0.00    -0.003 A 
HETATM   12  C   UNL     1      39.986 -11.934  -3.969  1.00  0.00     0.053 A 
HETATM   13  C   UNL     1      40.005 -10.791  -4.745  1.00  0.00     0.106 A 
HETATM   14  C   UNL     1      41.179 -10.181  -5.118  1.00  0.00     0.105 A 
HETATM   15  O   UNL     1      38.909 -10.145  -5.227  1.00  0.00    -0.323 OA
HETATM   16  O   UNL     1      40.970  -9.074  -5.879  1.00  0.00    -0.323 OA
HETATM   17  C   UNL     1      42.402 -10.677  -4.734  1.00  0.00     0.040 A 
HETATM   18  C   UNL     1      39.529  -9.056  -5.944  1.00  0.00     0.352 A 
HETATM   19  C   UNL     1      42.413 -11.835  -3.947  1.00  0.00     0.017 A 
ENDBRANCH   9  11
ENDBRANCH   2   5
BRANCH   1  20
HETATM   20  N   UNL     1      42.499 -17.652   1.374  1.00  0.00    -0.183 NA
HETATM   21  C   UNL     1      43.671 -17.685   1.920  1.00  0.00     0.153 C 
BRANCH  21  22
HETATM   22  C   UNL     1      43.909 -18.494   3.101  1.00  0.00     0.018 A 
HETATM   23  C   UNL     1      43.938 -18.060   4.421  1.00  0.00     0.018 A 
HETATM   24  C   UNL     1      43.746 -16.708   5.014  1.00  0.00     0.069 C 
HETATM   25  N   UNL     1      44.195 -19.150   5.214  1.00  0.00    -0.358 N 
HETATM   26  H   UNL     1      44.272 -19.128   6.222  1.00  0.00     0.166 HD
HETATM   27  C   UNL     1      44.334 -20.284   4.452  1.00  0.00     0.043 A 
HETATM   28  C   UNL     1      44.160 -19.907   3.120  1.00  0.00     0.004 A 
HETATM   29  C   UNL     1      44.600 -21.602   4.841  1.00  0.00     0.030 A 
HETATM   30  C   UNL     1      44.258 -20.906   2.127  1.00  0.00     0.014 A 
HETATM   31  C   UNL     1      44.523 -22.229   2.499  1.00  0.00     0.001 A 
HETATM   32  C   UNL     1      44.690 -22.570   3.838  1.00  0.00     0.002 A 
ENDBRANCH  21  22
ENDBRANCH   1  20
TORSDOF 4
ENDMDL
MODEL 4
REMARK VINA RESULT:      -9.2      7.421     11.892
REMARK  4 active torsions:
REMARK  status: ('A' for Active; 'I' for Inactive)
REMARK    1  A    between atoms: C_7  and  C_8 
REMARK    2  A    between atoms: N_9  and  N_10 
REMARK       I    between atoms: N_10  and  C_11 
REMARK    3  A    between atoms: C_11  and  C_12 
REMARK    4  A    between atoms: C_16  and  C_17 
ROOT
HETATM    1  N   UNL     1      42.402 -16.634   0.052  1.00  0.00    -0.242 N 
HETATM    2  C   UNL     1      41.725 -15.433   0.197  1.00  0.00     0.289 C 
HETATM    3  O   UNL     1      41.750 -14.742   1.212  1.00  0.00    -0.264 OA
HETATM    4  H   UNL     1      42.342 -17.158  -0.810  1.00  0.00     0.192 HD
ENDROOT
BRANCH   2   5
HETATM    5  C   UNL     1      40.961 -15.026  -0.957  1.00  0.00     0.121 A 
HETATM    6  N   UNL     1      41.402 -15.293  -2.223  1.00  0.00    -0.272 N 
HETATM    7  H   UNL     1      42.259 -15.777  -2.475  1.00  0.00     0.189 HD
HETATM    8  N   UNL     1      40.588 -14.856  -3.193  1.00  0.00    -0.174 NA
HETATM    9  C   UNL     1      39.565 -14.273  -2.549  1.00  0.00     0.089 A 
HETATM   10  C   UNL     1      39.765 -14.361  -1.139  1.00  0.00     0.071 A 
BRANCH   9  11
HETATM   11  C   UNL     1      38.447 -13.661  -3.280  1.00  0.00    -0.003 A 
HETATM   12  C   UNL     1      37.445 -14.451  -3.867  1.00  0.00     0.053 A 
HETATM   13  C   UNL     1      36.419 -13.816  -4.540  1.00  0.00     0.106 A 
HETATM   14  C   UNL     1      36.356 -12.448  -4.651  1.00  0.00     0.105 A 
HETATM   15  O   UNL     1      35.379 -14.435  -5.160  1.00  0.00    -0.323 OA
HETATM   16  O   UNL     1      35.269 -12.032  -5.352  1.00  0.00    -0.323 OA
HETATM   17  C   UNL     1      37.314 -11.635  -4.092  1.00  0.00     0.040 A 
HETATM   18  C   UNL     1      34.652 -13.297  -5.673  1.00  0.00     0.352 A 
HETATM   19  C   UNL     1      38.366 -12.252  -3.403  1.00  0.00     0.017 A 
ENDBRANCH   9  11
ENDBRANCH   2   5
BRANCH   1  20
HETATM   20  N   UNL     1      43.159 -17.119   1.081  1.00  0.00    -0.183 NA
HETATM   21  C   UNL     1      42.595 -18.005   1.837  1.00  0.00     0.153 C 
BRANCH  21  22
HETATM   22  C   UNL     1      43.317 -18.581   2.956  1.00  0.00     0.018 A 
HETATM   23  C   UNL     1      43.665 -17.948   4.143  1.00  0.00     0.018 A 
HETATM   24  C   UNL     1      43.424 -16.559   4.621  1.00  0.00     0.069 C 
HETATM   25  N   UNL     1      44.337 -18.857   4.921  1.00  0.00    -0.358 N 
HETATM   26  H   UNL     1      44.709 -18.668   5.842  1.00  0.00     0.166 HD
HETATM   27  C   UNL     1      44.440 -20.066   4.277  1.00  0.00     0.043 A 
HETATM   28  C   UNL     1      43.809 -19.927   3.041  1.00  0.00     0.004 A 
HETATM   29  C   UNL     1      45.039 -21.259   4.697  1.00  0.00     0.030 A 
HETATM   30  C   UNL     1      43.779 -21.045   2.180  1.00  0.00     0.014 A 
HETATM   31  C   UNL     1      44.373 -22.247   2.583  1.00  0.00     0.001 A 
HETATM   32  C   UNL     1      44.993 -22.350   3.825  1.00  0.00     0.002 A 
ENDBRANCH  21  22
ENDBRANCH   1  20
TORSDOF 4
ENDMDL
MODEL 5
REMARK VINA RESULT:      -9.2      7.256     11.836
REMARK  4 active torsions:
REMARK  status: ('A' for Active; 'I' for Inactive)
REMARK    1  A    between atoms: C_7  and  C_8 
REMARK    2  A    between atoms: N_9  and  N_10 
REMARK       I    between atoms: N_10  and  C_11 
REMARK    3  A    between atoms: C_11  and  C_12 
REMARK    4  A    between atoms: C_16  and  C_17 
ROOT
HETATM    1  N   UNL     1      42.438 -16.715   0.211  1.00  0.00    -0.242 N 
HETATM    2  C   UNL     1      41.786 -15.495   0.297  1.00  0.00     0.289 C 
HETATM    3  O   UNL     1      41.855 -14.740   1.263  1.00  0.00    -0.264 OA
HETATM    4  H   UNL     1      42.341 -17.293  -0.612  1.00  0.00     0.192 HD
ENDROOT
BRANCH   2   5
HETATM    5  C   UNL     1      40.993 -15.150  -0.857  1.00  0.00     0.121 A 
HETATM    6  N   UNL     1      41.326 -15.604  -2.102  1.00  0.00    -0.272 N 
HETATM    7  H   UNL     1      42.117 -16.197  -2.337  1.00  0.00     0.189 HD
HETATM    8  N   UNL     1      40.497 -15.203  -3.075  1.00  0.00    -0.174 NA
HETATM    9  C   UNL     1      39.575 -14.450  -2.455  1.00  0.00     0.089 A 
HETATM   10  C   UNL     1      39.854 -14.394  -1.056  1.00  0.00     0.071 A 
BRANCH   9  11
HETATM   11  C   UNL     1      38.475 -13.819  -3.196  1.00  0.00    -0.003 A 
HETATM   12  C   UNL     1      37.468 -14.591  -3.797  1.00  0.00     0.053 A 
HETATM   13  C   UNL     1      36.461 -13.937  -4.480  1.00  0.00     0.106 A 
HETATM   14  C   UNL     1      36.420 -12.567  -4.585  1.00  0.00     0.105 A 
HETATM   15  O   UNL     1      35.418 -14.537  -5.116  1.00  0.00    -0.323 OA
HETATM   16  O   UNL     1      35.347 -12.132  -5.298  1.00  0.00    -0.323 OA
HETATM   17  C   UNL     1      37.383 -11.772  -4.012  1.00  0.00     0.040 A 
HETATM   18  C   UNL     1      34.715 -13.386  -5.631  1.00  0.00     0.352 A 
HETATM   19  C   UNL     1      38.417 -12.407  -3.314  1.00  0.00     0.017 A 
ENDBRANCH   9  11
ENDBRANCH   2   5
BRANCH   1  20
HETATM   20  N   UNL     1      43.219 -17.146   1.246  1.00  0.00    -0.183 NA
HETATM   21  C   UNL     1      42.760 -18.141   1.933  1.00  0.00     0.153 C 
BRANCH  21  22
HETATM   22  C   UNL     1      43.517 -18.672   3.052  1.00  0.00     0.018 A 
HETATM   23  C   UNL     1      44.124 -19.919   3.135  1.00  0.00     0.018 A 
HETATM   24  C   UNL     1      44.193 -21.044   2.162  1.00  0.00     0.069 C 
HETATM   25  N   UNL     1      44.728 -20.009   4.364  1.00  0.00    -0.358 N 
HETATM   26  H   UNL     1      45.247 -20.810   4.697  1.00  0.00     0.166 HD
HETATM   27  C   UNL     1      44.533 -18.858   5.087  1.00  0.00     0.043 A 
HETATM   28  C   UNL     1      43.776 -17.998   4.291  1.00  0.00     0.004 A 
HETATM   29  C   UNL     1      44.968 -18.521   6.373  1.00  0.00     0.030 A 
HETATM   30  C   UNL     1      43.437 -16.732   4.816  1.00  0.00     0.014 A 
HETATM   31  C   UNL     1      43.864 -16.377   6.102  1.00  0.00     0.001 A 
HETATM   32  C   UNL     1      44.619 -17.261   6.867  1.00  0.00     0.002 A 
ENDBRANCH  21  22
ENDBRANCH   1  20
TORSDOF 4
ENDMDL
MODEL 6
REMARK VINA RESULT:      -9.0      7.239     10.406
REMARK  4 active torsions:
REMARK  status: ('A' for Active; 'I' for Inactive)
REMARK    1  A    between atoms: C_7  and  C_8 
REMARK    2  A    between atoms: N_9  and  N_10 
REMARK       I    between atoms: N_10  and  C_11 
REMARK    3  A    between atoms: C_11  and  C_12 
REMARK    4  A    between atoms: C_16  and  C_17 
ROOT
HETATM    1  N   UNL     1      42.510 -16.669   1.299  1.00  0.00    -0.242 N 
HETATM    2  C   UNL     1      41.246 -16.179   1.009  1.00  0.00     0.289 C 
HETATM    3  O   UNL     1      40.222 -16.516   1.598  1.00  0.00    -0.264 OA
HETATM    4  H   UNL     1      43.317 -16.353   0.778  1.00  0.00     0.192 HD
ENDROOT
BRANCH   2   5
HETATM    5  C   UNL     1      41.202 -15.215  -0.062  1.00  0.00     0.121 A 
HETATM    6  N   UNL     1      40.429 -15.427  -1.169  1.00  0.00    -0.272 N 
HETATM    7  H   UNL     1      39.838 -16.234  -1.348  1.00  0.00     0.189 HD
HETATM    8  N   UNL     1      40.487 -14.445  -2.078  1.00  0.00    -0.174 NA
HETATM    9  C   UNL     1      41.334 -13.543  -1.558  1.00  0.00     0.089 A 
HETATM   10  C   UNL     1      41.804 -13.993  -0.289  1.00  0.00     0.071 A 
BRANCH   9  11
HETATM   11  C   UNL     1      41.664 -12.301  -2.271  1.00  0.00    -0.003 A 
HETATM   12  C   UNL     1      41.724 -11.072  -1.595  1.00  0.00     0.053 A 
HETATM   13  C   UNL     1      42.040  -9.939  -2.321  1.00  0.00     0.106 A 
HETATM   14  C   UNL     1      42.294  -9.985  -3.671  1.00  0.00     0.105 A 
HETATM   15  O   UNL     1      42.137  -8.679  -1.817  1.00  0.00    -0.323 OA
HETATM   16  O   UNL     1      42.584  -8.761  -4.188  1.00  0.00    -0.323 OA
HETATM   17  C   UNL     1      42.248 -11.166  -4.373  1.00  0.00     0.040 A 
HETATM   18  C   UNL     1      42.483  -7.937  -3.007  1.00  0.00     0.352 A 
HETATM   19  C   UNL     1      41.929 -12.330  -3.663  1.00  0.00     0.017 A 
ENDBRANCH   9  11
ENDBRANCH   2   5
BRANCH   1  20
HETATM   20  N   UNL     1      42.674 -17.588   2.296  1.00  0.00    -0.183 NA
HETATM   21  C   UNL     1      43.840 -17.623   2.855  1.00  0.00     0.153 C 
BRANCH  21  22
HETATM   22  C   UNL     1      44.114 -18.564   3.926  1.00  0.00     0.018 A 
HETATM   23  C   UNL     1      44.252 -18.277   5.278  1.00  0.00     0.018 A 
HETATM   24  C   UNL     1      44.168 -16.990   6.021  1.00  0.00     0.069 C 
HETATM   25  N   UNL     1      44.506 -19.456   5.932  1.00  0.00    -0.358 N 
HETATM   26  H   UNL     1      44.650 -19.547   6.929  1.00  0.00     0.166 HD
HETATM   27  C   UNL     1      44.537 -20.506   5.047  1.00  0.00     0.043 A 
HETATM   28  C   UNL     1      44.295 -19.980   3.778  1.00  0.00     0.004 A 
HETATM   29  C   UNL     1      44.761 -21.869   5.277  1.00  0.00     0.030 A 
HETATM   30  C   UNL     1      44.277 -20.869   2.682  1.00  0.00     0.014 A 
HETATM   31  C   UNL     1      44.498 -22.236   2.893  1.00  0.00     0.001 A 
HETATM   32  C   UNL     1      44.736 -22.726   4.174  1.00  0.00     0.002 A 
ENDBRANCH  21  22
ENDBRANCH   1  20
TORSDOF 4
ENDMDL
MODEL 7
REMARK VINA RESULT:      -8.9      8.061     11.874
REMARK  4 active torsions:
REMARK  status: ('A' for Active; 'I' for Inactive)
REMARK    1  A    between atoms: C_7  and  C_8 
REMARK    2  A    between atoms: N_9  and  N_10 
REMARK       I    between atoms: N_10  and  C_11 
REMARK    3  A    between atoms: C_11  and  C_12 
REMARK    4  A    between atoms: C_16  and  C_17 
ROOT
HETATM    1  N   UNL     1      41.533 -14.839  -0.210  1.00  0.00    -0.242 N 
HETATM    2  C   UNL     1      42.080 -14.566   1.034  1.00  0.00     0.289 C 
HETATM    3  O   UNL     1      42.143 -13.445   1.531  1.00  0.00    -0.264 OA
HETATM    4  H   UNL     1      41.510 -15.785  -0.567  1.00  0.00     0.192 HD
ENDROOT
BRANCH   2   5
HETATM    5  C   UNL     1      42.590 -15.718   1.736  1.00  0.00     0.121 A 
HETATM    6  N   UNL     1      43.058 -15.612   3.016  1.00  0.00    -0.272 N 
HETATM    7  H   UNL     1      43.095 -14.766   3.578  1.00  0.00     0.189 HD
HETATM    8  N   UNL     1      43.497 -16.764   3.539  1.00  0.00    -0.174 NA
HETATM    9  C   UNL     1      43.317 -17.674   2.570  1.00  0.00     0.089 A 
HETATM   10  C   UNL     1      42.747 -17.053   1.419  1.00  0.00     0.071 A 
BRANCH   9  11
HETATM   11  C   UNL     1      43.684 -19.084   2.763  1.00  0.00    -0.003 A 
HETATM   12  C   UNL     1      44.216 -19.535   3.982  1.00  0.00     0.053 A 
HETATM   13  C   UNL     1      44.541 -20.872   4.101  1.00  0.00     0.106 A 
HETATM   14  C   UNL     1      44.362 -21.761   3.069  1.00  0.00     0.105 A 
HETATM   15  O   UNL     1      45.063 -21.463   5.210  1.00  0.00    -0.323 OA
HETATM   16  O   UNL     1      44.747 -23.023   3.396  1.00  0.00    -0.323 OA
HETATM   17  C   UNL     1      43.844 -21.365   1.858  1.00  0.00     0.040 A 
HETATM   18  C   UNL     1      45.190 -22.828   4.756  1.00  0.00     0.352 A 
HETATM   19  C   UNL     1      43.505 -20.015   1.709  1.00  0.00     0.017 A 
ENDBRANCH   9  11
ENDBRANCH   2   5
BRANCH   1  20
HETATM   20  N   UNL     1      41.018 -13.825  -0.967  1.00  0.00    -0.183 NA
HETATM   21  C   UNL     1      40.727 -14.117  -2.193  1.00  0.00     0.153 C 
BRANCH  21  22
HETATM   22  C   UNL     1      40.174 -13.108  -3.078  1.00  0.00     0.018 A 
HETATM   23  C   UNL     1      38.839 -12.938  -3.422  1.00  0.00     0.018 A 
HETATM   24  C   UNL     1      37.618 -13.690  -3.020  1.00  0.00     0.069 C 
HETATM   25  N   UNL     1      38.761 -11.870  -4.280  1.00  0.00    -0.358 N 
HETATM   26  H   UNL     1      37.907 -11.519  -4.692  1.00  0.00     0.166 HD
HETATM   27  C   UNL     1      40.006 -11.336  -4.506  1.00  0.00     0.043 A 
HETATM   28  C   UNL     1      40.916 -12.090  -3.765  1.00  0.00     0.004 A 
HETATM   29  C   UNL     1      40.387 -10.252  -5.304  1.00  0.00     0.030 A 
HETATM   30  C   UNL     1      42.281 -11.737  -3.830  1.00  0.00     0.014 A 
HETATM   31  C   UNL     1      42.681 -10.655  -4.624  1.00  0.00     0.001 A 
HETATM   32  C   UNL     1      41.745  -9.924  -5.349  1.00  0.00     0.002 A 
ENDBRANCH  21  22
ENDBRANCH   1  20
TORSDOF 4
ENDMDL
MODEL 8
REMARK VINA RESULT:      -8.5      7.226      9.793
REMARK  4 active torsions:
REMARK  status: ('A' for Active; 'I' for Inactive)
REMARK    1  A    between atoms: C_7  and  C_8 
REMARK    2  A    between atoms: N_9  and  N_10 
REMARK       I    between atoms: N_10  and  C_11 
REMARK    3  A    between atoms: C_11  and  C_12 
REMARK    4  A    between atoms: C_16  and  C_17 
ROOT
HETATM    1  N   UNL     1      40.624 -15.835   3.564  1.00  0.00    -0.242 N 
HETATM    2  C   UNL     1      40.019 -15.884   2.318  1.00  0.00     0.289 C 
HETATM    3  O   UNL     1      40.071 -16.850   1.561  1.00  0.00    -0.264 OA
HETATM    4  H   UNL     1      40.546 -15.010   4.142  1.00  0.00     0.192 HD
ENDROOT
BRANCH   2   5
HETATM    5  C   UNL     1      39.298 -14.691   1.948  1.00  0.00     0.121 A 
HETATM    6  N   UNL     1      39.365 -13.562   2.714  1.00  0.00    -0.272 N 
HETATM    7  H   UNL     1      39.896 -13.444   3.572  1.00  0.00     0.189 HD
HETATM    8  N   UNL     1      38.644 -12.535   2.246  1.00  0.00    -0.174 NA
HETATM    9  C   UNL     1      38.072 -12.998   1.123  1.00  0.00     0.089 A 
HETATM   10  C   UNL     1      38.461 -14.353   0.903  1.00  0.00     0.071 A 
BRANCH   9  11
HETATM   11  C   UNL     1      37.189 -12.154   0.307  1.00  0.00    -0.003 A 
HETATM   12  C   UNL     1      37.355 -12.064  -1.085  1.00  0.00     0.053 A 
HETATM   13  C   UNL     1      36.492 -11.253  -1.797  1.00  0.00     0.106 A 
HETATM   14  C   UNL     1      35.489 -10.540  -1.185  1.00  0.00     0.105 A 
HETATM   15  O   UNL     1      36.520 -11.058  -3.143  1.00  0.00    -0.323 OA
HETATM   16  O   UNL     1      34.759  -9.808  -2.068  1.00  0.00    -0.323 OA
HETATM   17  C   UNL     1      35.289 -10.598   0.174  1.00  0.00     0.040 A 
HETATM   18  C   UNL     1      35.417 -10.141  -3.308  1.00  0.00     0.352 A 
HETATM   19  C   UNL     1      36.149 -11.412   0.921  1.00  0.00     0.017 A 
ENDBRANCH   9  11
ENDBRANCH   2   5
BRANCH   1  20
HETATM   20  N   UNL     1      41.335 -16.909   4.020  1.00  0.00    -0.183 NA
HETATM   21  C   UNL     1      42.595 -16.927   3.727  1.00  0.00     0.153 C 
BRANCH  21  22
HETATM   22  C   UNL     1      43.436 -18.026   4.166  1.00  0.00     0.018 A 
HETATM   23  C   UNL     1      44.179 -18.093   5.338  1.00  0.00     0.018 A 
HETATM   24  C   UNL     1      44.343 -17.121   6.454  1.00  0.00     0.069 C 
HETATM   25  N   UNL     1      44.825 -19.304   5.354  1.00  0.00    -0.358 N 
HETATM   26  H   UNL     1      45.438 -19.624   6.092  1.00  0.00     0.166 HD
HETATM   27  C   UNL     1      44.526 -20.030   4.228  1.00  0.00     0.043 A 
HETATM   28  C   UNL     1      43.655 -19.255   3.460  1.00  0.00     0.004 A 
HETATM   29  C   UNL     1      44.958 -21.302   3.837  1.00  0.00     0.030 A 
HETATM   30  C   UNL     1      43.196 -19.787   2.236  1.00  0.00     0.014 A 
HETATM   31  C   UNL     1      43.618 -21.058   1.829  1.00  0.00     0.001 A 
HETATM   32  C   UNL     1      44.487 -21.804   2.621  1.00  0.00     0.002 A 
ENDBRANCH  21  22
ENDBRANCH   1  20
TORSDOF 4
ENDMDL
MODEL 9
REMARK VINA RESULT:      -8.5      7.767     12.011
REMARK  4 active torsions:
REMARK  status: ('A' for Active; 'I' for Inactive)
REMARK    1  A    between atoms: C_7  and  C_8 
REMARK    2  A    between atoms: N_9  and  N_10 
REMARK       I    between atoms: N_10  and  C_11 
REMARK    3  A    between atoms: C_11  and  C_12 
REMARK    4  A    between atoms: C_16  and  C_17 
ROOT
HETATM    1  N   UNL     1      40.939 -16.523   0.318  1.00  0.00    -0.242 N 
HETATM    2  C   UNL     1      41.064 -15.180   0.001  1.00  0.00     0.289 C 
HETATM    3  O   UNL     1      42.044 -14.492   0.272  1.00  0.00    -0.264 OA
HETATM    4  H   UNL     1      40.106 -17.037   0.068  1.00  0.00     0.192 HD
ENDROOT
BRANCH   2   5
HETATM    5  C   UNL     1      39.933 -14.615  -0.695  1.00  0.00     0.121 A 
HETATM    6  N   UNL     1      38.930 -13.986  -0.013  1.00  0.00    -0.272 N 
HETATM    7  H   UNL     1      38.873 -13.854   0.992  1.00  0.00     0.189 HD
HETATM    8  N   UNL     1      37.948 -13.512  -0.792  1.00  0.00    -0.174 NA
HETATM    9  C   UNL     1      38.311 -13.839  -2.042  1.00  0.00     0.089 A 
HETATM   10  C   UNL     1      39.556 -14.535  -2.021  1.00  0.00     0.071 A 
BRANCH   9  11
HETATM   11  C   UNL     1      37.478 -13.486  -3.200  1.00  0.00    -0.003 A 
HETATM   12  C   UNL     1      37.223 -12.144  -3.528  1.00  0.00     0.053 A 
HETATM   13  C   UNL     1      36.432 -11.878  -4.629  1.00  0.00     0.106 A 
HETATM   14  C   UNL     1      35.894 -12.879  -5.401  1.00  0.00     0.105 A 
HETATM   15  O   UNL     1      36.092 -10.639  -5.077  1.00  0.00    -0.323 OA
HETATM   16  O   UNL     1      35.149 -12.399  -6.432  1.00  0.00    -0.323 OA
HETATM   17  C   UNL     1      36.117 -14.206  -5.118  1.00  0.00     0.040 A 
HETATM   18  C   UNL     1      35.279 -10.977  -6.221  1.00  0.00     0.352 A 
HETATM   19  C   UNL     1      36.915 -14.506  -4.007  1.00  0.00     0.017 A 
ENDBRANCH   9  11
ENDBRANCH   2   5
BRANCH   1  20
HETATM   20  N   UNL     1      41.950 -17.165   0.978  1.00  0.00    -0.183 NA
HETATM   21  C   UNL     1      41.792 -17.322   2.252  1.00  0.00     0.153 C 
BRANCH  21  22
HETATM   22  C   UNL     1      42.809 -17.992   3.041  1.00  0.00     0.018 A 
HETATM   23  C   UNL     1      43.458 -17.495   4.165  1.00  0.00     0.018 A 
HETATM   24  C   UNL     1      43.328 -16.195   4.879  1.00  0.00     0.069 C 
HETATM   25  N   UNL     1      44.341 -18.453   4.596  1.00  0.00    -0.358 N 
HETATM   26  H   UNL     1      44.949 -18.362   5.398  1.00  0.00     0.166 HD
HETATM   27  C   UNL     1      44.288 -19.562   3.787  1.00  0.00     0.043 A 
HETATM   28  C   UNL     1      43.335 -19.305   2.801  1.00  0.00     0.004 A 
HETATM   29  C   UNL     1      45.007 -20.761   3.857  1.00  0.00     0.030 A 
HETATM   30  C   UNL     1      43.092 -20.304   1.834  1.00  0.00     0.014 A 
HETATM   31  C   UNL     1      43.803 -21.510   1.888  1.00  0.00     0.001 A 
HETATM   32  C   UNL     1      44.746 -21.732   2.888  1.00  0.00     0.002 A 
ENDBRANCH  21  22
ENDBRANCH   1  20
TORSDOF 4
ENDMDL
MODEL 10
REMARK VINA RESULT:      -8.5      4.573     11.335
REMARK  4 active torsions:
REMARK  status: ('A' for Active; 'I' for Inactive)
REMARK    1  A    between atoms: C_7  and  C_8 
REMARK    2  A    between atoms: N_9  and  N_10 
REMARK       I    between atoms: N_10  and  C_11 
REMARK    3  A    between atoms: C_11  and  C_12 
REMARK    4  A    between atoms: C_16  and  C_17 
ROOT
HETATM    1  N   UNL     1      39.650 -13.387   6.230  1.00  0.00    -0.242 N 
HETATM    2  C   UNL     1      39.645 -13.383   4.844  1.00  0.00     0.289 C 
HETATM    3  O   UNL     1      39.210 -12.464   4.156  1.00  0.00    -0.264 OA
HETATM    4  H   UNL     1      40.023 -14.175   6.742  1.00  0.00     0.192 HD
ENDROOT
BRANCH   2   5
HETATM    5  C   UNL     1      40.202 -14.566   4.234  1.00  0.00     0.121 A 
HETATM    6  N   UNL     1      39.650 -15.102   3.105  1.00  0.00    -0.272 N 
HETATM    7  H   UNL     1      38.840 -14.751   2.603  1.00  0.00     0.189 HD
HETATM    8  N   UNL     1      40.275 -16.197   2.653  1.00  0.00    -0.174 NA
HETATM    9  C   UNL     1      41.284 -16.400   3.515  1.00  0.00     0.089 A 
HETATM   10  C   UNL     1      41.270 -15.392   4.525  1.00  0.00     0.071 A 
BRANCH   9  11
HETATM   11  C   UNL     1      42.215 -17.525   3.356  1.00  0.00    -0.003 A 
HETATM   12  C   UNL     1      42.860 -18.094   4.466  1.00  0.00     0.053 A 
HETATM   13  C   UNL     1      43.724 -19.151   4.251  1.00  0.00     0.106 A 
HETATM   14  C   UNL     1      43.966 -19.652   2.994  1.00  0.00     0.105 A 
HETATM   15  O   UNL     1      44.424 -19.808   5.215  1.00  0.00    -0.323 OA
HETATM   16  O   UNL     1      44.847 -20.688   3.008  1.00  0.00    -0.323 OA
HETATM   17  C   UNL     1      43.356 -19.127   1.880  1.00  0.00     0.040 A 
HETATM   18  C   UNL     1      45.133 -20.782   4.419  1.00  0.00     0.352 A 
HETATM   19  C   UNL     1      42.475 -18.055   2.068  1.00  0.00     0.017 A 
ENDBRANCH   9  11
ENDBRANCH   2   5
BRANCH   1  20
HETATM   20  N   UNL     1      39.148 -12.318   6.918  1.00  0.00    -0.183 NA
HETATM   21  C   UNL     1      40.017 -11.503   7.421  1.00  0.00     0.153 C 
BRANCH  21  22
HETATM   22  C   UNL     1      39.583 -10.337   8.169  1.00  0.00     0.018 A 
HETATM   23  C   UNL     1      39.054  -9.161   7.652  1.00  0.00     0.018 A 
HETATM   24  C   UNL     1      38.778  -8.742   6.250  1.00  0.00     0.069 C 
HETATM   25  N   UNL     1      38.782  -8.325   8.706  1.00  0.00    -0.358 N 
HETATM   26  H   UNL     1      38.388  -7.398   8.624  1.00  0.00     0.166 HD
HETATM   27  C   UNL     1      39.117  -8.921   9.897  1.00  0.00     0.043 A 
HETATM   28  C   UNL     1      39.623 -10.186   9.595  1.00  0.00     0.004 A 
HETATM   29  C   UNL     1      39.010  -8.437  11.206  1.00  0.00     0.030 A 
HETATM   30  C   UNL     1      40.044 -11.007  10.664  1.00  0.00     0.014 A 
HETATM   31  C   UNL     1      39.944 -10.539  11.980  1.00  0.00     0.001 A 
HETATM   32  C   UNL     1      39.433  -9.271  12.244  1.00  0.00     0.002 A 
ENDBRANCH  21  22
ENDBRANCH   1  20
TORSDOF 4
ENDMDL
