MODEL 1
REMARK VINA RESULT:      -8.3      0.000      0.000
REMARK  6 active torsions:
REMARK  status: ('A' for Active; 'I' for Inactive)
REMARK    1  A    between atoms: C_3  and  N_4 
REMARK       I    between atoms: N_4  and  C_5 
REMARK       I    between atoms: C_5  and  N_6 
REMARK    2  A    between atoms: N_6  and  C_7 
REMARK    3  A    between atoms: C_7  and  C_8 
REMARK    4  A    between atoms: C_16  and  N_17 
REMARK       I    between atoms: N_17  and  C_18 
REMARK    5  A    between atoms: C_18  and  C_19 
REMARK    6  A    between atoms: C_19  and  C_20 
ROOT
HETATM    1  C   UNL     1      44.910 -18.566   5.731  1.00  0.00     0.004 A 
HETATM    2  C   UNL     1      44.880 -17.543   6.678  1.00  0.00     0.029 A 
HETATM    3  C   UNL     1      43.999 -16.472   6.528  1.00  0.00     0.038 A 
HETATM    4  C   UNL     1      43.140 -16.447   5.418  1.00  0.00     0.059 A 
HETATM    5  C   UNL     1      43.158 -17.469   4.464  1.00  0.00     0.036 A 
HETATM    6  C   UNL     1      44.054 -18.531   4.630  1.00  0.00     0.029 A 
ENDROOT
BRANCH   3   7
HETATM    7  N   UNL     1      43.898 -15.403   7.444  1.00  0.00    -0.309 N 
HETATM    8  C   UNL     1      44.592 -14.215   7.425  1.00  0.00     0.320 C 
HETATM    9  N   UNL     1      44.296 -13.449   8.534  1.00  0.00    -0.339 N 
HETATM   10  O   UNL     1      45.372 -13.838   6.561  1.00  0.00    -0.247 OA
HETATM   11  H   UNL     1      43.933 -13.916   9.350  1.00  0.00     0.164 HD
HETATM   12  H   UNL     1      43.152 -15.466   8.122  1.00  0.00     0.170 HD
BRANCH   9  13
HETATM   13  C   UNL     1      44.916 -12.158   8.739  1.00  0.00     0.163 C 
BRANCH  13  14
HETATM   14  C   UNL     1      44.125 -11.236   9.635  1.00  0.00    -0.038 A 
HETATM   15  C   UNL     1      42.879 -10.716   9.273  1.00  0.00     0.028 A 
HETATM   16  C   UNL     1      42.200  -9.911  10.177  1.00  0.00     0.116 A 
HETATM   17  N   UNL     1      42.664  -9.604  11.407  1.00  0.00    -0.273 NA
HETATM   18  C   UNL     1      43.852 -10.138  11.753  1.00  0.00     0.116 A 
HETATM   19  C   UNL     1      44.607 -10.947  10.917  1.00  0.00     0.028 A 
ENDBRANCH  13  14
ENDBRANCH   9  13
ENDBRANCH   3   7
BRANCH   5  20
HETATM   20  N   UNL     1      42.322 -17.507   3.328  1.00  0.00    -0.327 N 
HETATM   21  C   UNL     1      42.636 -17.123   2.035  1.00  0.00     0.227 C 
HETATM   22  O   UNL     1      43.711 -16.660   1.654  1.00  0.00    -0.273 OA
HETATM   23  H   UNL     1      41.371 -17.815   3.493  1.00  0.00     0.169 HD
BRANCH  21  24
HETATM   24  C   UNL     1      41.473 -17.282   1.057  1.00  0.00     0.159 C 
BRANCH  24  25
HETATM   25  C   UNL     1      40.545 -16.112   1.147  1.00  0.00     0.017 A 
HETATM   26  N   UNL     1      39.421 -16.136   1.943  1.00  0.00    -0.369 N 
HETATM   27  H   UNL     1      39.121 -16.932   2.499  1.00  0.00     0.165 HD
HETATM   28  C   UNL     1      38.758 -14.942   1.839  1.00  0.00     0.088 A 
HETATM   29  C   UNL     1      39.473 -14.133   0.984  1.00  0.00     0.019 A 
HETATM   30  C   UNL     1      40.602 -14.868   0.550  1.00  0.00     0.027 A 
ENDBRANCH  24  25
ENDBRANCH  21  24
ENDBRANCH   5  20
TORSDOF 6
ENDMDL
MODEL 2
REMARK VINA RESULT:      -8.1      4.868      8.231
REMARK  6 active torsions:
REMARK  status: ('A' for Active; 'I' for Inactive)
REMARK    1  A    between atoms: C_3  and  N_4 
REMARK       I    between atoms: N_4  and  C_5 
REMARK       I    between atoms: C_5  and  N_6 
REMARK    2  A    between atoms: N_6  and  C_7 
REMARK    3  A    between atoms: C_7  and  C_8 
REMARK    4  A    between atoms: C_16  and  N_17 
REMARK       I    between atoms: N_17  and  C_18 
REMARK    5  A    between atoms: C_18  and  C_19 
REMARK    6  A    between atoms: C_19  and  C_20 
ROOT
HETATM    1  C   UNL     1      39.704 -13.178   3.924  1.00  0.00     0.004 A 
HETATM    2  C   UNL     1      40.384 -14.311   4.368  1.00  0.00     0.029 A 
HETATM    3  C   UNL     1      40.456 -15.450   3.565  1.00  0.00     0.038 A 
HETATM    4  C   UNL     1      39.840 -15.432   2.303  1.00  0.00     0.059 A 
HETATM    5  C   UNL     1      39.158 -14.300   1.845  1.00  0.00     0.036 A 
HETATM    6  C   UNL     1      39.095 -13.172   2.670  1.00  0.00     0.029 A 
ENDROOT
BRANCH   3   7
HETATM    7  N   UNL     1      41.132 -16.631   3.934  1.00  0.00    -0.309 N 
HETATM    8  C   UNL     1      42.486 -16.875   3.875  1.00  0.00     0.320 C 
HETATM    9  N   UNL     1      42.772 -18.176   4.234  1.00  0.00    -0.339 N 
HETATM   10  O   UNL     1      43.359 -16.078   3.561  1.00  0.00    -0.247 OA
HETATM   11  H   UNL     1      42.037 -18.862   4.157  1.00  0.00     0.164 HD
HETATM   12  H   UNL     1      40.579 -17.335   4.401  1.00  0.00     0.170 HD
BRANCH   9  13
HETATM   13  C   UNL     1      44.132 -18.670   4.236  1.00  0.00     0.163 C 
BRANCH  13  14
HETATM   14  C   UNL     1      44.280 -20.054   3.652  1.00  0.00    -0.038 A 
HETATM   15  C   UNL     1      44.720 -21.149   4.402  1.00  0.00     0.028 A 
HETATM   16  C   UNL     1      44.785 -22.395   3.796  1.00  0.00     0.116 A 
HETATM   17  N   UNL     1      44.431 -22.628   2.515  1.00  0.00    -0.273 NA
HETATM   18  C   UNL     1      43.979 -21.568   1.813  1.00  0.00     0.116 A 
HETATM   19  C   UNL     1      43.886 -20.285   2.329  1.00  0.00     0.028 A 
ENDBRANCH  13  14
ENDBRANCH   9  13
ENDBRANCH   3   7
BRANCH   5  20
HETATM   20  N   UNL     1      38.521 -14.214   0.589  1.00  0.00    -0.327 N 
HETATM   21  C   UNL     1      38.966 -13.545  -0.539  1.00  0.00     0.227 C 
HETATM   22  O   UNL     1      40.003 -12.888  -0.635  1.00  0.00    -0.273 OA
HETATM   23  H   UNL     1      37.616 -14.662   0.524  1.00  0.00     0.169 HD
BRANCH  21  24
HETATM   24  C   UNL     1      38.005 -13.649  -1.722  1.00  0.00     0.159 C 
BRANCH  24  25
HETATM   25  C   UNL     1      38.483 -14.675  -2.700  1.00  0.00     0.017 A 
HETATM   26  N   UNL     1      39.712 -15.285  -2.572  1.00  0.00    -0.369 N 
HETATM   27  H   UNL     1      40.387 -15.079  -1.841  1.00  0.00     0.165 HD
HETATM   28  C   UNL     1      39.891 -16.178  -3.595  1.00  0.00     0.088 A 
HETATM   29  C   UNL     1      38.760 -16.159  -4.379  1.00  0.00     0.019 A 
HETATM   30  C   UNL     1      37.869 -15.214  -3.814  1.00  0.00     0.027 A 
ENDBRANCH  24  25
ENDBRANCH  21  24
ENDBRANCH   5  20
TORSDOF 6
ENDMDL
MODEL 3
REMARK VINA RESULT:      -8.1      5.021      7.913
REMARK  6 active torsions:
REMARK  status: ('A' for Active; 'I' for Inactive)
REMARK    1  A    between atoms: C_3  and  N_4 
REMARK       I    between atoms: N_4  and  C_5 
REMARK       I    between atoms: C_5  and  N_6 
REMARK    2  A    between atoms: N_6  and  C_7 
REMARK    3  A    between atoms: C_7  and  C_8 
REMARK    4  A    between atoms: C_16  and  N_17 
REMARK       I    between atoms: N_17  and  C_18 
REMARK    5  A    between atoms: C_18  and  C_19 
REMARK    6  A    between atoms: C_19  and  C_20 
ROOT
HETATM    1  C   UNL     1      39.767 -13.873   2.921  1.00  0.00     0.004 A 
HETATM    2  C   UNL     1      40.392 -14.757   3.800  1.00  0.00     0.029 A 
HETATM    3  C   UNL     1      41.000 -15.917   3.318  1.00  0.00     0.038 A 
HETATM    4  C   UNL     1      40.979 -16.173   1.938  1.00  0.00     0.059 A 
HETATM    5  C   UNL     1      40.359 -15.292   1.046  1.00  0.00     0.036 A 
HETATM    6  C   UNL     1      39.751 -14.138   1.552  1.00  0.00     0.029 A 
ENDROOT
BRANCH   3   7
HETATM    7  N   UNL     1      41.661 -16.856   4.137  1.00  0.00    -0.309 N 
HETATM    8  C   UNL     1      42.951 -17.321   4.005  1.00  0.00     0.320 C 
HETATM    9  N   UNL     1      43.222 -18.302   4.937  1.00  0.00    -0.339 N 
HETATM   10  O   UNL     1      43.784 -16.944   3.194  1.00  0.00    -0.247 OA
HETATM   11  H   UNL     1      42.444 -18.800   5.341  1.00  0.00     0.164 HD
HETATM   12  H   UNL     1      41.178 -17.132   4.979  1.00  0.00     0.170 HD
BRANCH   9  13
HETATM   13  C   UNL     1      44.514 -18.951   4.986  1.00  0.00     0.163 C 
BRANCH  13  14
HETATM   14  C   UNL     1      44.534 -20.319   4.349  1.00  0.00    -0.038 A 
HETATM   15  C   UNL     1      44.409 -20.513   2.970  1.00  0.00     0.028 A 
HETATM   16  C   UNL     1      44.482 -21.804   2.465  1.00  0.00     0.116 A 
HETATM   17  N   UNL     1      44.683 -22.899   3.227  1.00  0.00    -0.273 NA
HETATM   18  C   UNL     1      44.832 -22.693   4.551  1.00  0.00     0.116 A 
HETATM   19  C   UNL     1      44.768 -21.444   5.149  1.00  0.00     0.028 A 
ENDBRANCH  13  14
ENDBRANCH   9  13
ENDBRANCH   3   7
BRANCH   5  20
HETATM   20  N   UNL     1      40.304 -15.487  -0.350  1.00  0.00    -0.327 N 
HETATM   21  C   UNL     1      41.048 -14.841  -1.323  1.00  0.00     0.227 C 
HETATM   22  O   UNL     1      41.888 -13.960  -1.132  1.00  0.00    -0.273 OA
HETATM   23  H   UNL     1      39.609 -16.149  -0.674  1.00  0.00     0.169 HD
BRANCH  21  24
HETATM   24  C   UNL     1      40.711 -15.292  -2.743  1.00  0.00     0.159 C 
BRANCH  24  25
HETATM   25  C   UNL     1      39.344 -14.826  -3.133  1.00  0.00     0.017 A 
HETATM   26  N   UNL     1      38.304 -15.708  -3.332  1.00  0.00    -0.369 N 
HETATM   27  H   UNL     1      38.380 -16.719  -3.260  1.00  0.00     0.165 HD
HETATM   28  C   UNL     1      37.173 -15.016  -3.676  1.00  0.00     0.088 A 
HETATM   29  C   UNL     1      37.480 -13.674  -3.678  1.00  0.00     0.019 A 
HETATM   30  C   UNL     1      38.848 -13.552  -3.332  1.00  0.00     0.027 A 
ENDBRANCH  24  25
ENDBRANCH  21  24
ENDBRANCH   5  20
TORSDOF 6
ENDMDL
MODEL 4
REMARK VINA RESULT:      -7.9      3.141      9.331
REMARK  6 active torsions:
REMARK  status: ('A' for Active; 'I' for Inactive)
REMARK    1  A    between atoms: C_3  and  N_4 
REMARK       I    between atoms: N_4  and  C_5 
REMARK       I    between atoms: C_5  and  N_6 
REMARK    2  A    between atoms: N_6  and  C_7 
REMARK    3  A    between atoms: C_7  and  C_8 
REMARK    4  A    between atoms: C_16  and  N_17 
REMARK       I    between atoms: N_17  and  C_18 
REMARK    5  A    between atoms: C_18  and  C_19 
REMARK    6  A    between atoms: C_19  and  C_20 
ROOT
HETATM    1  C   UNL     1      39.813 -13.862   3.436  1.00  0.00     0.004 A 
HETATM    2  C   UNL     1      40.473 -15.086   3.525  1.00  0.00     0.029 A 
HETATM    3  C   UNL     1      40.804 -15.618   4.772  1.00  0.00     0.038 A 
HETATM    4  C   UNL     1      40.454 -14.906   5.930  1.00  0.00     0.059 A 
HETATM    5  C   UNL     1      39.788 -13.679   5.853  1.00  0.00     0.036 A 
HETATM    6  C   UNL     1      39.471 -13.162   4.593  1.00  0.00     0.029 A 
ENDROOT
BRANCH   3   7
HETATM    7  N   UNL     1      41.462 -16.854   4.950  1.00  0.00    -0.309 N 
HETATM    8  C   UNL     1      42.802 -17.122   4.782  1.00  0.00     0.320 C 
HETATM    9  N   UNL     1      43.065 -18.464   4.958  1.00  0.00    -0.339 N 
HETATM   10  O   UNL     1      43.681 -16.313   4.520  1.00  0.00    -0.247 OA
HETATM   11  H   UNL     1      42.306 -19.116   4.839  1.00  0.00     0.164 HD
HETATM   12  H   UNL     1      40.913 -17.597   5.357  1.00  0.00     0.170 HD
BRANCH   9  13
HETATM   13  C   UNL     1      44.407 -18.988   4.819  1.00  0.00     0.163 C 
BRANCH  13  14
HETATM   14  C   UNL     1      44.482 -20.276   4.034  1.00  0.00    -0.038 A 
HETATM   15  C   UNL     1      44.769 -21.508   4.629  1.00  0.00     0.028 A 
HETATM   16  C   UNL     1      44.774 -22.649   3.839  1.00  0.00     0.116 A 
HETATM   17  N   UNL     1      44.502 -22.650   2.517  1.00  0.00    -0.273 NA
HETATM   18  C   UNL     1      44.196 -21.459   1.964  1.00  0.00     0.116 A 
HETATM   19  C   UNL     1      44.172 -20.265   2.669  1.00  0.00     0.028 A 
ENDBRANCH  13  14
ENDBRANCH   9  13
ENDBRANCH   3   7
BRANCH   5  20
HETATM   20  N   UNL     1      39.405 -12.915   6.976  1.00  0.00    -0.327 N 
HETATM   21  C   UNL     1      39.934 -11.705   7.394  1.00  0.00     0.227 C 
HETATM   22  O   UNL     1      40.855 -11.089   6.857  1.00  0.00    -0.273 OA
HETATM   23  H   UNL     1      38.687 -13.324   7.561  1.00  0.00     0.169 HD
BRANCH  21  24
HETATM   24  C   UNL     1      39.287 -11.171   8.670  1.00  0.00     0.159 C 
BRANCH  24  25
HETATM   25  C   UNL     1      40.325 -10.617   9.595  1.00  0.00     0.017 A 
HETATM   26  N   UNL     1      41.592 -11.153   9.670  1.00  0.00    -0.369 N 
HETATM   27  H   UNL     1      41.912 -11.960   9.142  1.00  0.00     0.165 HD
HETATM   28  C   UNL     1      42.333 -10.456  10.588  1.00  0.00     0.088 A 
HETATM   29  C   UNL     1      41.543  -9.448  11.094  1.00  0.00     0.019 A 
HETATM   30  C   UNL     1      40.278  -9.546  10.466  1.00  0.00     0.027 A 
ENDBRANCH  24  25
ENDBRANCH  21  24
ENDBRANCH   5  20
TORSDOF 6
ENDMDL
MODEL 5
REMARK VINA RESULT:      -7.8      2.890      9.374
REMARK  6 active torsions:
REMARK  status: ('A' for Active; 'I' for Inactive)
REMARK    1  A    between atoms: C_3  and  N_4 
REMARK       I    between atoms: N_4  and  C_5 
REMARK       I    between atoms: C_5  and  N_6 
REMARK    2  A    between atoms: N_6  and  C_7 
REMARK    3  A    between atoms: C_7  and  C_8 
REMARK    4  A    between atoms: C_16  and  N_17 
REMARK       I    between atoms: N_17  and  C_18 
REMARK    5  A    between atoms: C_18  and  C_19 
REMARK    6  A    between atoms: C_19  and  C_20 
ROOT
HETATM    1  C   UNL     1      39.135 -11.763   4.105  1.00  0.00     0.004 A 
HETATM    2  C   UNL     1      39.473 -13.061   3.724  1.00  0.00     0.029 A 
HETATM    3  C   UNL     1      39.981 -13.960   4.662  1.00  0.00     0.038 A 
HETATM    4  C   UNL     1      40.137 -13.540   5.992  1.00  0.00     0.059 A 
HETATM    5  C   UNL     1      39.797 -12.242   6.388  1.00  0.00     0.036 A 
HETATM    6  C   UNL     1      39.294 -11.355   5.429  1.00  0.00     0.029 A 
ENDROOT
BRANCH   3   7
HETATM    7  N   UNL     1      40.338 -15.292   4.361  1.00  0.00    -0.309 N 
HETATM    8  C   UNL     1      41.257 -15.724   3.432  1.00  0.00     0.320 C 
HETATM    9  N   UNL     1      41.274 -17.101   3.353  1.00  0.00    -0.339 N 
HETATM   10  O   UNL     1      41.990 -15.022   2.749  1.00  0.00    -0.247 OA
HETATM   11  H   UNL     1      40.458 -17.604   3.666  1.00  0.00     0.164 HD
HETATM   12  H   UNL     1      39.964 -16.002   4.973  1.00  0.00     0.170 HD
BRANCH   9  13
HETATM   13  C   UNL     1      42.156 -17.787   2.434  1.00  0.00     0.163 C 
BRANCH  13  14
HETATM   14  C   UNL     1      43.193 -18.649   3.112  1.00  0.00    -0.038 A 
HETATM   15  C   UNL     1      43.548 -18.490   4.455  1.00  0.00     0.028 A 
HETATM   16  C   UNL     1      44.480 -19.355   5.010  1.00  0.00     0.116 A 
HETATM   17  N   UNL     1      45.065 -20.365   4.332  1.00  0.00    -0.273 NA
HETATM   18  C   UNL     1      44.690 -20.525   3.047  1.00  0.00     0.116 A 
HETATM   19  C   UNL     1      43.773 -19.708   2.404  1.00  0.00     0.028 A 
ENDBRANCH  13  14
ENDBRANCH   9  13
ENDBRANCH   3   7
BRANCH   5  20
HETATM   20  N   UNL     1      39.925 -11.757   7.707  1.00  0.00    -0.327 N 
HETATM   21  C   UNL     1      40.936 -10.963   8.219  1.00  0.00     0.227 C 
HETATM   22  O   UNL     1      41.921 -10.551   7.605  1.00  0.00    -0.273 OA
HETATM   23  H   UNL     1      39.212 -12.063   8.358  1.00  0.00     0.169 HD
BRANCH  21  24
HETATM   24  C   UNL     1      40.762 -10.644   9.703  1.00  0.00     0.159 C 
BRANCH  24  25
HETATM   25  C   UNL     1      42.077 -10.705  10.413  1.00  0.00     0.017 A 
HETATM   26  N   UNL     1      42.920 -11.788  10.292  1.00  0.00    -0.369 N 
HETATM   27  H   UNL     1      42.715 -12.623   9.749  1.00  0.00     0.165 HD
HETATM   28  C   UNL     1      44.047 -11.581  11.040  1.00  0.00     0.088 A 
HETATM   29  C   UNL     1      43.942 -10.343  11.634  1.00  0.00     0.019 A 
HETATM   30  C   UNL     1      42.701  -9.788  11.236  1.00  0.00     0.027 A 
ENDBRANCH  24  25
ENDBRANCH  21  24
ENDBRANCH   5  20
TORSDOF 6
ENDMDL
MODEL 6
REMARK VINA RESULT:      -7.7      4.357      9.476
REMARK  6 active torsions:
REMARK  status: ('A' for Active; 'I' for Inactive)
REMARK    1  A    between atoms: C_3  and  N_4 
REMARK       I    between atoms: N_4  and  C_5 
REMARK       I    between atoms: C_5  and  N_6 
REMARK    2  A    between atoms: N_6  and  C_7 
REMARK    3  A    between atoms: C_7  and  C_8 
REMARK    4  A    between atoms: C_16  and  N_17 
REMARK       I    between atoms: N_17  and  C_18 
REMARK    5  A    between atoms: C_18  and  C_19 
REMARK    6  A    between atoms: C_19  and  C_20 
ROOT
HETATM    1  C   UNL     1      40.700 -14.487   5.914  1.00  0.00     0.004 A 
HETATM    2  C   UNL     1      39.880 -14.379   4.791  1.00  0.00     0.029 A 
HETATM    3  C   UNL     1      40.150 -15.132   3.648  1.00  0.00     0.038 A 
HETATM    4  C   UNL     1      41.252 -16.002   3.651  1.00  0.00     0.059 A 
HETATM    5  C   UNL     1      42.079 -16.122   4.773  1.00  0.00     0.036 A 
HETATM    6  C   UNL     1      41.793 -15.353   5.906  1.00  0.00     0.029 A 
ENDROOT
BRANCH   3   7
HETATM    7  N   UNL     1      39.366 -15.090   2.476  1.00  0.00    -0.309 N 
HETATM    8  C   UNL     1      39.494 -14.224   1.413  1.00  0.00     0.320 C 
HETATM    9  N   UNL     1      38.492 -14.425   0.486  1.00  0.00    -0.339 N 
HETATM   10  O   UNL     1      40.365 -13.380   1.260  1.00  0.00    -0.247 OA
HETATM   11  H   UNL     1      37.642 -14.872   0.796  1.00  0.00     0.164 HD
HETATM   12  H   UNL     1      38.715 -15.850   2.348  1.00  0.00     0.170 HD
BRANCH   9  13
HETATM   13  C   UNL     1      38.411 -13.622  -0.715  1.00  0.00     0.163 C 
BRANCH  13  14
HETATM   14  C   UNL     1      38.817 -14.358  -1.969  1.00  0.00    -0.038 A 
HETATM   15  C   UNL     1      40.124 -14.800  -2.197  1.00  0.00     0.028 A 
HETATM   16  C   UNL     1      40.399 -15.508  -3.358  1.00  0.00     0.116 A 
HETATM   17  N   UNL     1      39.472 -15.815  -4.290  1.00  0.00    -0.273 NA
HETATM   18  C   UNL     1      38.211 -15.408  -4.041  1.00  0.00     0.116 A 
HETATM   19  C   UNL     1      37.840 -14.691  -2.914  1.00  0.00     0.028 A 
ENDBRANCH  13  14
ENDBRANCH   9  13
ENDBRANCH   3   7
BRANCH   5  20
HETATM   20  N   UNL     1      43.198 -16.978   4.843  1.00  0.00    -0.327 N 
HETATM   21  C   UNL     1      43.346 -18.225   4.259  1.00  0.00     0.227 C 
HETATM   22  O   UNL     1      42.505 -18.815   3.580  1.00  0.00    -0.273 OA
HETATM   23  H   UNL     1      43.963 -16.654   5.423  1.00  0.00     0.169 HD
BRANCH  21  24
HETATM   24  C   UNL     1      44.691 -18.881   4.565  1.00  0.00     0.159 C 
BRANCH  24  25
HETATM   25  C   UNL     1      44.651 -20.340   4.238  1.00  0.00     0.017 A 
HETATM   26  N   UNL     1      44.492 -20.792   2.947  1.00  0.00    -0.369 N 
HETATM   27  H   UNL     1      44.365 -20.194   2.135  1.00  0.00     0.165 HD
HETATM   28  C   UNL     1      44.494 -22.162   2.935  1.00  0.00     0.088 A 
HETATM   29  C   UNL     1      44.677 -22.598   4.228  1.00  0.00     0.019 A 
HETATM   30  C   UNL     1      44.781 -21.450   5.051  1.00  0.00     0.027 A 
ENDBRANCH  24  25
ENDBRANCH  21  24
ENDBRANCH   5  20
TORSDOF 6
ENDMDL
MODEL 7
REMARK VINA RESULT:      -7.6      2.311      9.424
REMARK  6 active torsions:
REMARK  status: ('A' for Active; 'I' for Inactive)
REMARK    1  A    between atoms: C_3  and  N_4 
REMARK       I    between atoms: N_4  and  C_5 
REMARK       I    between atoms: C_5  and  N_6 
REMARK    2  A    between atoms: N_6  and  C_7 
REMARK    3  A    between atoms: C_7  and  C_8 
REMARK    4  A    between atoms: C_16  and  N_17 
REMARK       I    between atoms: N_17  and  C_18 
REMARK    5  A    between atoms: C_18  and  C_19 
REMARK    6  A    between atoms: C_19  and  C_20 
ROOT
HETATM    1  C   UNL     1      42.173 -17.613   6.367  1.00  0.00     0.004 A 
HETATM    2  C   UNL     1      41.818 -17.381   5.039  1.00  0.00     0.029 A 
HETATM    3  C   UNL     1      42.339 -16.285   4.352  1.00  0.00     0.038 A 
HETATM    4  C   UNL     1      43.229 -15.426   5.016  1.00  0.00     0.059 A 
HETATM    5  C   UNL     1      43.596 -15.650   6.347  1.00  0.00     0.036 A 
HETATM    6  C   UNL     1      43.057 -16.753   7.018  1.00  0.00     0.029 A 
ENDROOT
BRANCH   3   7
HETATM    7  N   UNL     1      42.041 -15.986   3.006  1.00  0.00    -0.309 N 
HETATM    8  C   UNL     1      41.024 -15.188   2.530  1.00  0.00     0.320 C 
HETATM    9  N   UNL     1      40.987 -15.201   1.151  1.00  0.00    -0.339 N 
HETATM   10  O   UNL     1      40.239 -14.530   3.198  1.00  0.00    -0.247 OA
HETATM   11  H   UNL     1      41.408 -15.983   0.673  1.00  0.00     0.164 HD
HETATM   12  H   UNL     1      42.714 -16.295   2.320  1.00  0.00     0.170 HD
BRANCH   9  13
HETATM   13  C   UNL     1      39.992 -14.444   0.422  1.00  0.00     0.163 C 
BRANCH  13  14
HETATM   14  C   UNL     1      40.133 -14.537  -1.078  1.00  0.00    -0.038 A 
HETATM   15  C   UNL     1      39.519 -13.635  -1.952  1.00  0.00     0.028 A 
HETATM   16  C   UNL     1      39.738 -13.768  -3.316  1.00  0.00     0.116 A 
HETATM   17  N   UNL     1      40.528 -14.717  -3.862  1.00  0.00    -0.273 NA
HETATM   18  C   UNL     1      41.138 -15.560  -3.004  1.00  0.00     0.116 A 
HETATM   19  C   UNL     1      40.976 -15.510  -1.628  1.00  0.00     0.028 A 
ENDBRANCH  13  14
ENDBRANCH   9  13
ENDBRANCH   3   7
BRANCH   5  20
HETATM   20  N   UNL     1      44.486 -14.829   7.072  1.00  0.00    -0.327 N 
HETATM   21  C   UNL     1      44.328 -13.492   7.395  1.00  0.00     0.227 C 
HETATM   22  O   UNL     1      43.376 -12.775   7.087  1.00  0.00    -0.273 OA
HETATM   23  H   UNL     1      45.357 -15.265   7.350  1.00  0.00     0.169 HD
BRANCH  21  24
HETATM   24  C   UNL     1      45.508 -12.915   8.176  1.00  0.00     0.159 C 
BRANCH  24  25
HETATM   25  C   UNL     1      45.029 -12.170   9.381  1.00  0.00     0.017 A 
HETATM   26  N   UNL     1      43.986 -12.632  10.154  1.00  0.00    -0.369 N 
HETATM   27  H   UNL     1      43.454 -13.476   9.964  1.00  0.00     0.165 HD
HETATM   28  C   UNL     1      43.759 -11.762  11.188  1.00  0.00     0.088 A 
HETATM   29  C   UNL     1      44.677 -10.741  11.093  1.00  0.00     0.019 A 
HETATM   30  C   UNL     1      45.481 -10.998   9.956  1.00  0.00     0.027 A 
ENDBRANCH  24  25
ENDBRANCH  21  24
ENDBRANCH   5  20
TORSDOF 6
ENDMDL
MODEL 8
REMARK VINA RESULT:      -7.6      2.999      5.216
REMARK  6 active torsions:
REMARK  status: ('A' for Active; 'I' for Inactive)
REMARK    1  A    between atoms: C_3  and  N_4 
REMARK       I    between atoms: N_4  and  C_5 
REMARK       I    between atoms: C_5  and  N_6 
REMARK    2  A    between atoms: N_6  and  C_7 
REMARK    3  A    between atoms: C_7  and  C_8 
REMARK    4  A    between atoms: C_16  and  N_17 
REMARK       I    between atoms: N_17  and  C_18 
REMARK    5  A    between atoms: C_18  and  C_19 
REMARK    6  A    between atoms: C_19  and  C_20 
ROOT
HETATM    1  C   UNL     1      39.289 -12.426   3.552  1.00  0.00     0.004 A 
HETATM    2  C   UNL     1      39.112 -12.096   4.895  1.00  0.00     0.029 A 
HETATM    3  C   UNL     1      39.417 -13.021   5.893  1.00  0.00     0.038 A 
HETATM    4  C   UNL     1      39.911 -14.283   5.524  1.00  0.00     0.059 A 
HETATM    5  C   UNL     1      40.096 -14.624   4.181  1.00  0.00     0.036 A 
HETATM    6  C   UNL     1      39.779 -13.683   3.196  1.00  0.00     0.029 A 
ENDROOT
BRANCH   3   7
HETATM    7  N   UNL     1      39.277 -12.764   7.273  1.00  0.00    -0.309 N 
HETATM    8  C   UNL     1      39.580 -11.600   7.944  1.00  0.00     0.320 C 
HETATM    9  N   UNL     1      39.397 -11.748   9.303  1.00  0.00    -0.339 N 
HETATM   10  O   UNL     1      39.956 -10.548   7.447  1.00  0.00    -0.247 OA
HETATM   11  H   UNL     1      39.416 -12.681   9.685  1.00  0.00     0.164 HD
HETATM   12  H   UNL     1      38.794 -13.468   7.812  1.00  0.00     0.170 HD
BRANCH   9  13
HETATM   13  C   UNL     1      39.665 -10.659  10.217  1.00  0.00     0.163 C 
BRANCH  13  14
HETATM   14  C   UNL     1      41.008 -10.751  10.901  1.00  0.00    -0.038 A 
HETATM   15  C   UNL     1      42.206 -10.418  10.261  1.00  0.00     0.028 A 
HETATM   16  C   UNL     1      43.392 -10.491  10.979  1.00  0.00     0.116 A 
HETATM   17  N   UNL     1      43.464 -10.854  12.277  1.00  0.00    -0.273 NA
HETATM   18  C   UNL     1      42.298 -11.143  12.888  1.00  0.00     0.116 A 
HETATM   19  C   UNL     1      41.065 -11.105  12.254  1.00  0.00     0.028 A 
ENDBRANCH  13  14
ENDBRANCH   9  13
ENDBRANCH   3   7
BRANCH   5  20
HETATM   20  N   UNL     1      40.591 -15.871   3.742  1.00  0.00    -0.327 N 
HETATM   21  C   UNL     1      41.869 -16.377   3.906  1.00  0.00     0.227 C 
HETATM   22  O   UNL     1      42.812 -15.809   4.458  1.00  0.00    -0.273 OA
HETATM   23  H   UNL     1      39.941 -16.438   3.211  1.00  0.00     0.169 HD
BRANCH  21  24
HETATM   24  C   UNL     1      42.058 -17.758   3.281  1.00  0.00     0.159 C 
BRANCH  24  25
HETATM   25  C   UNL     1      43.061 -18.553   4.055  1.00  0.00     0.017 A 
HETATM   26  N   UNL     1      43.026 -18.628   5.430  1.00  0.00    -0.369 N 
HETATM   27  H   UNL     1      42.354 -18.144   6.019  1.00  0.00     0.165 HD
HETATM   28  C   UNL     1      44.051 -19.419   5.875  1.00  0.00     0.088 A 
HETATM   29  C   UNL     1      44.742 -19.877   4.776  1.00  0.00     0.019 A 
HETATM   30  C   UNL     1      44.117 -19.335   3.627  1.00  0.00     0.027 A 
ENDBRANCH  24  25
ENDBRANCH  21  24
ENDBRANCH   5  20
TORSDOF 6
ENDMDL
MODEL 9
REMARK VINA RESULT:      -7.5      1.644      2.122
REMARK  6 active torsions:
REMARK  status: ('A' for Active; 'I' for Inactive)
REMARK    1  A    between atoms: C_3  and  N_4 
REMARK       I    between atoms: N_4  and  C_5 
REMARK       I    between atoms: C_5  and  N_6 
REMARK    2  A    between atoms: N_6  and  C_7 
REMARK    3  A    between atoms: C_7  and  C_8 
REMARK    4  A    between atoms: C_16  and  N_17 
REMARK       I    between atoms: N_17  and  C_18 
REMARK    5  A    between atoms: C_18  and  C_19 
REMARK    6  A    between atoms: C_19  and  C_20 
ROOT
HETATM    1  C   UNL     1      43.458 -18.018   4.335  1.00  0.00     0.004 A 
HETATM    2  C   UNL     1      43.774 -17.310   5.494  1.00  0.00     0.029 A 
HETATM    3  C   UNL     1      43.206 -16.059   5.732  1.00  0.00     0.038 A 
HETATM    4  C   UNL     1      42.308 -15.529   4.791  1.00  0.00     0.059 A 
HETATM    5  C   UNL     1      41.980 -16.231   3.627  1.00  0.00     0.036 A 
HETATM    6  C   UNL     1      42.566 -17.482   3.406  1.00  0.00     0.029 A 
ENDROOT
BRANCH   3   7
HETATM    7  N   UNL     1      43.464 -15.284   6.882  1.00  0.00    -0.309 N 
HETATM    8  C   UNL     1      44.252 -14.158   6.975  1.00  0.00     0.320 C 
HETATM    9  N   UNL     1      44.341 -13.721   8.280  1.00  0.00    -0.339 N 
HETATM   10  O   UNL     1      44.813 -13.581   6.054  1.00  0.00    -0.247 OA
HETATM   11  H   UNL     1      44.158 -14.385   9.017  1.00  0.00     0.164 HD
HETATM   12  H   UNL     1      42.921 -15.509   7.702  1.00  0.00     0.170 HD
BRANCH   9  13
HETATM   13  C   UNL     1      45.128 -12.557   8.628  1.00  0.00     0.163 C 
BRANCH  13  14
HETATM   14  C   UNL     1      44.393 -11.560   9.490  1.00  0.00    -0.038 A 
HETATM   15  C   UNL     1      43.165 -11.002   9.121  1.00  0.00     0.028 A 
HETATM   16  C   UNL     1      42.537 -10.125   9.994  1.00  0.00     0.116 A 
HETATM   17  N   UNL     1      43.034  -9.781  11.201  1.00  0.00    -0.273 NA
HETATM   18  C   UNL     1      44.204 -10.350  11.556  1.00  0.00     0.116 A 
HETATM   19  C   UNL     1      44.908 -11.231  10.750  1.00  0.00     0.028 A 
ENDBRANCH  13  14
ENDBRANCH   9  13
ENDBRANCH   3   7
BRANCH   5  20
HETATM   20  N   UNL     1      41.085 -15.759   2.644  1.00  0.00    -0.327 N 
HETATM   21  C   UNL     1      41.377 -15.399   1.339  1.00  0.00     0.227 C 
HETATM   22  O   UNL     1      42.489 -15.415   0.810  1.00  0.00    -0.273 OA
HETATM   23  H   UNL     1      40.127 -15.633   2.947  1.00  0.00     0.169 HD
BRANCH  21  24
HETATM   24  C   UNL     1      40.158 -14.910   0.559  1.00  0.00     0.159 C 
BRANCH  24  25
HETATM   25  C   UNL     1      40.472 -14.808  -0.900  1.00  0.00     0.017 A 
HETATM   26  N   UNL     1      40.743 -15.922  -1.665  1.00  0.00    -0.369 N 
HETATM   27  H   UNL     1      40.778 -16.874  -1.310  1.00  0.00     0.165 HD
HETATM   28  C   UNL     1      40.993 -15.543  -2.957  1.00  0.00     0.088 A 
HETATM   29  C   UNL     1      40.861 -14.174  -3.032  1.00  0.00     0.019 A 
HETATM   30  C   UNL     1      40.529 -13.710  -1.736  1.00  0.00     0.027 A 
ENDBRANCH  24  25
ENDBRANCH  21  24
ENDBRANCH   5  20
TORSDOF 6
ENDMDL
MODEL 10
REMARK VINA RESULT:      -7.5      1.635      2.366
REMARK  6 active torsions:
REMARK  status: ('A' for Active; 'I' for Inactive)
REMARK    1  A    between atoms: C_3  and  N_4 
REMARK       I    between atoms: N_4  and  C_5 
REMARK       I    between atoms: C_5  and  N_6 
REMARK    2  A    between atoms: N_6  and  C_7 
REMARK    3  A    between atoms: C_7  and  C_8 
REMARK    4  A    between atoms: C_16  and  N_17 
REMARK       I    between atoms: N_17  and  C_18 
REMARK    5  A    between atoms: C_18  and  C_19 
REMARK    6  A    between atoms: C_19  and  C_20 
ROOT
HETATM    1  C   UNL     1      43.243 -18.133   4.291  1.00  0.00     0.004 A 
HETATM    2  C   UNL     1      43.690 -17.407   5.395  1.00  0.00     0.029 A 
HETATM    3  C   UNL     1      43.007 -16.263   5.809  1.00  0.00     0.038 A 
HETATM    4  C   UNL     1      41.862 -15.862   5.103  1.00  0.00     0.059 A 
HETATM    5  C   UNL     1      41.402 -16.584   3.997  1.00  0.00     0.036 A 
HETATM    6  C   UNL     1      42.105 -17.724   3.596  1.00  0.00     0.029 A 
ENDROOT
BRANCH   3   7
HETATM    7  N   UNL     1      43.387 -15.480   6.919  1.00  0.00    -0.309 N 
HETATM    8  C   UNL     1      44.077 -14.288   6.907  1.00  0.00     0.320 C 
HETATM    9  N   UNL     1      44.346 -13.859   8.190  1.00  0.00    -0.339 N 
HETATM   10  O   UNL     1      44.421 -13.653   5.921  1.00  0.00    -0.247 OA
HETATM   11  H   UNL     1      44.349 -14.544   8.930  1.00  0.00     0.164 HD
HETATM   12  H   UNL     1      43.012 -15.762   7.813  1.00  0.00     0.170 HD
BRANCH   9  13
HETATM   13  C   UNL     1      45.075 -12.631   8.431  1.00  0.00     0.163 C 
BRANCH  13  14
HETATM   14  C   UNL     1      44.412 -11.715   9.430  1.00  0.00    -0.038 A 
HETATM   15  C   UNL     1      44.981 -11.411  10.671  1.00  0.00     0.028 A 
HETATM   16  C   UNL     1      44.324 -10.523  11.511  1.00  0.00     0.116 A 
HETATM   17  N   UNL     1      43.161  -9.913  11.199  1.00  0.00    -0.273 NA
HETATM   18  C   UNL     1      42.640 -10.193   9.987  1.00  0.00     0.116 A 
HETATM   19  C   UNL     1      43.219 -11.070   9.083  1.00  0.00     0.028 A 
ENDBRANCH  13  14
ENDBRANCH   9  13
ENDBRANCH   3   7
BRANCH   5  20
HETATM   20  N   UNL     1      40.258 -16.237   3.246  1.00  0.00    -0.327 N 
HETATM   21  C   UNL     1      40.155 -15.267   2.264  1.00  0.00     0.227 C 
HETATM   22  O   UNL     1      41.055 -14.517   1.884  1.00  0.00    -0.273 OA
HETATM   23  H   UNL     1      39.408 -16.733   3.487  1.00  0.00     0.169 HD
BRANCH  21  24
HETATM   24  C   UNL     1      38.751 -15.151   1.673  1.00  0.00     0.159 C 
BRANCH  24  25
HETATM   25  C   UNL     1      38.344 -13.716   1.561  1.00  0.00     0.017 A 
HETATM   26  N   UNL     1      38.847 -12.749   2.405  1.00  0.00    -0.369 N 
HETATM   27  H   UNL     1      39.496 -12.926   3.166  1.00  0.00     0.165 HD
HETATM   28  C   UNL     1      38.311 -11.531   2.081  1.00  0.00     0.088 A 
HETATM   29  C   UNL     1      37.470 -11.710   1.005  1.00  0.00     0.019 A 
HETATM   30  C   UNL     1      37.492 -13.086   0.674  1.00  0.00     0.027 A 
ENDBRANCH  24  25
ENDBRANCH  21  24
ENDBRANCH   5  20
TORSDOF 6
ENDMDL
