MODEL 1
REMARK VINA RESULT:      -8.3      0.000      0.000
REMARK  8 active torsions:
REMARK  status: ('A' for Active; 'I' for Inactive)
REMARK    1  A    between atoms: C_2  and  C_3 
REMARK    2  A    between atoms: C_3  and  N_4 
REMARK    3  A    between atoms: C_7  and  C_8 
REMARK       I    between atoms: C_8  and  N_9 
REMARK    4  A    between atoms: N_9  and  N_10 
REMARK       I    between atoms: N_10  and  C_11 
REMARK    5  A    between atoms: C_11  and  C_12 
REMARK    6  A    between atoms: C_12  and  O_13 
REMARK    7  A    between atoms: O_13  and  C_14 
REMARK    8  A    between atoms: C_23  and  C_24 
ROOT
HETATM    1  C   UNL     1      41.057 -15.467   4.274  1.00  0.00     0.273 C 
HETATM    2  N   UNL     1      41.339 -14.556   5.287  1.00  0.00    -0.263 N 
HETATM    3  O   UNL     1      40.203 -15.183   3.438  1.00  0.00    -0.266 OA
HETATM    4  H   UNL     1      40.993 -13.618   5.108  1.00  0.00     0.190 HD
ENDROOT
BRANCH   2   5
HETATM    5  N   UNL     1      42.444 -14.676   6.142  1.00  0.00    -0.265 N 
HETATM    6  C   UNL     1      43.678 -14.165   5.769  1.00  0.00     0.260 C 
HETATM    7  O   UNL     1      43.871 -13.518   4.743  1.00  0.00    -0.269 OA
HETATM    8  H   UNL     1      42.303 -15.098   7.055  1.00  0.00     0.190 HD
BRANCH   6   9
HETATM    9  C   UNL     1      44.795 -14.561   6.725  1.00  0.00     0.280 C 
BRANCH   9  10
HETATM   10  O   UNL     1      44.390 -14.241   8.056  1.00  0.00    -0.342 OA
BRANCH  10  11
HETATM   11  C   UNL     1      44.955 -13.092   8.543  1.00  0.00     0.069 A 
HETATM   12  C   UNL     1      44.321 -12.512   9.645  1.00  0.00     0.043 A 
HETATM   13  C   UNL     1      44.833 -11.345  10.230  1.00  0.00    -0.059 A 
HETATM   14  C   UNL     1      44.158 -10.714  11.412  1.00  0.00     0.048 C 
HETATM   15  C   UNL     1      46.011 -10.789   9.720  1.00  0.00     0.007 A 
HETATM   16  C   UNL     1      46.658 -11.381   8.634  1.00  0.00     0.003 A 
HETATM   17  C   UNL     1      46.132 -12.532   8.045  1.00  0.00     0.037 A 
ENDBRANCH  10  11
ENDBRANCH   9  10
ENDBRANCH   6   9
ENDBRANCH   2   5
BRANCH   1  18
HETATM   18  C   UNL     1      41.775 -16.733   4.291  1.00  0.00     0.077 A 
HETATM   19  C   UNL     1      41.633 -17.747   5.269  1.00  0.00     0.158 A 
HETATM   20  N   UNL     1      42.500 -18.744   5.124  1.00  0.00    -0.183 NA
HETATM   21  N   UNL     1      43.150 -18.438   3.982  1.00  0.00    -0.268 N 
HETATM   22  C   UNL     1      42.756 -17.229   3.439  1.00  0.00     0.052 A 
BRANCH  21  23
HETATM   23  C   UNL     1      44.224 -19.314   3.509  1.00  0.00     0.106 C 
HETATM   24  C   UNL     1      44.876 -20.021   4.702  1.00  0.00     0.034 C 
BRANCH  23  25
HETATM   25  C   UNL     1      43.785 -20.354   2.455  1.00  0.00     0.022 C 
HETATM   26  C   UNL     1      44.407 -21.727   2.672  1.00  0.00     0.007 C 
ENDBRANCH  23  25
ENDBRANCH  21  23
BRANCH  22  27
HETATM   27  C   UNL     1      43.398 -16.612   2.192  1.00  0.00     0.038 A 
HETATM   28  C   UNL     1      43.525 -17.412   0.918  1.00  0.00     0.011 A 
HETATM   29  C   UNL     1      42.560 -16.273   0.982  1.00  0.00     0.011 A 
ENDBRANCH  22  27
ENDBRANCH   1  18
TORSDOF 8
ENDMDL
MODEL 2
REMARK VINA RESULT:      -8.3      3.135      5.868
REMARK  8 active torsions:
REMARK  status: ('A' for Active; 'I' for Inactive)
REMARK    1  A    between atoms: C_2  and  C_3 
REMARK    2  A    between atoms: C_3  and  N_4 
REMARK    3  A    between atoms: C_7  and  C_8 
REMARK       I    between atoms: C_8  and  N_9 
REMARK    4  A    between atoms: N_9  and  N_10 
REMARK       I    between atoms: N_10  and  C_11 
REMARK    5  A    between atoms: C_11  and  C_12 
REMARK    6  A    between atoms: C_12  and  O_13 
REMARK    7  A    between atoms: O_13  and  C_14 
REMARK    8  A    between atoms: C_23  and  C_24 
ROOT
HETATM    1  C   UNL     1      43.603 -16.793   7.488  1.00  0.00     0.273 C 
HETATM    2  N   UNL     1      43.810 -15.437   7.255  1.00  0.00    -0.263 N 
HETATM    3  O   UNL     1      43.172 -17.151   8.581  1.00  0.00    -0.266 OA
HETATM    4  H   UNL     1      43.346 -14.827   7.923  1.00  0.00     0.190 HD
ENDROOT
BRANCH   2   5
HETATM    5  N   UNL     1      44.071 -14.906   5.984  1.00  0.00    -0.265 N 
HETATM    6  C   UNL     1      43.190 -14.005   5.404  1.00  0.00     0.260 C 
HETATM    7  O   UNL     1      42.200 -13.553   5.973  1.00  0.00    -0.269 OA
HETATM    8  H   UNL     1      44.942 -15.160   5.526  1.00  0.00     0.190 HD
BRANCH   6   9
HETATM    9  C   UNL     1      43.533 -13.694   3.954  1.00  0.00     0.280 C 
BRANCH   9  10
HETATM   10  O   UNL     1      42.467 -12.933   3.387  1.00  0.00    -0.342 OA
BRANCH  10  11
HETATM   11  C   UNL     1      42.214 -13.231   2.074  1.00  0.00     0.069 A 
HETATM   12  C   UNL     1      42.037 -14.583   1.771  1.00  0.00     0.043 A 
HETATM   13  C   UNL     1      41.754 -14.990   0.460  1.00  0.00    -0.059 A 
HETATM   14  C   UNL     1      41.564 -16.440   0.125  1.00  0.00     0.048 C 
HETATM   15  C   UNL     1      41.613 -14.018  -0.538  1.00  0.00     0.007 A 
HETATM   16  C   UNL     1      41.767 -12.666  -0.232  1.00  0.00     0.003 A 
HETATM   17  C   UNL     1      42.067 -12.270   1.073  1.00  0.00     0.037 A 
ENDBRANCH  10  11
ENDBRANCH   9  10
ENDBRANCH   6   9
ENDBRANCH   2   5
BRANCH   1  18
HETATM   18  C   UNL     1      43.954 -17.718   6.419  1.00  0.00     0.077 A 
HETATM   19  C   UNL     1      45.246 -18.242   6.176  1.00  0.00     0.158 A 
HETATM   20  N   UNL     1      45.321 -18.960   5.060  1.00  0.00    -0.183 NA
HETATM   21  N   UNL     1      44.048 -18.996   4.618  1.00  0.00    -0.268 N 
HETATM   22  C   UNL     1      43.179 -18.256   5.398  1.00  0.00     0.052 A 
BRANCH  21  23
HETATM   23  C   UNL     1      43.740 -19.691   3.365  1.00  0.00     0.106 C 
HETATM   24  C   UNL     1      43.899 -18.724   2.187  1.00  0.00     0.034 C 
BRANCH  23  25
HETATM   25  C   UNL     1      44.576 -20.965   3.118  1.00  0.00     0.022 C 
HETATM   26  C   UNL     1      44.065 -21.801   1.951  1.00  0.00     0.007 C 
ENDBRANCH  23  25
ENDBRANCH  21  23
BRANCH  22  27
HETATM   27  C   UNL     1      41.694 -18.065   5.066  1.00  0.00     0.038 A 
HETATM   28  C   UNL     1      40.908 -16.935   5.684  1.00  0.00     0.011 A 
HETATM   29  C   UNL     1      41.237 -16.896   4.228  1.00  0.00     0.011 A 
ENDBRANCH  22  27
ENDBRANCH   1  18
TORSDOF 8
ENDMDL
MODEL 3
REMARK VINA RESULT:      -8.2      2.178      7.680
REMARK  8 active torsions:
REMARK  status: ('A' for Active; 'I' for Inactive)
REMARK    1  A    between atoms: C_2  and  C_3 
REMARK    2  A    between atoms: C_3  and  N_4 
REMARK    3  A    between atoms: C_7  and  C_8 
REMARK       I    between atoms: C_8  and  N_9 
REMARK    4  A    between atoms: N_9  and  N_10 
REMARK       I    between atoms: N_10  and  C_11 
REMARK    5  A    between atoms: C_11  and  C_12 
REMARK    6  A    between atoms: C_12  and  O_13 
REMARK    7  A    between atoms: O_13  and  C_14 
REMARK    8  A    between atoms: C_23  and  C_24 
ROOT
HETATM    1  C   UNL     1      40.877 -16.794   5.810  1.00  0.00     0.273 C 
HETATM    2  N   UNL     1      40.971 -17.439   4.581  1.00  0.00    -0.263 N 
HETATM    3  O   UNL     1      39.961 -17.095   6.572  1.00  0.00    -0.266 OA
HETATM    4  H   UNL     1      40.420 -18.291   4.516  1.00  0.00     0.190 HD
ENDROOT
BRANCH   2   5
HETATM    5  N   UNL     1      42.095 -17.343   3.747  1.00  0.00    -0.265 N 
HETATM    6  C   UNL     1      41.971 -17.532   2.379  1.00  0.00     0.260 C 
HETATM    7  O   UNL     1      40.899 -17.702   1.804  1.00  0.00    -0.269 OA
HETATM    8  H   UNL     1      42.983 -17.084   4.165  1.00  0.00     0.190 HD
BRANCH   6   9
HETATM    9  C   UNL     1      43.316 -17.588   1.666  1.00  0.00     0.280 C 
BRANCH   9  10
HETATM   10  O   UNL     1      44.287 -18.120   2.567  1.00  0.00    -0.342 OA
BRANCH  10  11
HETATM   11  C   UNL     1      44.302 -19.489   2.614  1.00  0.00     0.069 A 
HETATM   12  C   UNL     1      44.632 -20.059   3.847  1.00  0.00     0.043 A 
HETATM   13  C   UNL     1      44.656 -21.452   4.004  1.00  0.00    -0.059 A 
HETATM   14  C   UNL     1      45.011 -22.074   5.324  1.00  0.00     0.048 C 
HETATM   15  C   UNL     1      44.308 -22.265   2.920  1.00  0.00     0.007 A 
HETATM   16  C   UNL     1      43.955 -21.696   1.696  1.00  0.00     0.003 A 
HETATM   17  C   UNL     1      43.951 -20.309   1.542  1.00  0.00     0.037 A 
ENDBRANCH  10  11
ENDBRANCH   9  10
ENDBRANCH   6   9
ENDBRANCH   2   5
BRANCH   1  18
HETATM   18  C   UNL     1      41.860 -15.761   6.103  1.00  0.00     0.077 A 
HETATM   19  C   UNL     1      41.806 -14.422   5.650  1.00  0.00     0.158 A 
HETATM   20  N   UNL     1      42.894 -13.720   5.950  1.00  0.00    -0.183 NA
HETATM   21  N   UNL     1      43.627 -14.572   6.695  1.00  0.00    -0.268 N 
HETATM   22  C   UNL     1      43.053 -15.824   6.815  1.00  0.00     0.052 A 
BRANCH  21  23
HETATM   23  C   UNL     1      44.939 -14.148   7.192  1.00  0.00     0.106 C 
HETATM   24  C   UNL     1      45.817 -13.705   6.017  1.00  0.00     0.034 C 
BRANCH  23  25
HETATM   25  C   UNL     1      44.889 -13.036   8.262  1.00  0.00     0.022 C 
HETATM   26  C   UNL     1      46.189 -12.248   8.369  1.00  0.00     0.007 C 
ENDBRANCH  23  25
ENDBRANCH  21  23
BRANCH  22  27
HETATM   27  C   UNL     1      43.722 -16.998   7.539  1.00  0.00     0.038 A 
HETATM   28  C   UNL     1      43.419 -18.421   7.138  1.00  0.00     0.011 A 
HETATM   29  C   UNL     1      44.763 -17.840   6.842  1.00  0.00     0.011 A 
ENDBRANCH  22  27
ENDBRANCH   1  18
TORSDOF 8
ENDMDL
MODEL 4
REMARK VINA RESULT:      -8.1      3.707      6.898
REMARK  8 active torsions:
REMARK  status: ('A' for Active; 'I' for Inactive)
REMARK    1  A    between atoms: C_2  and  C_3 
REMARK    2  A    between atoms: C_3  and  N_4 
REMARK    3  A    between atoms: C_7  and  C_8 
REMARK       I    between atoms: C_8  and  N_9 
REMARK    4  A    between atoms: N_9  and  N_10 
REMARK       I    between atoms: N_10  and  C_11 
REMARK    5  A    between atoms: C_11  and  C_12 
REMARK    6  A    between atoms: C_12  and  O_13 
REMARK    7  A    between atoms: O_13  and  C_14 
REMARK    8  A    between atoms: C_23  and  C_24 
ROOT
HETATM    1  C   UNL     1      39.861 -13.838   4.685  1.00  0.00     0.273 C 
HETATM    2  N   UNL     1      39.883 -14.860   5.630  1.00  0.00    -0.263 N 
HETATM    3  O   UNL     1      39.647 -12.687   5.058  1.00  0.00    -0.266 OA
HETATM    4  H   UNL     1      39.971 -14.536   6.589  1.00  0.00     0.190 HD
ENDROOT
BRANCH   2   5
HETATM    5  N   UNL     1      40.344 -16.154   5.350  1.00  0.00    -0.265 N 
HETATM    6  C   UNL     1      41.564 -16.587   5.849  1.00  0.00     0.260 C 
HETATM    7  O   UNL     1      42.264 -15.930   6.614  1.00  0.00    -0.269 OA
HETATM    8  H   UNL     1      39.741 -16.776   4.820  1.00  0.00     0.190 HD
BRANCH   6   9
HETATM    9  C   UNL     1      41.989 -17.935   5.282  1.00  0.00     0.280 C 
BRANCH   9  10
HETATM   10  O   UNL     1      43.124 -17.739   4.441  1.00  0.00    -0.342 OA
BRANCH  10  11
HETATM   11  C   UNL     1      43.553 -18.881   3.817  1.00  0.00     0.069 A 
HETATM   12  C   UNL     1      44.123 -19.856   4.640  1.00  0.00     0.043 A 
HETATM   13  C   UNL     1      44.575 -21.069   4.102  1.00  0.00    -0.059 A 
HETATM   14  C   UNL     1      45.189 -22.121   4.977  1.00  0.00     0.048 C 
HETATM   15  C   UNL     1      44.412 -21.308   2.733  1.00  0.00     0.007 A 
HETATM   16  C   UNL     1      43.821 -20.345   1.914  1.00  0.00     0.003 A 
HETATM   17  C   UNL     1      43.391 -19.131   2.455  1.00  0.00     0.037 A 
ENDBRANCH  10  11
ENDBRANCH   9  10
ENDBRANCH   6   9
ENDBRANCH   2   5
BRANCH   1  18
HETATM   18  C   UNL     1      40.057 -14.209   3.291  1.00  0.00     0.077 A 
HETATM   19  C   UNL     1      39.083 -14.798   2.451  1.00  0.00     0.158 A 
HETATM   20  N   UNL     1      39.558 -15.157   1.263  1.00  0.00    -0.183 NA
HETATM   21  N   UNL     1      40.830 -14.708   1.280  1.00  0.00    -0.268 N 
HETATM   22  C   UNL     1      41.188 -14.132   2.485  1.00  0.00     0.052 A 
BRANCH  21  23
HETATM   23  C   UNL     1      41.696 -14.954   0.124  1.00  0.00     0.106 C 
HETATM   24  C   UNL     1      41.837 -16.463  -0.102  1.00  0.00     0.034 C 
BRANCH  23  25
HETATM   25  C   UNL     1      41.234 -14.266  -1.179  1.00  0.00     0.022 C 
HETATM   26  C   UNL     1      40.950 -15.248  -2.308  1.00  0.00     0.007 C 
ENDBRANCH  23  25
ENDBRANCH  21  23
BRANCH  22  27
HETATM   27  C   UNL     1      42.600 -13.620   2.793  1.00  0.00     0.038 A 
HETATM   28  C   UNL     1      43.114 -13.591   4.212  1.00  0.00     0.011 A 
HETATM   29  C   UNL     1      43.684 -14.571   3.240  1.00  0.00     0.011 A 
ENDBRANCH  22  27
ENDBRANCH   1  18
TORSDOF 8
ENDMDL
MODEL 5
REMARK VINA RESULT:      -8.1      2.865      6.751
REMARK  8 active torsions:
REMARK  status: ('A' for Active; 'I' for Inactive)
REMARK    1  A    between atoms: C_2  and  C_3 
REMARK    2  A    between atoms: C_3  and  N_4 
REMARK    3  A    between atoms: C_7  and  C_8 
REMARK       I    between atoms: C_8  and  N_9 
REMARK    4  A    between atoms: N_9  and  N_10 
REMARK       I    between atoms: N_10  and  C_11 
REMARK    5  A    between atoms: C_11  and  C_12 
REMARK    6  A    between atoms: C_12  and  O_13 
REMARK    7  A    between atoms: O_13  and  C_14 
REMARK    8  A    between atoms: C_23  and  C_24 
ROOT
HETATM    1  C   UNL     1      39.802 -14.350   4.593  1.00  0.00     0.273 C 
HETATM    2  N   UNL     1      39.518 -14.735   3.285  1.00  0.00    -0.263 N 
HETATM    3  O   UNL     1      39.170 -13.422   5.090  1.00  0.00    -0.266 OA
HETATM    4  H   UNL     1      38.633 -14.381   2.932  1.00  0.00     0.190 HD
ENDROOT
BRANCH   2   5
HETATM    5  N   UNL     1      40.006 -15.916   2.709  1.00  0.00    -0.265 N 
HETATM    6  C   UNL     1      40.709 -15.875   1.514  1.00  0.00     0.260 C 
HETATM    7  O   UNL     1      41.022 -14.837   0.938  1.00  0.00    -0.269 OA
HETATM    8  H   UNL     1      39.875 -16.788   3.213  1.00  0.00     0.190 HD
BRANCH   6   9
HETATM    9  C   UNL     1      40.984 -17.260   0.943  1.00  0.00     0.280 C 
BRANCH   9  10
HETATM   10  O   UNL     1      42.394 -17.422   0.800  1.00  0.00    -0.342 OA
BRANCH  10  11
HETATM   11  C   UNL     1      42.966 -18.175   1.791  1.00  0.00     0.069 A 
HETATM   12  C   UNL     1      43.282 -19.495   1.459  1.00  0.00     0.043 A 
HETATM   13  C   UNL     1      43.888 -20.342   2.397  1.00  0.00    -0.059 A 
HETATM   14  C   UNL     1      44.230 -21.761   2.050  1.00  0.00     0.048 C 
HETATM   15  C   UNL     1      44.210 -19.836   3.662  1.00  0.00     0.007 A 
HETATM   16  C   UNL     1      43.916 -18.511   3.987  1.00  0.00     0.003 A 
HETATM   17  C   UNL     1      43.295 -17.680   3.053  1.00  0.00     0.037 A 
ENDBRANCH  10  11
ENDBRANCH   9  10
ENDBRANCH   6   9
ENDBRANCH   2   5
BRANCH   1  18
HETATM   18  C   UNL     1      40.871 -15.058   5.282  1.00  0.00     0.077 A 
HETATM   19  C   UNL     1      40.701 -16.163   6.149  1.00  0.00     0.158 A 
HETATM   20  N   UNL     1      41.825 -16.539   6.751  1.00  0.00    -0.183 NA
HETATM   21  N   UNL     1      42.763 -15.742   6.199  1.00  0.00    -0.268 N 
HETATM   22  C   UNL     1      42.241 -14.822   5.309  1.00  0.00     0.052 A 
BRANCH  21  23
HETATM   23  C   UNL     1      44.153 -15.850   6.649  1.00  0.00     0.106 C 
HETATM   24  C   UNL     1      44.524 -14.616   7.478  1.00  0.00     0.034 C 
BRANCH  23  25
HETATM   25  C   UNL     1      44.471 -17.136   7.444  1.00  0.00     0.022 C 
HETATM   26  C   UNL     1      45.478 -18.040   6.744  1.00  0.00     0.007 C 
ENDBRANCH  23  25
ENDBRANCH  21  23
BRANCH  22  27
HETATM   27  C   UNL     1      43.082 -13.748   4.610  1.00  0.00     0.038 A 
HETATM   28  C   UNL     1      43.726 -14.025   3.273  1.00  0.00     0.011 A 
HETATM   29  C   UNL     1      42.580 -13.070   3.358  1.00  0.00     0.011 A 
ENDBRANCH  22  27
ENDBRANCH   1  18
TORSDOF 8
ENDMDL
MODEL 6
REMARK VINA RESULT:      -8.0      3.088      7.044
REMARK  8 active torsions:
REMARK  status: ('A' for Active; 'I' for Inactive)
REMARK    1  A    between atoms: C_2  and  C_3 
REMARK    2  A    between atoms: C_3  and  N_4 
REMARK    3  A    between atoms: C_7  and  C_8 
REMARK       I    between atoms: C_8  and  N_9 
REMARK    4  A    between atoms: N_9  and  N_10 
REMARK       I    between atoms: N_10  and  C_11 
REMARK    5  A    between atoms: C_11  and  C_12 
REMARK    6  A    between atoms: C_12  and  O_13 
REMARK    7  A    between atoms: O_13  and  C_14 
REMARK    8  A    between atoms: C_23  and  C_24 
ROOT
HETATM    1  C   UNL     1      43.062 -13.950   6.192  1.00  0.00     0.273 C 
HETATM    2  N   UNL     1      43.158 -15.078   7.001  1.00  0.00    -0.263 N 
HETATM    3  O   UNL     1      43.310 -12.848   6.676  1.00  0.00    -0.266 OA
HETATM    4  H   UNL     1      43.673 -14.927   7.864  1.00  0.00     0.190 HD
ENDROOT
BRANCH   2   5
HETATM    5  N   UNL     1      43.127 -16.388   6.499  1.00  0.00    -0.265 N 
HETATM    6  C   UNL     1      43.330 -17.468   7.345  1.00  0.00     0.260 C 
HETATM    7  O   UNL     1      43.457 -17.371   8.563  1.00  0.00    -0.269 OA
HETATM    8  H   UNL     1      42.904 -16.522   5.517  1.00  0.00     0.190 HD
BRANCH   6   9
HETATM    9  C   UNL     1      43.459 -18.788   6.597  1.00  0.00     0.280 C 
BRANCH   9  10
HETATM   10  O   UNL     1      44.594 -18.714   5.736  1.00  0.00    -0.342 OA
BRANCH  10  11
HETATM   11  C   UNL     1      44.304 -18.951   4.418  1.00  0.00     0.069 A 
HETATM   12  C   UNL     1      44.500 -20.260   3.969  1.00  0.00     0.043 A 
HETATM   13  C   UNL     1      44.213 -20.609   2.642  1.00  0.00    -0.059 A 
HETATM   14  C   UNL     1      44.422 -22.011   2.150  1.00  0.00     0.048 C 
HETATM   15  C   UNL     1      43.689 -19.638   1.781  1.00  0.00     0.007 A 
HETATM   16  C   UNL     1      43.470 -18.337   2.235  1.00  0.00     0.003 A 
HETATM   17  C   UNL     1      43.776 -17.992   3.553  1.00  0.00     0.037 A 
ENDBRANCH  10  11
ENDBRANCH   9  10
ENDBRANCH   6   9
ENDBRANCH   2   5
BRANCH   1  18
HETATM   18  C   UNL     1      42.630 -14.145   4.816  1.00  0.00     0.077 A 
HETATM   19  C   UNL     1      43.484 -14.348   3.706  1.00  0.00     0.158 A 
HETATM   20  N   UNL     1      42.841 -14.368   2.543  1.00  0.00    -0.183 NA
HETATM   21  N   UNL     1      41.542 -14.282   2.896  1.00  0.00    -0.268 N 
HETATM   22  C   UNL     1      41.356 -14.139   4.258  1.00  0.00     0.052 A 
BRANCH  21  23
HETATM   23  C   UNL     1      40.514 -14.245   1.852  1.00  0.00     0.106 C 
HETATM   24  C   UNL     1      41.180 -14.156   0.476  1.00  0.00     0.034 C 
BRANCH  23  25
HETATM   25  C   UNL     1      39.526 -15.432   1.885  1.00  0.00     0.022 C 
HETATM   26  C   UNL     1      40.217 -16.784   2.007  1.00  0.00     0.007 C 
ENDBRANCH  23  25
ENDBRANCH  21  23
BRANCH  22  27
HETATM   27  C   UNL     1      39.983 -13.936   4.910  1.00  0.00     0.038 A 
HETATM   28  C   UNL     1      39.854 -13.181   6.210  1.00  0.00     0.011 A 
HETATM   29  C   UNL     1      39.342 -12.570   4.947  1.00  0.00     0.011 A 
ENDBRANCH  22  27
ENDBRANCH   1  18
TORSDOF 8
ENDMDL
MODEL 7
REMARK VINA RESULT:      -7.8      5.069      7.959
REMARK  8 active torsions:
REMARK  status: ('A' for Active; 'I' for Inactive)
REMARK    1  A    between atoms: C_2  and  C_3 
REMARK    2  A    between atoms: C_3  and  N_4 
REMARK    3  A    between atoms: C_7  and  C_8 
REMARK       I    between atoms: C_8  and  N_9 
REMARK    4  A    between atoms: N_9  and  N_10 
REMARK       I    between atoms: N_10  and  C_11 
REMARK    5  A    between atoms: C_11  and  C_12 
REMARK    6  A    between atoms: C_12  and  O_13 
REMARK    7  A    between atoms: O_13  and  C_14 
REMARK    8  A    between atoms: C_23  and  C_24 
ROOT
HETATM    1  C   UNL     1      39.954 -13.012   2.205  1.00  0.00     0.273 C 
HETATM    2  N   UNL     1      39.563 -13.977   3.128  1.00  0.00    -0.263 N 
HETATM    3  O   UNL     1      39.900 -11.826   2.524  1.00  0.00    -0.266 OA
HETATM    4  H   UNL     1      39.503 -13.636   4.084  1.00  0.00     0.190 HD
ENDROOT
BRANCH   2   5
HETATM    5  N   UNL     1      39.804 -15.348   2.955  1.00  0.00    -0.265 N 
HETATM    6  C   UNL     1      40.947 -15.931   3.480  1.00  0.00     0.260 C 
HETATM    7  O   UNL     1      41.760 -15.336   4.184  1.00  0.00    -0.269 OA
HETATM    8  H   UNL     1      39.098 -15.904   2.483  1.00  0.00     0.190 HD
BRANCH   6   9
HETATM    9  C   UNL     1      41.138 -17.372   3.025  1.00  0.00     0.280 C 
BRANCH   9  10
HETATM   10  O   UNL     1      42.417 -17.489   2.405  1.00  0.00    -0.342 OA
BRANCH  10  11
HETATM   11  C   UNL     1      43.170 -18.527   2.886  1.00  0.00     0.069 A 
HETATM   12  C   UNL     1      43.293 -19.639   2.049  1.00  0.00     0.043 A 
HETATM   13  C   UNL     1      44.059 -20.746   2.441  1.00  0.00    -0.059 A 
HETATM   14  C   UNL     1      44.196 -21.945   1.549  1.00  0.00     0.048 C 
HETATM   15  C   UNL     1      44.733 -20.707   3.667  1.00  0.00     0.007 A 
HETATM   16  C   UNL     1      44.630 -19.587   4.493  1.00  0.00     0.003 A 
HETATM   17  C   UNL     1      43.849 -18.496   4.103  1.00  0.00     0.037 A 
ENDBRANCH  10  11
ENDBRANCH   9  10
ENDBRANCH   6   9
ENDBRANCH   2   5
BRANCH   1  18
HETATM   18  C   UNL     1      40.372 -13.472   0.889  1.00  0.00     0.077 A 
HETATM   19  C   UNL     1      41.707 -13.709   0.485  1.00  0.00     0.158 A 
HETATM   20  N   UNL     1      41.823 -13.998  -0.807  1.00  0.00    -0.183 NA
HETATM   21  N   UNL     1      40.546 -14.054  -1.237  1.00  0.00    -0.268 N 
HETATM   22  C   UNL     1      39.626 -13.738  -0.255  1.00  0.00     0.052 A 
BRANCH  21  23
HETATM   23  C   UNL     1      40.274 -14.327  -2.651  1.00  0.00     0.106 C 
HETATM   24  C   UNL     1      41.240 -13.520  -3.526  1.00  0.00     0.034 C 
BRANCH  23  25
HETATM   25  C   UNL     1      40.333 -15.820  -3.038  1.00  0.00     0.022 C 
HETATM   26  C   UNL     1      39.219 -16.238  -3.989  1.00  0.00     0.007 C 
ENDBRANCH  23  25
ENDBRANCH  21  23
BRANCH  22  27
HETATM   27  C   UNL     1      38.117 -13.648  -0.505  1.00  0.00     0.038 A 
HETATM   28  C   UNL     1      37.268 -12.665   0.265  1.00  0.00     0.011 A 
HETATM   29  C   UNL     1      37.521 -12.441  -1.190  1.00  0.00     0.011 A 
ENDBRANCH  22  27
ENDBRANCH   1  18
TORSDOF 8
ENDMDL
MODEL 8
REMARK VINA RESULT:      -7.8      4.861      7.804
REMARK  8 active torsions:
REMARK  status: ('A' for Active; 'I' for Inactive)
REMARK    1  A    between atoms: C_2  and  C_3 
REMARK    2  A    between atoms: C_3  and  N_4 
REMARK    3  A    between atoms: C_7  and  C_8 
REMARK       I    between atoms: C_8  and  N_9 
REMARK    4  A    between atoms: N_9  and  N_10 
REMARK       I    between atoms: N_10  and  C_11 
REMARK    5  A    between atoms: C_11  and  C_12 
REMARK    6  A    between atoms: C_12  and  O_13 
REMARK    7  A    between atoms: O_13  and  C_14 
REMARK    8  A    between atoms: C_23  and  C_24 
ROOT
HETATM    1  C   UNL     1      39.771 -13.466   3.214  1.00  0.00     0.273 C 
HETATM    2  N   UNL     1      39.538 -14.796   3.554  1.00  0.00    -0.263 N 
HETATM    3  O   UNL     1      39.283 -12.580   3.910  1.00  0.00    -0.266 OA
HETATM    4  H   UNL     1      39.190 -14.927   4.500  1.00  0.00     0.190 HD
ENDROOT
BRANCH   2   5
HETATM    5  N   UNL     1      40.231 -15.869   2.976  1.00  0.00    -0.265 N 
HETATM    6  C   UNL     1      41.376 -16.370   3.576  1.00  0.00     0.260 C 
HETATM    7  O   UNL     1      41.805 -15.987   4.661  1.00  0.00    -0.269 OA
HETATM    8  H   UNL     1      39.844 -16.298   2.140  1.00  0.00     0.190 HD
BRANCH   6   9
HETATM    9  C   UNL     1      42.099 -17.392   2.709  1.00  0.00     0.280 C 
BRANCH   9  10
HETATM   10  O   UNL     1      43.469 -17.439   3.105  1.00  0.00    -0.342 OA
BRANCH  10  11
HETATM   11  C   UNL     1      43.900 -18.692   3.451  1.00  0.00     0.069 A 
HETATM   12  C   UNL     1      43.855 -19.660   2.445  1.00  0.00     0.043 A 
HETATM   13  C   UNL     1      44.293 -20.969   2.693  1.00  0.00    -0.059 A 
HETATM   14  C   UNL     1      44.247 -22.016   1.619  1.00  0.00     0.048 C 
HETATM   15  C   UNL     1      44.813 -21.284   3.953  1.00  0.00     0.007 A 
HETATM   16  C   UNL     1      44.881 -20.312   4.952  1.00  0.00     0.003 A 
HETATM   17  C   UNL     1      44.425 -19.016   4.702  1.00  0.00     0.037 A 
ENDBRANCH  10  11
ENDBRANCH   9  10
ENDBRANCH   6   9
ENDBRANCH   2   5
BRANCH   1  18
HETATM   18  C   UNL     1      40.557 -13.208   2.017  1.00  0.00     0.077 A 
HETATM   19  C   UNL     1      41.884 -12.716   1.994  1.00  0.00     0.158 A 
HETATM   20  N   UNL     1      42.324 -12.445   0.769  1.00  0.00    -0.183 NA
HETATM   21  N   UNL     1      41.319 -12.858  -0.030  1.00  0.00    -0.268 N 
HETATM   22  C   UNL     1      40.221 -13.322   0.672  1.00  0.00     0.052 A 
BRANCH  21  23
HETATM   23  C   UNL     1      41.435 -12.686  -1.480  1.00  0.00     0.106 C 
HETATM   24  C   UNL     1      42.625 -11.775  -1.797  1.00  0.00     0.034 C 
BRANCH  23  25
HETATM   25  C   UNL     1      41.555 -14.006  -2.272  1.00  0.00     0.022 C 
HETATM   26  C   UNL     1      40.629 -14.067  -3.480  1.00  0.00     0.007 C 
ENDBRANCH  23  25
ENDBRANCH  21  23
BRANCH  22  27
HETATM   27  C   UNL     1      38.917 -13.771   0.004  1.00  0.00     0.038 A 
HETATM   28  C   UNL     1      37.606 -13.691   0.749  1.00  0.00     0.011 A 
HETATM   29  C   UNL     1      37.866 -12.760  -0.390  1.00  0.00     0.011 A 
ENDBRANCH  22  27
ENDBRANCH   1  18
TORSDOF 8
ENDMDL
MODEL 9
REMARK VINA RESULT:      -7.7      5.237      8.155
REMARK  8 active torsions:
REMARK  status: ('A' for Active; 'I' for Inactive)
REMARK    1  A    between atoms: C_2  and  C_3 
REMARK    2  A    between atoms: C_3  and  N_4 
REMARK    3  A    between atoms: C_7  and  C_8 
REMARK       I    between atoms: C_8  and  N_9 
REMARK    4  A    between atoms: N_9  and  N_10 
REMARK       I    between atoms: N_10  and  C_11 
REMARK    5  A    between atoms: C_11  and  C_12 
REMARK    6  A    between atoms: C_12  and  O_13 
REMARK    7  A    between atoms: O_13  and  C_14 
REMARK    8  A    between atoms: C_23  and  C_24 
ROOT
HETATM    1  C   UNL     1      38.676 -13.723   1.519  1.00  0.00     0.273 C 
HETATM    2  N   UNL     1      38.723 -14.913   2.240  1.00  0.00    -0.263 N 
HETATM    3  O   UNL     1      38.198 -12.724   2.051  1.00  0.00    -0.266 OA
HETATM    4  H   UNL     1      38.587 -14.797   3.240  1.00  0.00     0.190 HD
ENDROOT
BRANCH   2   5
HETATM    5  N   UNL     1      39.451 -16.036   1.821  1.00  0.00    -0.265 N 
HETATM    6  C   UNL     1      40.619 -16.398   2.475  1.00  0.00     0.260 C 
HETATM    7  O   UNL     1      41.042 -15.840   3.484  1.00  0.00    -0.269 OA
HETATM    8  H   UNL     1      39.074 -16.600   1.065  1.00  0.00     0.190 HD
BRANCH   6   9
HETATM    9  C   UNL     1      41.373 -17.513   1.764  1.00  0.00     0.280 C 
BRANCH   9  10
HETATM   10  O   UNL     1      42.770 -17.338   1.993  1.00  0.00    -0.342 OA
BRANCH  10  11
HETATM   11  C   UNL     1      43.364 -18.399   2.624  1.00  0.00     0.069 A 
HETATM   12  C   UNL     1      43.476 -19.575   1.877  1.00  0.00     0.043 A 
HETATM   13  C   UNL     1      44.086 -20.713   2.426  1.00  0.00    -0.059 A 
HETATM   14  C   UNL     1      44.209 -21.981   1.632  1.00  0.00     0.048 C 
HETATM   15  C   UNL     1      44.616 -20.643   3.718  1.00  0.00     0.007 A 
HETATM   16  C   UNL     1      44.526 -19.462   4.456  1.00  0.00     0.003 A 
HETATM   17  C   UNL     1      43.900 -18.339   3.909  1.00  0.00     0.037 A 
ENDBRANCH  10  11
ENDBRANCH   9  10
ENDBRANCH   6   9
ENDBRANCH   2   5
BRANCH   1  18
HETATM   18  C   UNL     1      39.169 -13.748   0.150  1.00  0.00     0.077 A 
HETATM   19  C   UNL     1      38.383 -13.982  -1.003  1.00  0.00     0.158 A 
HETATM   20  N   UNL     1      39.100 -14.082  -2.118  1.00  0.00    -0.183 NA
HETATM   21  N   UNL     1      40.358 -13.809  -1.714  1.00  0.00    -0.268 N 
HETATM   22  C   UNL     1      40.459 -13.606  -0.350  1.00  0.00     0.052 A 
BRANCH  21  23
HETATM   23  C   UNL     1      41.452 -13.856  -2.686  1.00  0.00     0.106 C 
HETATM   24  C   UNL     1      41.379 -15.162  -3.484  1.00  0.00     0.034 C 
BRANCH  23  25
HETATM   25  C   UNL     1      41.503 -12.651  -3.651  1.00  0.00     0.022 C 
HETATM   26  C   UNL     1      42.412 -11.530  -3.163  1.00  0.00     0.007 C 
ENDBRANCH  23  25
ENDBRANCH  21  23
BRANCH  22  27
HETATM   27  C   UNL     1      41.788 -13.363   0.374  1.00  0.00     0.038 A 
HETATM   28  C   UNL     1      42.297 -11.959   0.595  1.00  0.00     0.011 A 
HETATM   29  C   UNL     1      41.812 -12.760   1.758  1.00  0.00     0.011 A 
ENDBRANCH  22  27
ENDBRANCH   1  18
TORSDOF 8
ENDMDL
MODEL 10
REMARK VINA RESULT:      -7.6      3.289      8.953
REMARK  8 active torsions:
REMARK  status: ('A' for Active; 'I' for Inactive)
REMARK    1  A    between atoms: C_2  and  C_3 
REMARK    2  A    between atoms: C_3  and  N_4 
REMARK    3  A    between atoms: C_7  and  C_8 
REMARK       I    between atoms: C_8  and  N_9 
REMARK    4  A    between atoms: N_9  and  N_10 
REMARK       I    between atoms: N_10  and  C_11 
REMARK    5  A    between atoms: C_11  and  C_12 
REMARK    6  A    between atoms: C_12  and  O_13 
REMARK    7  A    between atoms: O_13  and  C_14 
REMARK    8  A    between atoms: C_23  and  C_24 
ROOT
HETATM    1  C   UNL     1      45.199 -11.234   9.460  1.00  0.00     0.273 C 
HETATM    2  N   UNL     1      45.427 -12.333   8.637  1.00  0.00    -0.263 N 
HETATM    3  O   UNL     1      45.989 -10.294   9.432  1.00  0.00    -0.266 OA
HETATM    4  H   UNL     1      46.095 -12.159   7.891  1.00  0.00     0.190 HD
ENDROOT
BRANCH   2   5
HETATM    5  N   UNL     1      44.477 -13.341   8.419  1.00  0.00    -0.265 N 
HETATM    6  C   UNL     1      44.542 -14.132   7.282  1.00  0.00     0.260 C 
HETATM    7  O   UNL     1      45.448 -14.073   6.456  1.00  0.00    -0.269 OA
HETATM    8  H   UNL     1      43.778 -13.507   9.137  1.00  0.00     0.190 HD
BRANCH   6   9
HETATM    9  C   UNL     1      43.323 -15.031   7.118  1.00  0.00     0.280 C 
BRANCH   9  10
HETATM   10  O   UNL     1      43.663 -16.344   7.562  1.00  0.00    -0.342 OA
BRANCH  10  11
HETATM   11  C   UNL     1      43.857 -17.238   6.542  1.00  0.00     0.069 A 
HETATM   12  C   UNL     1      43.013 -17.105   5.437  1.00  0.00     0.043 A 
HETATM   13  C   UNL     1      43.144 -17.959   4.332  1.00  0.00    -0.059 A 
HETATM   14  C   UNL     1      42.240 -17.826   3.141  1.00  0.00     0.048 C 
HETATM   15  C   UNL     1      44.159 -18.922   4.334  1.00  0.00     0.007 A 
HETATM   16  C   UNL     1      45.018 -19.039   5.427  1.00  0.00     0.003 A 
HETATM   17  C   UNL     1      44.869 -18.197   6.531  1.00  0.00     0.037 A 
ENDBRANCH  10  11
ENDBRANCH   9  10
ENDBRANCH   6   9
ENDBRANCH   2   5
BRANCH   1  18
HETATM   18  C   UNL     1      44.042 -11.287  10.343  1.00  0.00     0.077 A 
HETATM   19  C   UNL     1      44.016 -11.874  11.630  1.00  0.00     0.158 A 
HETATM   20  N   UNL     1      42.802 -11.904  12.171  1.00  0.00    -0.183 NA
HETATM   21  N   UNL     1      42.039 -11.238  11.279  1.00  0.00    -0.268 N 
HETATM   22  C   UNL     1      42.737 -10.848  10.150  1.00  0.00     0.052 A 
BRANCH  21  23
HETATM   23  C   UNL     1      40.603 -11.092  11.528  1.00  0.00     0.106 C 
HETATM   24  C   UNL     1      40.176 -12.041  12.653  1.00  0.00     0.034 C 
BRANCH  23  25
HETATM   25  C   UNL     1      40.153  -9.651  11.853  1.00  0.00     0.022 C 
HETATM   26  C   UNL     1      38.895  -9.232  11.104  1.00  0.00     0.007 C 
ENDBRANCH  23  25
ENDBRANCH  21  23
BRANCH  22  27
HETATM   27  C   UNL     1      42.085 -10.151   8.951  1.00  0.00     0.038 A 
HETATM   28  C   UNL     1      42.139 -10.776   7.578  1.00  0.00     0.011 A 
HETATM   29  C   UNL     1      40.840 -10.720   8.313  1.00  0.00     0.011 A 
ENDBRANCH  22  27
ENDBRANCH   1  18
TORSDOF 8
ENDMDL
