MODEL 1
REMARK VINA RESULT:      -8.0      0.000      0.000
REMARK  4 active torsions:
REMARK  status: ('A' for Active; 'I' for Inactive)
REMARK       I    between atoms: C_2  and  N_3 
REMARK    1  A    between atoms: N_3  and  C_4 
REMARK    2  A    between atoms: C_7  and  C_8 
REMARK    3  A    between atoms: C_12  and  N_13 
REMARK    4  A    between atoms: C_20  and  C_21 
ROOT
HETATM    1  C   UNL     1      41.791 -14.703   2.204  1.00  0.00     0.105 C 
HETATM    2  C   UNL     1      40.956 -14.287   0.997  1.00  0.00     0.067 C 
HETATM    3  C   UNL     1      41.736 -13.957  -0.265  1.00  0.00     0.020 C 
HETATM    4  N   UNL     1      42.383 -13.685  -1.312  1.00  0.00    -0.096 N 
HETATM    5  C   UNL     1      39.616 -14.060   1.054  1.00  0.00     0.139 C 
HETATM    6  O   UNL     1      38.898 -14.193   2.257  1.00  0.00    -0.279 OA
HETATM    7  C   UNL     1      39.626 -14.380   3.354  1.00  0.00     0.175 A 
HETATM    8  C   UNL     1      40.976 -14.605   3.447  1.00  0.00     0.040 A 
HETATM    9  N   UNL     1      39.143 -14.363   4.619  1.00  0.00    -0.256 N 
HETATM   10  H   UNL     1      38.188 -14.219   4.926  1.00  0.00     0.191 HD
HETATM   11  N   UNL     1      40.102 -14.548   5.545  1.00  0.00    -0.172 NA
HETATM   12  C   UNL     1      41.248 -14.662   4.840  1.00  0.00     0.099 A 
ENDROOT
BRANCH   1  13
HETATM   13  C   UNL     1      42.269 -16.146   2.099  1.00  0.00    -0.044 A 
HETATM   14  C   UNL     1      43.643 -16.424   2.112  1.00  0.00     0.010 A 
HETATM   15  C   UNL     1      44.126 -17.735   1.973  1.00  0.00     0.030 A 
HETATM   16  C   UNL     1      43.249 -18.805   1.819  1.00  0.00     0.034 A 
HETATM   17  C   UNL     1      41.875 -18.532   1.794  1.00  0.00     0.030 A 
HETATM   18  C   UNL     1      41.391 -17.226   1.922  1.00  0.00     0.010 A 
BRANCH  16  19
HETATM   19  N   UNL     1      43.607 -20.157   1.671  1.00  0.00    -0.328 N 
HETATM   20  C   UNL     1      44.241 -21.073   2.453  1.00  0.00     0.218 C 
HETATM   21  C   UNL     1      44.724 -20.744   3.832  1.00  0.00     0.117 C 
HETATM   22  O   UNL     1      44.411 -22.205   1.990  1.00  0.00    -0.274 OA
HETATM   23  H   UNL     1      43.348 -20.587   0.791  1.00  0.00     0.169 HD
ENDBRANCH  16  19
ENDBRANCH   1  13
BRANCH   5  24
HETATM   24  N   UNL     1      38.829 -13.659  -0.001  1.00  0.00    -0.282 NA
HETATM   25  H   UNL     1      39.267 -13.700  -0.917  1.00  0.00     0.126 HD
HETATM   26  H   UNL     1      37.909 -14.092   0.019  1.00  0.00     0.126 HD
ENDBRANCH   5  24
BRANCH  12  27
HETATM   27  C   UNL     1      42.530 -14.830   5.521  1.00  0.00    -0.005 A 
HETATM   28  C   UNL     1      42.981 -16.113   5.861  1.00  0.00     0.014 A 
HETATM   29  C   UNL     1      44.202 -16.287   6.518  1.00  0.00     0.001 A 
HETATM   30  C   UNL     1      44.981 -15.180   6.846  1.00  0.00     0.000 A 
HETATM   31  C   UNL     1      44.538 -13.898   6.526  1.00  0.00     0.001 A 
HETATM   32  C   UNL     1      43.315 -13.722   5.872  1.00  0.00     0.014 A 
ENDBRANCH  12  27
TORSDOF 4
ENDMDL
MODEL 2
REMARK VINA RESULT:      -7.7      3.387      5.781
REMARK  4 active torsions:
REMARK  status: ('A' for Active; 'I' for Inactive)
REMARK       I    between atoms: C_2  and  N_3 
REMARK    1  A    between atoms: N_3  and  C_4 
REMARK    2  A    between atoms: C_7  and  C_8 
REMARK    3  A    between atoms: C_12  and  N_13 
REMARK    4  A    between atoms: C_20  and  C_21 
ROOT
HETATM    1  C   UNL     1      40.672 -13.217   3.023  1.00  0.00     0.105 C 
HETATM    2  C   UNL     1      40.123 -11.973   3.714  1.00  0.00     0.067 C 
HETATM    3  C   UNL     1      40.502 -10.643   3.084  1.00  0.00     0.020 C 
HETATM    4  N   UNL     1      40.816  -9.540   2.559  1.00  0.00    -0.096 N 
HETATM    5  C   UNL     1      39.468 -12.004   4.906  1.00  0.00     0.139 C 
HETATM    6  O   UNL     1      39.255 -13.212   5.597  1.00  0.00    -0.279 OA
HETATM    7  C   UNL     1      39.876 -14.281   5.107  1.00  0.00     0.175 A 
HETATM    8  C   UNL     1      40.578 -14.391   3.934  1.00  0.00     0.040 A 
HETATM    9  N   UNL     1      39.936 -15.490   5.715  1.00  0.00    -0.256 N 
HETATM   10  H   UNL     1      39.530 -15.770   6.601  1.00  0.00     0.191 HD
HETATM   11  N   UNL     1      40.654 -16.389   5.016  1.00  0.00    -0.172 NA
HETATM   12  C   UNL     1      41.091 -15.716   3.931  1.00  0.00     0.099 A 
ENDROOT
BRANCH   1  13
HETATM   13  C   UNL     1      39.886 -13.567   1.766  1.00  0.00    -0.044 A 
HETATM   14  C   UNL     1      40.554 -13.674   0.537  1.00  0.00     0.010 A 
HETATM   15  C   UNL     1      39.861 -13.951  -0.651  1.00  0.00     0.030 A 
HETATM   16  C   UNL     1      38.480 -14.131  -0.646  1.00  0.00     0.034 A 
HETATM   17  C   UNL     1      37.806 -14.014   0.577  1.00  0.00     0.030 A 
HETATM   18  C   UNL     1      38.492 -13.728   1.761  1.00  0.00     0.010 A 
BRANCH  16  19
HETATM   19  N   UNL     1      37.675 -14.411  -1.764  1.00  0.00    -0.328 N 
HETATM   20  C   UNL     1      37.911 -14.842  -3.033  1.00  0.00     0.218 C 
HETATM   21  C   UNL     1      39.292 -15.158  -3.522  1.00  0.00     0.117 C 
HETATM   22  O   UNL     1      36.943 -14.970  -3.788  1.00  0.00    -0.274 OA
HETATM   23  H   UNL     1      36.679 -14.275  -1.635  1.00  0.00     0.169 HD
ENDBRANCH  16  19
ENDBRANCH   1  13
BRANCH   5  24
HETATM   24  N   UNL     1      38.980 -10.907   5.578  1.00  0.00    -0.282 NA
HETATM   25  H   UNL     1      39.555 -10.070   5.529  1.00  0.00     0.126 HD
HETATM   26  H   UNL     1      38.001 -10.731   5.365  1.00  0.00     0.126 HD
ENDBRANCH   5  24
BRANCH  12  27
HETATM   27  C   UNL     1      41.956 -16.365   2.948  1.00  0.00    -0.005 A 
HETATM   28  C   UNL     1      41.393 -17.092   1.890  1.00  0.00     0.014 A 
HETATM   29  C   UNL     1      42.208 -17.723   0.947  1.00  0.00     0.001 A 
HETATM   30  C   UNL     1      43.594 -17.637   1.055  1.00  0.00     0.000 A 
HETATM   31  C   UNL     1      44.167 -16.929   2.110  1.00  0.00     0.001 A 
HETATM   32  C   UNL     1      43.352 -16.301   3.056  1.00  0.00     0.014 A 
ENDBRANCH  12  27
TORSDOF 4
ENDMDL
MODEL 3
REMARK VINA RESULT:      -7.2      2.456      5.880
REMARK  4 active torsions:
REMARK  status: ('A' for Active; 'I' for Inactive)
REMARK       I    between atoms: C_2  and  N_3 
REMARK    1  A    between atoms: N_3  and  C_4 
REMARK    2  A    between atoms: C_7  and  C_8 
REMARK    3  A    between atoms: C_12  and  N_13 
REMARK    4  A    between atoms: C_20  and  C_21 
ROOT
HETATM    1  C   UNL     1      40.694 -14.128   1.346  1.00  0.00     0.105 C 
HETATM    2  C   UNL     1      40.916 -13.384   2.660  1.00  0.00     0.067 C 
HETATM    3  C   UNL     1      40.062 -13.841   3.832  1.00  0.00     0.020 C 
HETATM    4  N   UNL     1      39.354 -14.222   4.803  1.00  0.00    -0.096 N 
HETATM    5  C   UNL     1      41.699 -12.278   2.774  1.00  0.00     0.139 C 
HETATM    6  O   UNL     1      42.367 -11.733   1.661  1.00  0.00    -0.279 OA
HETATM    7  C   UNL     1      42.050 -12.252   0.479  1.00  0.00     0.175 A 
HETATM    8  C   UNL     1      41.268 -13.347   0.215  1.00  0.00     0.040 A 
HETATM    9  N   UNL     1      42.450 -11.758  -0.718  1.00  0.00    -0.256 N 
HETATM   10  H   UNL     1      43.036 -10.952  -0.903  1.00  0.00     0.191 HD
HETATM   11  N   UNL     1      41.961 -12.458  -1.759  1.00  0.00    -0.172 NA
HETATM   12  C   UNL     1      41.197 -13.421  -1.202  1.00  0.00     0.099 A 
ENDROOT
BRANCH   1  13
HETATM   13  C   UNL     1      41.376 -15.490   1.337  1.00  0.00    -0.044 A 
HETATM   14  C   UNL     1      40.597 -16.655   1.372  1.00  0.00     0.010 A 
HETATM   15  C   UNL     1      41.187 -17.929   1.409  1.00  0.00     0.030 A 
HETATM   16  C   UNL     1      42.572 -18.073   1.411  1.00  0.00     0.034 A 
HETATM   17  C   UNL     1      43.355 -16.911   1.389  1.00  0.00     0.030 A 
HETATM   18  C   UNL     1      42.771 -15.641   1.361  1.00  0.00     0.010 A 
BRANCH  16  19
HETATM   19  N   UNL     1      43.280 -19.288   1.447  1.00  0.00    -0.328 N 
HETATM   20  C   UNL     1      43.953 -19.978   2.407  1.00  0.00     0.218 C 
HETATM   21  C   UNL     1      44.052 -19.487   3.819  1.00  0.00     0.117 C 
HETATM   22  O   UNL     1      44.491 -21.041   2.082  1.00  0.00    -0.274 OA
HETATM   23  H   UNL     1      43.319 -19.801   0.574  1.00  0.00     0.169 HD
ENDBRANCH  16  19
ENDBRANCH   1  13
BRANCH   5  24
HETATM   24  N   UNL     1      41.907 -11.563   3.930  1.00  0.00    -0.282 NA
HETATM   25  H   UNL     1      41.082 -11.123   4.329  1.00  0.00     0.126 HD
HETATM   26  H   UNL     1      42.449 -12.085   4.613  1.00  0.00     0.126 HD
ENDBRANCH   5  24
BRANCH  12  27
HETATM   27  C   UNL     1      40.454 -14.362  -2.038  1.00  0.00    -0.005 A 
HETATM   28  C   UNL     1      39.175 -14.029  -2.502  1.00  0.00     0.014 A 
HETATM   29  C   UNL     1      38.450 -14.922  -3.297  1.00  0.00     0.001 A 
HETATM   30  C   UNL     1      38.997 -16.158  -3.630  1.00  0.00     0.000 A 
HETATM   31  C   UNL     1      40.263 -16.508  -3.163  1.00  0.00     0.001 A 
HETATM   32  C   UNL     1      40.987 -15.617  -2.366  1.00  0.00     0.014 A 
ENDBRANCH  12  27
TORSDOF 4
ENDMDL
MODEL 4
REMARK VINA RESULT:      -7.2      2.851      5.959
REMARK  4 active torsions:
REMARK  status: ('A' for Active; 'I' for Inactive)
REMARK       I    between atoms: C_2  and  N_3 
REMARK    1  A    between atoms: N_3  and  C_4 
REMARK    2  A    between atoms: C_7  and  C_8 
REMARK    3  A    between atoms: C_12  and  N_13 
REMARK    4  A    between atoms: C_20  and  C_21 
ROOT
HETATM    1  C   UNL     1      41.940 -16.058   3.691  1.00  0.00     0.105 C 
HETATM    2  C   UNL     1      41.104 -15.017   2.951  1.00  0.00     0.067 C 
HETATM    3  C   UNL     1      39.946 -14.421   3.734  1.00  0.00     0.020 C 
HETATM    4  N   UNL     1      38.986 -13.925   4.384  1.00  0.00    -0.096 N 
HETATM    5  C   UNL     1      41.257 -14.734   1.630  1.00  0.00     0.139 C 
HETATM    6  O   UNL     1      42.212 -15.401   0.840  1.00  0.00    -0.279 OA
HETATM    7  C   UNL     1      42.827 -16.431   1.414  1.00  0.00     0.175 A 
HETATM    8  C   UNL     1      42.758 -16.839   2.722  1.00  0.00     0.040 A 
HETATM    9  N   UNL     1      43.647 -17.299   0.775  1.00  0.00    -0.256 N 
HETATM   10  H   UNL     1      43.923 -17.304  -0.200  1.00  0.00     0.191 HD
HETATM   11  N   UNL     1      44.111 -18.269   1.586  1.00  0.00    -0.172 NA
HETATM   12  C   UNL     1      43.542 -18.022   2.784  1.00  0.00     0.099 A 
ENDROOT
BRANCH   1  13
HETATM   13  C   UNL     1      42.909 -15.418   4.676  1.00  0.00    -0.044 A 
HETATM   14  C   UNL     1      42.946 -15.868   6.004  1.00  0.00     0.010 A 
HETATM   15  C   UNL     1      43.793 -15.276   6.954  1.00  0.00     0.030 A 
HETATM   16  C   UNL     1      44.629 -14.219   6.604  1.00  0.00     0.034 A 
HETATM   17  C   UNL     1      44.588 -13.759   5.281  1.00  0.00     0.030 A 
HETATM   18  C   UNL     1      43.738 -14.339   4.335  1.00  0.00     0.010 A 
BRANCH  16  19
HETATM   19  N   UNL     1      45.519 -13.545   7.459  1.00  0.00    -0.328 N 
HETATM   20  C   UNL     1      45.392 -12.571   8.400  1.00  0.00     0.218 C 
HETATM   21  C   UNL     1      44.065 -11.970   8.750  1.00  0.00     0.117 C 
HETATM   22  O   UNL     1      46.416 -12.185   8.972  1.00  0.00    -0.274 OA
HETATM   23  H   UNL     1      46.491 -13.824   7.391  1.00  0.00     0.169 HD
ENDBRANCH  16  19
ENDBRANCH   1  13
BRANCH   5  24
HETATM   24  N   UNL     1      40.510 -13.825   0.917  1.00  0.00    -0.282 NA
HETATM   25  H   UNL     1      40.840 -13.626  -0.024  1.00  0.00     0.126 HD
HETATM   26  H   UNL     1      39.515 -14.030   0.955  1.00  0.00     0.126 HD
ENDBRANCH   5  24
BRANCH  12  27
HETATM   27  C   UNL     1      43.779 -18.909   3.921  1.00  0.00    -0.005 A 
HETATM   28  C   UNL     1      44.647 -20.002   3.789  1.00  0.00     0.014 A 
HETATM   29  C   UNL     1      44.878 -20.862   4.865  1.00  0.00     0.001 A 
HETATM   30  C   UNL     1      44.240 -20.640   6.083  1.00  0.00     0.000 A 
HETATM   31  C   UNL     1      43.363 -19.565   6.224  1.00  0.00     0.001 A 
HETATM   32  C   UNL     1      43.129 -18.707   5.147  1.00  0.00     0.014 A 
ENDBRANCH  12  27
TORSDOF 4
ENDMDL
MODEL 5
REMARK VINA RESULT:      -6.9      3.326      6.836
REMARK  4 active torsions:
REMARK  status: ('A' for Active; 'I' for Inactive)
REMARK       I    between atoms: C_2  and  N_3 
REMARK    1  A    between atoms: N_3  and  C_4 
REMARK    2  A    between atoms: C_7  and  C_8 
REMARK    3  A    between atoms: C_12  and  N_13 
REMARK    4  A    between atoms: C_20  and  C_21 
ROOT
HETATM    1  C   UNL     1      40.410 -12.132  -0.039  1.00  0.00     0.105 C 
HETATM    2  C   UNL     1      40.680 -10.904   0.826  1.00  0.00     0.067 C 
HETATM    3  C   UNL     1      39.673 -10.641   1.934  1.00  0.00     0.020 C 
HETATM    4  N   UNL     1      38.839 -10.424   2.854  1.00  0.00    -0.096 N 
HETATM    5  C   UNL     1      41.654  -9.994   0.555  1.00  0.00     0.139 C 
HETATM    6  O   UNL     1      42.491 -10.126  -0.570  1.00  0.00    -0.279 OA
HETATM    7  C   UNL     1      42.163 -11.083  -1.432  1.00  0.00     0.175 A 
HETATM    8  C   UNL     1      41.202 -12.054  -1.298  1.00  0.00     0.040 A 
HETATM    9  N   UNL     1      42.733 -11.262  -2.647  1.00  0.00    -0.256 N 
HETATM   10  H   UNL     1      43.477 -10.725  -3.079  1.00  0.00     0.191 HD
HETATM   11  N   UNL     1      42.192 -12.287  -3.331  1.00  0.00    -0.172 NA
HETATM   12  C   UNL     1      41.218 -12.765  -2.528  1.00  0.00     0.099 A 
ENDROOT
BRANCH   1  13
HETATM   13  C   UNL     1      40.813 -13.424   0.660  1.00  0.00    -0.044 A 
HETATM   14  C   UNL     1      39.953 -14.531   0.621  1.00  0.00     0.010 A 
HETATM   15  C   UNL     1      40.266 -15.725   1.289  1.00  0.00     0.030 A 
HETATM   16  C   UNL     1      41.449 -15.848   2.013  1.00  0.00     0.034 A 
HETATM   17  C   UNL     1      42.307 -14.741   2.065  1.00  0.00     0.030 A 
HETATM   18  C   UNL     1      41.993 -13.547   1.409  1.00  0.00     0.010 A 
BRANCH  16  19
HETATM   19  N   UNL     1      41.874 -16.986   2.721  1.00  0.00    -0.328 N 
HETATM   20  C   UNL     1      42.784 -17.972   2.496  1.00  0.00     0.218 C 
HETATM   21  C   UNL     1      43.635 -18.004   1.264  1.00  0.00     0.117 C 
HETATM   22  O   UNL     1      42.896 -18.858   3.349  1.00  0.00    -0.274 OA
HETATM   23  H   UNL     1      41.423 -17.142   3.615  1.00  0.00     0.169 HD
ENDBRANCH  16  19
ENDBRANCH   1  13
BRANCH   5  24
HETATM   24  N   UNL     1      41.915  -8.862   1.290  1.00  0.00    -0.282 NA
HETATM   25  H   UNL     1      42.898  -8.660   1.453  1.00  0.00     0.126 HD
HETATM   26  H   UNL     1      41.395  -8.056   0.953  1.00  0.00     0.126 HD
ENDBRANCH   5  24
BRANCH  12  27
HETATM   27  C   UNL     1      40.366 -13.871  -2.961  1.00  0.00    -0.005 A 
HETATM   28  C   UNL     1      39.022 -13.637  -3.280  1.00  0.00     0.014 A 
HETATM   29  C   UNL     1      38.195 -14.686  -3.689  1.00  0.00     0.001 A 
HETATM   30  C   UNL     1      38.703 -15.980  -3.780  1.00  0.00     0.000 A 
HETATM   31  C   UNL     1      40.035 -16.228  -3.452  1.00  0.00     0.001 A 
HETATM   32  C   UNL     1      40.862 -15.180  -3.039  1.00  0.00     0.014 A 
ENDBRANCH  12  27
TORSDOF 4
ENDMDL
MODEL 6
REMARK VINA RESULT:      -6.8      3.477      6.381
REMARK  4 active torsions:
REMARK  status: ('A' for Active; 'I' for Inactive)
REMARK       I    between atoms: C_2  and  N_3 
REMARK    1  A    between atoms: N_3  and  C_4 
REMARK    2  A    between atoms: C_7  and  C_8 
REMARK    3  A    between atoms: C_12  and  N_13 
REMARK    4  A    between atoms: C_20  and  C_21 
ROOT
HETATM    1  C   UNL     1      40.031 -11.718   5.306  1.00  0.00     0.105 C 
HETATM    2  C   UNL     1      40.473 -10.856   6.485  1.00  0.00     0.067 C 
HETATM    3  C   UNL     1      39.839 -11.193   7.825  1.00  0.00     0.020 C 
HETATM    4  N   UNL     1      39.314 -11.474   8.937  1.00  0.00    -0.096 N 
HETATM    5  C   UNL     1      41.255  -9.751   6.356  1.00  0.00     0.139 C 
HETATM    6  O   UNL     1      41.714  -9.319   5.097  1.00  0.00    -0.279 OA
HETATM    7  C   UNL     1      41.201  -9.945   4.042  1.00  0.00     0.175 A 
HETATM    8  C   UNL     1      40.393 -11.053   4.024  1.00  0.00     0.040 A 
HETATM    9  N   UNL     1      41.383  -9.570   2.753  1.00  0.00    -0.256 N 
HETATM   10  H   UNL     1      41.922  -8.790   2.394  1.00  0.00     0.191 HD
HETATM   11  N   UNL     1      40.726 -10.360   1.884  1.00  0.00    -0.172 NA
HETATM   12  C   UNL     1      40.078 -11.260   2.654  1.00  0.00     0.099 A 
ENDROOT
BRANCH   1  13
HETATM   13  C   UNL     1      40.712 -13.081   5.307  1.00  0.00    -0.044 A 
HETATM   14  C   UNL     1      39.975 -14.224   5.652  1.00  0.00     0.010 A 
HETATM   15  C   UNL     1      40.575 -15.492   5.708  1.00  0.00     0.030 A 
HETATM   16  C   UNL     1      41.928 -15.654   5.420  1.00  0.00     0.034 A 
HETATM   17  C   UNL     1      42.671 -14.514   5.086  1.00  0.00     0.030 A 
HETATM   18  C   UNL     1      42.079 -13.248   5.039  1.00  0.00     0.010 A 
BRANCH  16  19
HETATM   19  N   UNL     1      42.641 -16.865   5.441  1.00  0.00    -0.328 N 
HETATM   20  C   UNL     1      42.860 -17.866   4.546  1.00  0.00     0.218 C 
HETATM   21  C   UNL     1      42.300 -17.829   3.157  1.00  0.00     0.117 C 
HETATM   22  O   UNL     1      43.545 -18.826   4.912  1.00  0.00    -0.274 OA
HETATM   23  H   UNL     1      43.122 -17.078   6.308  1.00  0.00     0.169 HD
ENDBRANCH  16  19
ENDBRANCH   1  13
BRANCH   5  24
HETATM   24  N   UNL     1      41.655  -8.932   7.385  1.00  0.00    -0.282 NA
HETATM   25  H   UNL     1      41.375  -9.227   8.317  1.00  0.00     0.126 HD
HETATM   26  H   UNL     1      42.641  -8.691   7.324  1.00  0.00     0.126 HD
ENDBRANCH   5  24
BRANCH  12  27
HETATM   27  C   UNL     1      39.208 -12.269   2.053  1.00  0.00    -0.005 A 
HETATM   28  C   UNL     1      39.563 -13.624   2.110  1.00  0.00     0.014 A 
HETATM   29  C   UNL     1      38.745 -14.599   1.534  1.00  0.00     0.001 A 
HETATM   30  C   UNL     1      37.566 -14.228   0.890  1.00  0.00     0.000 A 
HETATM   31  C   UNL     1      37.209 -12.883   0.814  1.00  0.00     0.001 A 
HETATM   32  C   UNL     1      38.028 -11.907   1.387  1.00  0.00     0.014 A 
ENDBRANCH  12  27
TORSDOF 4
ENDMDL
MODEL 7
REMARK VINA RESULT:      -6.8      2.756      4.039
REMARK  4 active torsions:
REMARK  status: ('A' for Active; 'I' for Inactive)
REMARK       I    between atoms: C_2  and  N_3 
REMARK    1  A    between atoms: N_3  and  C_4 
REMARK    2  A    between atoms: C_7  and  C_8 
REMARK    3  A    between atoms: C_12  and  N_13 
REMARK    4  A    between atoms: C_20  and  C_21 
ROOT
HETATM    1  C   UNL     1      40.845 -13.568  -0.172  1.00  0.00     0.105 C 
HETATM    2  C   UNL     1      41.041 -13.668  -1.682  1.00  0.00     0.067 C 
HETATM    3  C   UNL     1      42.343 -13.096  -2.220  1.00  0.00     0.020 C 
HETATM    4  N   UNL     1      43.423 -12.622  -2.666  1.00  0.00    -0.096 N 
HETATM    5  C   UNL     1      40.071 -14.088  -2.538  1.00  0.00     0.139 C 
HETATM    6  O   UNL     1      38.795 -14.461  -2.077  1.00  0.00    -0.279 OA
HETATM    7  C   UNL     1      38.542 -14.215  -0.796  1.00  0.00     0.175 A 
HETATM    8  C   UNL     1      39.412 -13.780   0.172  1.00  0.00     0.040 A 
HETATM    9  N   UNL     1      37.330 -14.342  -0.205  1.00  0.00    -0.256 N 
HETATM   10  H   UNL     1      36.455 -14.640  -0.621  1.00  0.00     0.191 HD
HETATM   11  N   UNL     1      37.347 -13.999   1.097  1.00  0.00    -0.172 NA
HETATM   12  C   UNL     1      38.617 -13.613   1.338  1.00  0.00     0.099 A 
ENDROOT
BRANCH   1  13
HETATM   13  C   UNL     1      41.643 -14.626   0.579  1.00  0.00    -0.044 A 
HETATM   14  C   UNL     1      41.584 -15.964   0.164  1.00  0.00     0.010 A 
HETATM   15  C   UNL     1      42.268 -16.976   0.855  1.00  0.00     0.030 A 
HETATM   16  C   UNL     1      43.034 -16.679   1.979  1.00  0.00     0.034 A 
HETATM   17  C   UNL     1      43.088 -15.346   2.405  1.00  0.00     0.030 A 
HETATM   18  C   UNL     1      42.399 -14.336   1.726  1.00  0.00     0.010 A 
BRANCH  16  19
HETATM   19  N   UNL     1      43.763 -17.599   2.753  1.00  0.00    -0.328 N 
HETATM   20  C   UNL     1      43.524 -18.288   3.903  1.00  0.00     0.218 C 
HETATM   21  C   UNL     1      42.227 -18.175   4.643  1.00  0.00     0.117 C 
HETATM   22  O   UNL     1      44.419 -19.024   4.329  1.00  0.00    -0.274 OA
HETATM   23  H   UNL     1      44.686 -17.833   2.407  1.00  0.00     0.169 HD
ENDBRANCH  16  19
ENDBRANCH   1  13
BRANCH   5  24
HETATM   24  N   UNL     1      40.195 -14.168  -3.906  1.00  0.00    -0.282 NA
HETATM   25  H   UNL     1      39.331 -14.334  -4.417  1.00  0.00     0.126 HD
HETATM   26  H   UNL     1      40.742 -13.401  -4.289  1.00  0.00     0.126 HD
ENDBRANCH   5  24
BRANCH  12  27
HETATM   27  C   UNL     1      39.011 -13.119   2.656  1.00  0.00    -0.005 A 
HETATM   28  C   UNL     1      39.587 -13.993   3.588  1.00  0.00     0.014 A 
HETATM   29  C   UNL     1      39.962 -13.537   4.854  1.00  0.00     0.001 A 
HETATM   30  C   UNL     1      39.760 -12.203   5.202  1.00  0.00     0.000 A 
HETATM   31  C   UNL     1      39.175 -11.327   4.290  1.00  0.00     0.001 A 
HETATM   32  C   UNL     1      38.797 -11.783   3.024  1.00  0.00     0.014 A 
ENDBRANCH  12  27
TORSDOF 4
ENDMDL
MODEL 8
REMARK VINA RESULT:      -6.7      3.628      8.758
REMARK  4 active torsions:
REMARK  status: ('A' for Active; 'I' for Inactive)
REMARK       I    between atoms: C_2  and  N_3 
REMARK    1  A    between atoms: N_3  and  C_4 
REMARK    2  A    between atoms: C_7  and  C_8 
REMARK    3  A    between atoms: C_12  and  N_13 
REMARK    4  A    between atoms: C_20  and  C_21 
ROOT
HETATM    1  C   UNL     1      41.101 -13.718   0.115  1.00  0.00     0.105 C 
HETATM    2  C   UNL     1      41.367 -14.846   1.107  1.00  0.00     0.067 C 
HETATM    3  C   UNL     1      41.685 -14.415   2.529  1.00  0.00     0.020 C 
HETATM    4  N   UNL     1      41.948 -14.057   3.709  1.00  0.00    -0.096 N 
HETATM    5  C   UNL     1      41.478 -16.153   0.746  1.00  0.00     0.139 C 
HETATM    6  O   UNL     1      41.357 -16.557  -0.598  1.00  0.00    -0.279 OA
HETATM    7  C   UNL     1      41.303 -15.581  -1.498  1.00  0.00     0.175 A 
HETATM    8  C   UNL     1      41.203 -14.230  -1.280  1.00  0.00     0.040 A 
HETATM    9  N   UNL     1      41.356 -15.759  -2.840  1.00  0.00    -0.256 N 
HETATM   10  H   UNL     1      41.434 -16.627  -3.357  1.00  0.00     0.191 HD
HETATM   11  N   UNL     1      41.312 -14.598  -3.521  1.00  0.00    -0.172 NA
HETATM   12  C   UNL     1      41.256 -13.640  -2.572  1.00  0.00     0.099 A 
ENDROOT
BRANCH   1  13
HETATM   13  C   UNL     1      39.702 -13.136   0.272  1.00  0.00    -0.044 A 
HETATM   14  C   UNL     1      39.532 -11.745   0.333  1.00  0.00     0.010 A 
HETATM   15  C   UNL     1      38.266 -11.169   0.522  1.00  0.00     0.030 A 
HETATM   16  C   UNL     1      37.132 -11.967   0.653  1.00  0.00     0.034 A 
HETATM   17  C   UNL     1      37.298 -13.358   0.605  1.00  0.00     0.030 A 
HETATM   18  C   UNL     1      38.559 -13.935   0.427  1.00  0.00     0.010 A 
BRANCH  16  19
HETATM   19  N   UNL     1      35.816 -11.514   0.846  1.00  0.00    -0.328 N 
HETATM   20  C   UNL     1      34.861 -10.970   0.043  1.00  0.00     0.218 C 
HETATM   21  C   UNL     1      35.086 -10.745  -1.421  1.00  0.00     0.117 C 
HETATM   22  O   UNL     1      33.783 -10.660   0.559  1.00  0.00    -0.274 OA
HETATM   23  H   UNL     1      35.455 -11.596   1.790  1.00  0.00     0.169 HD
ENDBRANCH  16  19
ENDBRANCH   1  13
BRANCH   5  24
HETATM   24  N   UNL     1      41.742 -17.197   1.600  1.00  0.00    -0.282 NA
HETATM   25  H   UNL     1      42.692 -17.560   1.571  1.00  0.00     0.126 HD
HETATM   26  H   UNL     1      41.416 -17.013   2.546  1.00  0.00     0.126 HD
ENDBRANCH   5  24
BRANCH  12  27
HETATM   27  C   UNL     1      41.244 -12.225  -2.938  1.00  0.00    -0.005 A 
HETATM   28  C   UNL     1      42.428 -11.477  -2.883  1.00  0.00     0.014 A 
HETATM   29  C   UNL     1      42.430 -10.122  -3.224  1.00  0.00     0.001 A 
HETATM   30  C   UNL     1      41.247  -9.501  -3.618  1.00  0.00     0.000 A 
HETATM   31  C   UNL     1      40.060 -10.230  -3.662  1.00  0.00     0.001 A 
HETATM   32  C   UNL     1      40.057 -11.585  -3.319  1.00  0.00     0.014 A 
ENDBRANCH  12  27
TORSDOF 4
ENDMDL
MODEL 9
REMARK VINA RESULT:      -6.7      3.338      7.603
REMARK  4 active torsions:
REMARK  status: ('A' for Active; 'I' for Inactive)
REMARK       I    between atoms: C_2  and  N_3 
REMARK    1  A    between atoms: N_3  and  C_4 
REMARK    2  A    between atoms: C_7  and  C_8 
REMARK    3  A    between atoms: C_12  and  N_13 
REMARK    4  A    between atoms: C_20  and  C_21 
ROOT
HETATM    1  C   UNL     1      42.715 -14.932   5.190  1.00  0.00     0.105 C 
HETATM    2  C   UNL     1      43.369 -15.229   6.537  1.00  0.00     0.067 C 
HETATM    3  C   UNL     1      44.513 -14.310   6.934  1.00  0.00     0.020 C 
HETATM    4  N   UNL     1      45.460 -13.547   7.264  1.00  0.00    -0.096 N 
HETATM    5  C   UNL     1      43.082 -16.328   7.284  1.00  0.00     0.139 C 
HETATM    6  O   UNL     1      42.146 -17.287   6.852  1.00  0.00    -0.279 OA
HETATM    7  C   UNL     1      41.697 -17.145   5.609  1.00  0.00     0.175 A 
HETATM    8  C   UNL     1      41.914 -16.105   4.742  1.00  0.00     0.040 A 
HETATM    9  N   UNL     1      40.929 -18.048   4.953  1.00  0.00    -0.256 N 
HETATM   10  H   UNL     1      40.579 -18.939   5.288  1.00  0.00     0.191 HD
HETATM   11  N   UNL     1      40.641 -17.669   3.694  1.00  0.00    -0.172 NA
HETATM   12  C   UNL     1      41.273 -16.488   3.533  1.00  0.00     0.099 A 
ENDROOT
BRANCH   1  13
HETATM   13  C   UNL     1      41.762 -13.746   5.266  1.00  0.00    -0.044 A 
HETATM   14  C   UNL     1      40.492 -13.914   5.837  1.00  0.00     0.010 A 
HETATM   15  C   UNL     1      39.567 -12.859   5.886  1.00  0.00     0.030 A 
HETATM   16  C   UNL     1      39.886 -11.606   5.370  1.00  0.00     0.034 A 
HETATM   17  C   UNL     1      41.150 -11.436   4.789  1.00  0.00     0.030 A 
HETATM   18  C   UNL     1      42.070 -12.487   4.728  1.00  0.00     0.010 A 
BRANCH  16  19
HETATM   19  N   UNL     1      39.051 -10.475   5.360  1.00  0.00    -0.328 N 
HETATM   20  C   UNL     1      38.224  -9.900   4.445  1.00  0.00     0.218 C 
HETATM   21  C   UNL     1      38.020 -10.484   3.080  1.00  0.00     0.117 C 
HETATM   22  O   UNL     1      37.633  -8.867   4.771  1.00  0.00    -0.274 OA
HETATM   23  H   UNL     1      39.030  -9.935   6.218  1.00  0.00     0.169 HD
ENDBRANCH  16  19
ENDBRANCH   1  13
BRANCH   5  24
HETATM   24  N   UNL     1      43.664 -16.649   8.488  1.00  0.00    -0.282 NA
HETATM   25  H   UNL     1      44.353 -17.396   8.459  1.00  0.00     0.126 HD
HETATM   26  H   UNL     1      43.991 -15.826   8.989  1.00  0.00     0.126 HD
ENDBRANCH   5  24
BRANCH  12  27
HETATM   27  C   UNL     1      41.226 -15.783   2.253  1.00  0.00    -0.005 A 
HETATM   28  C   UNL     1      41.926 -16.288   1.149  1.00  0.00     0.014 A 
HETATM   29  C   UNL     1      41.895 -15.621  -0.078  1.00  0.00     0.001 A 
HETATM   30  C   UNL     1      41.169 -14.440  -0.212  1.00  0.00     0.000 A 
HETATM   31  C   UNL     1      40.481 -13.919   0.883  1.00  0.00     0.001 A 
HETATM   32  C   UNL     1      40.513 -14.584   2.112  1.00  0.00     0.014 A 
ENDBRANCH  12  27
TORSDOF 4
ENDMDL
MODEL 10
REMARK VINA RESULT:      -6.6      4.357      7.363
REMARK  4 active torsions:
REMARK  status: ('A' for Active; 'I' for Inactive)
REMARK       I    between atoms: C_2  and  N_3 
REMARK    1  A    between atoms: N_3  and  C_4 
REMARK    2  A    between atoms: C_7  and  C_8 
REMARK    3  A    between atoms: C_12  and  N_13 
REMARK    4  A    between atoms: C_20  and  C_21 
ROOT
HETATM    1  C   UNL     1      39.188 -13.470  -2.737  1.00  0.00     0.105 C 
HETATM    2  C   UNL     1      38.153 -14.319  -3.471  1.00  0.00     0.067 C 
HETATM    3  C   UNL     1      38.590 -15.729  -3.830  1.00  0.00     0.020 C 
HETATM    4  N   UNL     1      38.952 -16.900  -4.128  1.00  0.00    -0.096 N 
HETATM    5  C   UNL     1      36.971 -13.829  -3.930  1.00  0.00     0.139 C 
HETATM    6  O   UNL     1      36.618 -12.477  -3.759  1.00  0.00    -0.279 OA
HETATM    7  C   UNL     1      37.572 -11.681  -3.284  1.00  0.00     0.175 A 
HETATM    8  C   UNL     1      38.807 -12.031  -2.803  1.00  0.00     0.040 A 
HETATM    9  N   UNL     1      37.489 -10.331  -3.207  1.00  0.00    -0.256 N 
HETATM   10  H   UNL     1      36.718  -9.731  -3.479  1.00  0.00     0.191 HD
HETATM   11  N   UNL     1      38.609  -9.769  -2.716  1.00  0.00    -0.172 NA
HETATM   12  C   UNL     1      39.449 -10.801  -2.496  1.00  0.00     0.099 A 
ENDROOT
BRANCH   1  13
HETATM   13  C   UNL     1      39.286 -13.836  -1.262  1.00  0.00    -0.044 A 
HETATM   14  C   UNL     1      40.475 -14.387  -0.762  1.00  0.00     0.010 A 
HETATM   15  C   UNL     1      40.592 -14.779   0.581  1.00  0.00     0.030 A 
HETATM   16  C   UNL     1      39.525 -14.630   1.463  1.00  0.00     0.034 A 
HETATM   17  C   UNL     1      38.331 -14.091   0.966  1.00  0.00     0.030 A 
HETATM   18  C   UNL     1      38.208 -13.709  -0.373  1.00  0.00     0.010 A 
BRANCH  16  19
HETATM   19  N   UNL     1      39.518 -14.983   2.824  1.00  0.00    -0.328 N 
HETATM   20  C   UNL     1      39.942 -14.389   3.972  1.00  0.00     0.218 C 
HETATM   21  C   UNL     1      40.574 -13.031   3.978  1.00  0.00     0.117 C 
HETATM   22  O   UNL     1      39.791 -15.006   5.030  1.00  0.00    -0.274 OA
HETATM   23  H   UNL     1      39.106 -15.883   3.043  1.00  0.00     0.169 HD
ENDBRANCH  16  19
ENDBRANCH   1  13
BRANCH   5  24
HETATM   24  N   UNL     1      36.022 -14.549  -4.617  1.00  0.00    -0.282 NA
HETATM   25  H   UNL     1      35.348 -13.999  -5.144  1.00  0.00     0.126 HD
HETATM   26  H   UNL     1      36.433 -15.303  -5.164  1.00  0.00     0.126 HD
ENDBRANCH   5  24
BRANCH  12  27
HETATM   27  C   UNL     1      40.804 -10.570  -1.998  1.00  0.00    -0.005 A 
HETATM   28  C   UNL     1      41.090 -10.746  -0.638  1.00  0.00     0.014 A 
HETATM   29  C   UNL     1      42.379 -10.522  -0.147  1.00  0.00     0.001 A 
HETATM   30  C   UNL     1      43.393 -10.115  -1.011  1.00  0.00     0.000 A 
HETATM   31  C   UNL     1      43.118  -9.922  -2.364  1.00  0.00     0.001 A 
HETATM   32  C   UNL     1      41.828 -10.143  -2.855  1.00  0.00     0.014 A 
ENDBRANCH  12  27
TORSDOF 4
ENDMDL
