MODEL 1
REMARK VINA RESULT:      -9.5      0.000      0.000
REMARK  7 active torsions:
REMARK  status: ('A' for Active; 'I' for Inactive)
REMARK    1  A    between atoms: O_2  and  C_3 
REMARK    2  A    between atoms: C_5  and  C_6 
REMARK    3  A    between atoms: C_10  and  C_11 
REMARK    4  A    between atoms: C_10  and  C_15 
REMARK    5  A    between atoms: N_19  and  C_20 
REMARK    6  A    between atoms: C_20  and  C_21 
REMARK    7  A    between atoms: C_21  and  C_22 
ROOT
HETATM    1  C   UNL     1      43.456 -18.039   3.783  1.00  0.00     0.114 C 
HETATM    2  N   UNL     1      43.168 -17.079   2.926  1.00  0.00    -0.327 N 
HETATM    3  C   UNL     1      42.956 -15.771   3.304  1.00  0.00     0.128 A 
HETATM    4  C   UNL     1      42.971 -15.461   4.608  1.00  0.00     0.100 A 
HETATM    5  C   UNL     1      43.126 -16.469   5.719  1.00  0.00     0.264 C 
HETATM    6  N   UNL     1      42.729 -14.806   2.336  1.00  0.00    -0.284 N 
HETATM    7  C   UNL     1      42.558 -13.463   2.666  1.00  0.00     0.331 A 
HETATM    8  O   UNL     1      42.387 -12.569   1.844  1.00  0.00    -0.246 OA
HETATM    9  N   UNL     1      42.595 -13.168   3.993  1.00  0.00    -0.275 N 
HETATM   10  C   UNL     1      42.792 -14.057   4.992  1.00  0.00     0.262 A 
HETATM   11  O   UNL     1      42.836 -13.736   6.166  1.00  0.00    -0.267 OA
HETATM   12  N   UNL     1      43.500 -17.803   5.075  1.00  0.00    -0.347 N 
HETATM   13  H   UNL     1      43.777 -18.569   5.696  1.00  0.00     0.162 HD
HETATM   14  H   UNL     1      43.132 -17.349   1.950  1.00  0.00     0.169 HD
HETATM   15  H   UNL     1      42.477 -12.192   4.240  1.00  0.00     0.173 HD
ENDROOT
BRANCH   1  16
HETATM   16  C   UNL     1      43.748 -19.400   3.302  1.00  0.00     0.010 A 
HETATM   17  C   UNL     1      44.301 -20.351   4.177  1.00  0.00     0.052 A 
HETATM   18  C   UNL     1      44.639 -21.636   3.742  1.00  0.00     0.069 A 
HETATM   19  C   UNL     1      44.391 -21.994   2.421  1.00  0.00     0.037 A 
HETATM   20  C   UNL     1      43.826 -21.068   1.541  1.00  0.00     0.004 A 
HETATM   21  C   UNL     1      43.512 -19.777   1.974  1.00  0.00     0.015 A 
BRANCH  18  22
HETATM   22  O   UNL     1      45.194 -22.426   4.706  1.00  0.00    -0.356 OA
HETATM   23  C   UNL     1      44.726 -22.247   6.040  1.00  0.00     0.210 C 
ENDBRANCH  18  22
ENDBRANCH   1  16
BRANCH   5  24
HETATM   24  C   UNL     1      41.818 -16.696   6.485  1.00  0.00     0.426 C 
HETATM   25  F   UNL     1      41.022 -17.523   5.754  1.00  0.00    -0.168 F 
HETATM   26  F   UNL     1      42.059 -17.338   7.652  1.00  0.00    -0.168 F 
HETATM   27  F   UNL     1      41.107 -15.593   6.746  1.00  0.00    -0.168 F 
ENDBRANCH   5  24
BRANCH   5  28
HETATM   28  C   UNL     1      44.194 -16.172   6.779  1.00  0.00     0.426 C 
HETATM   29  F   UNL     1      45.141 -15.352   6.261  1.00  0.00    -0.168 F 
HETATM   30  F   UNL     1      43.757 -15.653   7.931  1.00  0.00    -0.168 F 
HETATM   31  F   UNL     1      44.834 -17.336   7.084  1.00  0.00    -0.168 F 
ENDBRANCH   5  28
BRANCH   6  32
HETATM   32  C   UNL     1      42.673 -15.102   0.898  1.00  0.00     0.140 C 
BRANCH  32  33
HETATM   33  C   UNL     1      41.403 -15.875   0.512  1.00  0.00     0.059 C 
BRANCH  33  34
HETATM   34  C   UNL     1      40.195 -14.983   0.372  1.00  0.00    -0.057 A 
HETATM   35  C   UNL     1      39.973 -14.249  -0.803  1.00  0.00     0.007 A 
HETATM   36  C   UNL     1      38.846 -13.435  -0.931  1.00  0.00     0.001 A 
HETATM   37  C   UNL     1      37.921 -13.357   0.106  1.00  0.00     0.000 A 
HETATM   38  C   UNL     1      38.117 -14.099   1.269  1.00  0.00     0.001 A 
HETATM   39  C   UNL     1      39.245 -14.910   1.401  1.00  0.00     0.007 A 
ENDBRANCH  33  34
ENDBRANCH  32  33
ENDBRANCH   6  32
TORSDOF 7
ENDMDL
MODEL 2
REMARK VINA RESULT:      -9.5      0.898      1.397
REMARK  7 active torsions:
REMARK  status: ('A' for Active; 'I' for Inactive)
REMARK    1  A    between atoms: O_2  and  C_3 
REMARK    2  A    between atoms: C_5  and  C_6 
REMARK    3  A    between atoms: C_10  and  C_11 
REMARK    4  A    between atoms: C_10  and  C_15 
REMARK    5  A    between atoms: N_19  and  C_20 
REMARK    6  A    between atoms: C_20  and  C_21 
REMARK    7  A    between atoms: C_21  and  C_22 
ROOT
HETATM    1  C   UNL     1      43.450 -17.961   3.743  1.00  0.00     0.114 C 
HETATM    2  N   UNL     1      43.145 -17.020   2.872  1.00  0.00    -0.327 N 
HETATM    3  C   UNL     1      42.935 -15.704   3.225  1.00  0.00     0.128 A 
HETATM    4  C   UNL     1      42.972 -15.366   4.523  1.00  0.00     0.100 A 
HETATM    5  C   UNL     1      43.148 -16.351   5.652  1.00  0.00     0.264 C 
HETATM    6  N   UNL     1      42.689 -14.760   2.242  1.00  0.00    -0.284 N 
HETATM    7  C   UNL     1      42.519 -13.411   2.546  1.00  0.00     0.331 A 
HETATM    8  O   UNL     1      42.332 -12.535   1.709  1.00  0.00    -0.246 OA
HETATM    9  N   UNL     1      42.578 -13.089   3.867  1.00  0.00    -0.275 N 
HETATM   10  C   UNL     1      42.795 -13.955   4.880  1.00  0.00     0.262 A 
HETATM   11  O   UNL     1      42.858 -13.610   6.047  1.00  0.00    -0.267 OA
HETATM   12  N   UNL     1      43.516 -17.698   5.029  1.00  0.00    -0.347 N 
HETATM   13  H   UNL     1      43.806 -18.449   5.662  1.00  0.00     0.162 HD
HETATM   14  H   UNL     1      43.093 -17.310   1.903  1.00  0.00     0.169 HD
HETATM   15  H   UNL     1      42.461 -12.107   4.095  1.00  0.00     0.173 HD
ENDROOT
BRANCH   1  16
HETATM   16  C   UNL     1      43.738 -19.331   3.286  1.00  0.00     0.010 A 
HETATM   17  C   UNL     1      44.358 -20.245   4.155  1.00  0.00     0.052 A 
HETATM   18  C   UNL     1      44.693 -21.537   3.738  1.00  0.00     0.069 A 
HETATM   19  C   UNL     1      44.375 -21.939   2.445  1.00  0.00     0.037 A 
HETATM   20  C   UNL     1      43.743 -21.049   1.573  1.00  0.00     0.004 A 
HETATM   21  C   UNL     1      43.432 -19.751   1.986  1.00  0.00     0.015 A 
BRANCH  18  22
HETATM   22  O   UNL     1      45.318 -22.289   4.690  1.00  0.00    -0.356 OA
HETATM   23  C   UNL     1      44.714 -22.333   5.980  1.00  0.00     0.210 C 
ENDBRANCH  18  22
ENDBRANCH   1  16
BRANCH   5  24
HETATM   24  C   UNL     1      41.855 -16.565   6.445  1.00  0.00     0.426 C 
HETATM   25  F   UNL     1      41.018 -17.349   5.711  1.00  0.00    -0.168 F 
HETATM   26  F   UNL     1      42.107 -17.247   7.586  1.00  0.00    -0.168 F 
HETATM   27  F   UNL     1      41.181 -15.452   6.755  1.00  0.00    -0.168 F 
ENDBRANCH   5  24
BRANCH   5  28
HETATM   28  C   UNL     1      44.233 -16.029   6.687  1.00  0.00     0.426 C 
HETATM   29  F   UNL     1      45.132 -15.162   6.157  1.00  0.00    -0.168 F 
HETATM   30  F   UNL     1      43.810 -15.549   7.860  1.00  0.00    -0.168 F 
HETATM   31  F   UNL     1      44.929 -17.170   6.952  1.00  0.00    -0.168 F 
ENDBRANCH   5  28
BRANCH   6  32
HETATM   32  C   UNL     1      42.608 -15.086   0.812  1.00  0.00     0.140 C 
BRANCH  32  33
HETATM   33  C   UNL     1      41.184 -15.465   0.380  1.00  0.00     0.059 C 
BRANCH  33  34
HETATM   34  C   UNL     1      40.812 -14.899  -0.968  1.00  0.00    -0.057 A 
HETATM   35  C   UNL     1      40.395 -13.566  -1.100  1.00  0.00     0.007 A 
HETATM   36  C   UNL     1      40.064 -13.045  -2.352  1.00  0.00     0.001 A 
HETATM   37  C   UNL     1      40.162 -13.844  -3.488  1.00  0.00     0.000 A 
HETATM   38  C   UNL     1      40.598 -15.162  -3.375  1.00  0.00     0.001 A 
HETATM   39  C   UNL     1      40.925 -15.687  -2.123  1.00  0.00     0.007 A 
ENDBRANCH  33  34
ENDBRANCH  32  33
ENDBRANCH   6  32
TORSDOF 7
ENDMDL
MODEL 3
REMARK VINA RESULT:      -9.3      3.236      6.078
REMARK  7 active torsions:
REMARK  status: ('A' for Active; 'I' for Inactive)
REMARK    1  A    between atoms: O_2  and  C_3 
REMARK    2  A    between atoms: C_5  and  C_6 
REMARK    3  A    between atoms: C_10  and  C_11 
REMARK    4  A    between atoms: C_10  and  C_15 
REMARK    5  A    between atoms: N_19  and  C_20 
REMARK    6  A    between atoms: C_20  and  C_21 
REMARK    7  A    between atoms: C_21  and  C_22 
ROOT
HETATM    1  C   UNL     1      41.793 -14.818   0.243  1.00  0.00     0.114 C 
HETATM    2  N   UNL     1      41.699 -14.029   1.295  1.00  0.00    -0.327 N 
HETATM    3  C   UNL     1      42.120 -14.398   2.554  1.00  0.00     0.128 A 
HETATM    4  C   UNL     1      42.586 -15.641   2.745  1.00  0.00     0.100 A 
HETATM    5  C   UNL     1      42.609 -16.712   1.682  1.00  0.00     0.264 C 
HETATM    6  N   UNL     1      42.053 -13.486   3.595  1.00  0.00    -0.284 N 
HETATM    7  C   UNL     1      42.512 -13.797   4.873  1.00  0.00     0.331 A 
HETATM    8  O   UNL     1      42.503 -13.015   5.816  1.00  0.00    -0.246 OA
HETATM    9  N   UNL     1      42.997 -15.058   5.039  1.00  0.00    -0.275 N 
HETATM   10  C   UNL     1      43.076 -16.004   4.078  1.00  0.00     0.262 A 
HETATM   11  O   UNL     1      43.538 -17.114   4.276  1.00  0.00    -0.267 OA
HETATM   12  N   UNL     1      42.253 -16.044   0.354  1.00  0.00    -0.347 N 
HETATM   13  H   UNL     1      42.355 -16.601  -0.499  1.00  0.00     0.162 HD
HETATM   14  H   UNL     1      41.314 -13.107   1.127  1.00  0.00     0.169 HD
HETATM   15  H   UNL     1      43.338 -15.288   5.965  1.00  0.00     0.173 HD
ENDROOT
BRANCH   1  16
HETATM   16  C   UNL     1      41.396 -14.330  -1.089  1.00  0.00     0.010 A 
HETATM   17  C   UNL     1      40.819 -15.213  -2.017  1.00  0.00     0.052 A 
HETATM   18  C   UNL     1      40.477 -14.797  -3.307  1.00  0.00     0.069 A 
HETATM   19  C   UNL     1      40.683 -13.470  -3.671  1.00  0.00     0.037 A 
HETATM   20  C   UNL     1      41.239 -12.573  -2.756  1.00  0.00     0.004 A 
HETATM   21  C   UNL     1      41.601 -13.000  -1.475  1.00  0.00     0.015 A 
BRANCH  18  22
HETATM   22  O   UNL     1      39.957 -15.783  -4.095  1.00  0.00    -0.356 OA
HETATM   23  C   UNL     1      38.537 -15.856  -4.188  1.00  0.00     0.210 C 
ENDBRANCH  18  22
ENDBRANCH   1  16
BRANCH   5  24
HETATM   24  C   UNL     1      41.558 -17.799   1.930  1.00  0.00     0.426 C 
HETATM   25  F   UNL     1      40.699 -17.365   2.893  1.00  0.00    -0.168 F 
HETATM   26  F   UNL     1      40.810 -17.996   0.818  1.00  0.00    -0.168 F 
HETATM   27  F   UNL     1      42.038 -18.980   2.333  1.00  0.00    -0.168 F 
ENDBRANCH   5  24
BRANCH   5  28
HETATM   28  C   UNL     1      43.938 -17.446   1.468  1.00  0.00     0.426 C 
HETATM   29  F   UNL     1      44.963 -16.557   1.487  1.00  0.00    -0.168 F 
HETATM   30  F   UNL     1      44.212 -18.437   2.322  1.00  0.00    -0.168 F 
HETATM   31  F   UNL     1      43.937 -17.986   0.217  1.00  0.00    -0.168 F 
ENDBRANCH   5  28
BRANCH   6  32
HETATM   32  C   UNL     1      41.522 -12.125   3.442  1.00  0.00     0.140 C 
BRANCH  32  33
HETATM   33  C   UNL     1      39.991 -12.080   3.557  1.00  0.00     0.059 C 
BRANCH  33  34
HETATM   34  C   UNL     1      39.303 -12.137   2.216  1.00  0.00    -0.057 A 
HETATM   35  C   UNL     1      39.482 -11.118   1.269  1.00  0.00     0.007 A 
HETATM   36  C   UNL     1      38.852 -11.184   0.025  1.00  0.00     0.001 A 
HETATM   37  C   UNL     1      38.049 -12.276  -0.294  1.00  0.00     0.000 A 
HETATM   38  C   UNL     1      37.883 -13.307   0.628  1.00  0.00     0.001 A 
HETATM   39  C   UNL     1      38.508 -13.241   1.874  1.00  0.00     0.007 A 
ENDBRANCH  33  34
ENDBRANCH  32  33
ENDBRANCH   6  32
TORSDOF 7
ENDMDL
MODEL 4
REMARK VINA RESULT:      -9.2      1.456      1.824
REMARK  7 active torsions:
REMARK  status: ('A' for Active; 'I' for Inactive)
REMARK    1  A    between atoms: O_2  and  C_3 
REMARK    2  A    between atoms: C_5  and  C_6 
REMARK    3  A    between atoms: C_10  and  C_11 
REMARK    4  A    between atoms: C_10  and  C_15 
REMARK    5  A    between atoms: N_19  and  C_20 
REMARK    6  A    between atoms: C_20  and  C_21 
REMARK    7  A    between atoms: C_21  and  C_22 
ROOT
HETATM    1  C   UNL     1      43.042 -16.811   3.349  1.00  0.00     0.114 C 
HETATM    2  N   UNL     1      42.681 -16.056   2.330  1.00  0.00    -0.327 N 
HETATM    3  C   UNL     1      42.381 -14.716   2.453  1.00  0.00     0.128 A 
HETATM    4  C   UNL     1      42.386 -14.159   3.673  1.00  0.00     0.100 A 
HETATM    5  C   UNL     1      42.619 -14.921   4.954  1.00  0.00     0.264 C 
HETATM    6  N   UNL     1      42.080 -13.973   1.324  1.00  0.00    -0.284 N 
HETATM    7  C   UNL     1      41.818 -12.607   1.392  1.00  0.00     0.331 A 
HETATM    8  O   UNL     1      41.580 -11.902   0.418  1.00  0.00    -0.246 OA
HETATM    9  N   UNL     1      41.846 -12.059   2.637  1.00  0.00    -0.275 N 
HETATM   10  C   UNL     1      42.113 -12.723   3.784  1.00  0.00     0.262 A 
HETATM   11  O   UNL     1      42.144 -12.178   4.873  1.00  0.00    -0.267 OA
HETATM   12  N   UNL     1      43.081 -16.327   4.570  1.00  0.00    -0.347 N 
HETATM   13  H   UNL     1      43.415 -16.937   5.321  1.00  0.00     0.162 HD
HETATM   14  H   UNL     1      42.656 -16.511   1.426  1.00  0.00     0.169 HD
HETATM   15  H   UNL     1      41.663 -11.064   2.694  1.00  0.00     0.173 HD
ENDROOT
BRANCH   1  16
HETATM   16  C   UNL     1      43.424 -18.216   3.133  1.00  0.00     0.010 A 
HETATM   17  C   UNL     1      44.026 -18.948   4.171  1.00  0.00     0.052 A 
HETATM   18  C   UNL     1      44.448 -20.268   3.986  1.00  0.00     0.069 A 
HETATM   19  C   UNL     1      44.238 -20.883   2.755  1.00  0.00     0.037 A 
HETATM   20  C   UNL     1      43.625 -20.177   1.717  1.00  0.00     0.004 A 
HETATM   21  C   UNL     1      43.226 -18.850   1.900  1.00  0.00     0.015 A 
BRANCH  18  22
HETATM   22  O   UNL     1      45.041 -20.826   5.080  1.00  0.00    -0.356 OA
HETATM   23  C   UNL     1      45.094 -22.249   5.133  1.00  0.00     0.210 C 
ENDBRANCH  18  22
ENDBRANCH   1  16
BRANCH   5  24
HETATM   24  C   UNL     1      41.337 -15.082   5.777  1.00  0.00     0.426 C 
HETATM   25  F   UNL     1      40.340 -15.506   4.953  1.00  0.00    -0.168 F 
HETATM   26  F   UNL     1      41.493 -16.049   6.711  1.00  0.00    -0.168 F 
HETATM   27  F   UNL     1      40.901 -13.972   6.384  1.00  0.00    -0.168 F 
ENDBRANCH   5  24
BRANCH   5  28
HETATM   28  C   UNL     1      43.673 -14.354   5.914  1.00  0.00     0.426 C 
HETATM   29  F   UNL     1      44.661 -13.751   5.208  1.00  0.00    -0.168 F 
HETATM   30  F   UNL     1      43.229 -13.506   6.847  1.00  0.00    -0.168 F 
HETATM   31  F   UNL     1      44.264 -15.393   6.568  1.00  0.00    -0.168 F 
ENDBRANCH   5  28
BRANCH   6  32
HETATM   32  C   UNL     1      42.033 -14.545  -0.029  1.00  0.00     0.140 C 
BRANCH  32  33
HETATM   33  C   UNL     1      40.677 -15.198  -0.339  1.00  0.00     0.059 C 
BRANCH  33  34
HETATM   34  C   UNL     1      39.800 -14.337  -1.214  1.00  0.00    -0.057 A 
HETATM   35  C   UNL     1      40.062 -14.201  -2.586  1.00  0.00     0.007 A 
HETATM   36  C   UNL     1      39.239 -13.413  -3.392  1.00  0.00     0.001 A 
HETATM   37  C   UNL     1      38.136 -12.766  -2.841  1.00  0.00     0.000 A 
HETATM   38  C   UNL     1      37.851 -12.912  -1.486  1.00  0.00     0.001 A 
HETATM   39  C   UNL     1      38.675 -13.696  -0.676  1.00  0.00     0.007 A 
ENDBRANCH  33  34
ENDBRANCH  32  33
ENDBRANCH   6  32
TORSDOF 7
ENDMDL
MODEL 5
REMARK VINA RESULT:      -9.0      3.021      6.172
REMARK  7 active torsions:
REMARK  status: ('A' for Active; 'I' for Inactive)
REMARK    1  A    between atoms: O_2  and  C_3 
REMARK    2  A    between atoms: C_5  and  C_6 
REMARK    3  A    between atoms: C_10  and  C_11 
REMARK    4  A    between atoms: C_10  and  C_15 
REMARK    5  A    between atoms: N_19  and  C_20 
REMARK    6  A    between atoms: C_20  and  C_21 
REMARK    7  A    between atoms: C_21  and  C_22 
ROOT
HETATM    1  C   UNL     1      44.331 -14.550   6.546  1.00  0.00     0.114 C 
HETATM    2  N   UNL     1      43.835 -14.263   5.359  1.00  0.00    -0.327 N 
HETATM    3  C   UNL     1      43.097 -15.158   4.614  1.00  0.00     0.128 A 
HETATM    4  C   UNL     1      42.926 -16.404   5.078  1.00  0.00     0.100 A 
HETATM    5  C   UNL     1      43.562 -16.936   6.338  1.00  0.00     0.264 C 
HETATM    6  N   UNL     1      42.549 -14.757   3.407  1.00  0.00    -0.284 N 
HETATM    7  C   UNL     1      41.755 -15.610   2.642  1.00  0.00     0.331 A 
HETATM    8  O   UNL     1      41.223 -15.291   1.586  1.00  0.00    -0.246 OA
HETATM    9  N   UNL     1      41.581 -16.864   3.141  1.00  0.00    -0.275 N 
HETATM   10  C   UNL     1      42.098 -17.330   4.299  1.00  0.00     0.262 A 
HETATM   11  O   UNL     1      41.894 -18.459   4.709  1.00  0.00    -0.267 OA
HETATM   12  N   UNL     1      44.191 -15.749   7.067  1.00  0.00    -0.347 N 
HETATM   13  H   UNL     1      44.549 -15.909   8.013  1.00  0.00     0.162 HD
HETATM   14  H   UNL     1      44.006 -13.325   5.020  1.00  0.00     0.169 HD
HETATM   15  H   UNL     1      40.999 -17.488   2.593  1.00  0.00     0.173 HD
ENDROOT
BRANCH   1  16
HETATM   16  C   UNL     1      45.044 -13.522   7.322  1.00  0.00     0.010 A 
HETATM   17  C   UNL     1      44.393 -12.861   8.378  1.00  0.00     0.052 A 
HETATM   18  C   UNL     1      45.022 -11.844   9.102  1.00  0.00     0.069 A 
HETATM   19  C   UNL     1      46.334 -11.500   8.793  1.00  0.00     0.037 A 
HETATM   20  C   UNL     1      47.003 -12.158   7.758  1.00  0.00     0.004 A 
HETATM   21  C   UNL     1      46.363 -13.158   7.022  1.00  0.00     0.015 A 
BRANCH  18  22
HETATM   22  O   UNL     1      44.244 -11.283  10.072  1.00  0.00    -0.356 OA
HETATM   23  C   UNL     1      44.063 -12.031  11.271  1.00  0.00     0.210 C 
ENDBRANCH  18  22
ENDBRANCH   1  16
BRANCH   5  24
HETATM   24  C   UNL     1      44.693 -17.928   6.046  1.00  0.00     0.426 C 
HETATM   25  F   UNL     1      44.898 -17.971   4.700  1.00  0.00    -0.168 F 
HETATM   26  F   UNL     1      45.854 -17.496   6.591  1.00  0.00    -0.168 F 
HETATM   27  F   UNL     1      44.474 -19.184   6.452  1.00  0.00    -0.168 F 
ENDBRANCH   5  24
BRANCH   5  28
HETATM   28  C   UNL     1      42.634 -17.633   7.341  1.00  0.00     0.426 C 
HETATM   29  F   UNL     1      41.384 -17.114   7.248  1.00  0.00    -0.168 F 
HETATM   30  F   UNL     1      42.556 -18.963   7.250  1.00  0.00    -0.168 F 
HETATM   31  F   UNL     1      43.064 -17.343   8.601  1.00  0.00    -0.168 F 
ENDBRANCH   5  28
BRANCH   6  32
HETATM   32  C   UNL     1      42.733 -13.413   2.843  1.00  0.00     0.140 C 
BRANCH  32  33
HETATM   33  C   UNL     1      41.439 -12.586   2.873  1.00  0.00     0.059 C 
BRANCH  33  34
HETATM   34  C   UNL     1      40.903 -12.390   4.269  1.00  0.00    -0.057 A 
HETATM   35  C   UNL     1      39.735 -13.043   4.692  1.00  0.00     0.007 A 
HETATM   36  C   UNL     1      39.252 -12.867   5.990  1.00  0.00     0.001 A 
HETATM   37  C   UNL     1      39.938 -12.051   6.885  1.00  0.00     0.000 A 
HETATM   38  C   UNL     1      41.113 -11.417   6.486  1.00  0.00     0.001 A 
HETATM   39  C   UNL     1      41.595 -11.587   5.187  1.00  0.00     0.007 A 
ENDBRANCH  33  34
ENDBRANCH  32  33
ENDBRANCH   6  32
TORSDOF 7
ENDMDL
MODEL 6
REMARK VINA RESULT:      -8.7      3.487      7.286
REMARK  7 active torsions:
REMARK  status: ('A' for Active; 'I' for Inactive)
REMARK    1  A    between atoms: O_2  and  C_3 
REMARK    2  A    between atoms: C_5  and  C_6 
REMARK    3  A    between atoms: C_10  and  C_11 
REMARK    4  A    between atoms: C_10  and  C_15 
REMARK    5  A    between atoms: N_19  and  C_20 
REMARK    6  A    between atoms: C_20  and  C_21 
REMARK    7  A    between atoms: C_21  and  C_22 
ROOT
HETATM    1  C   UNL     1      42.304 -13.265   5.564  1.00  0.00     0.114 C 
HETATM    2  N   UNL     1      42.109 -14.461   5.045  1.00  0.00    -0.327 N 
HETATM    3  C   UNL     1      41.218 -14.702   4.022  1.00  0.00     0.128 A 
HETATM    4  C   UNL     1      40.457 -13.694   3.572  1.00  0.00     0.100 A 
HETATM    5  C   UNL     1      40.444 -12.308   4.168  1.00  0.00     0.264 C 
HETATM    6  N   UNL     1      41.122 -15.973   3.480  1.00  0.00    -0.284 N 
HETATM    7  C   UNL     1      40.271 -16.254   2.413  1.00  0.00     0.331 A 
HETATM    8  O   UNL     1      40.176 -17.354   1.880  1.00  0.00    -0.246 OA
HETATM    9  N   UNL     1      39.522 -15.212   1.961  1.00  0.00    -0.275 N 
HETATM   10  C   UNL     1      39.548 -13.953   2.451  1.00  0.00     0.262 A 
HETATM   11  O   UNL     1      38.869 -13.050   1.995  1.00  0.00    -0.267 OA
HETATM   12  N   UNL     1      41.603 -12.229   5.162  1.00  0.00    -0.347 N 
HETATM   13  H   UNL     1      41.825 -11.312   5.559  1.00  0.00     0.162 HD
HETATM   14  H   UNL     1      42.675 -15.210   5.425  1.00  0.00     0.169 HD
HETATM   15  H   UNL     1      38.905 -15.408   1.181  1.00  0.00     0.173 HD
ENDROOT
BRANCH   1  16
HETATM   16  C   UNL     1      43.329 -13.064   6.602  1.00  0.00     0.010 A 
HETATM   17  C   UNL     1      43.165 -12.056   7.567  1.00  0.00     0.052 A 
HETATM   18  C   UNL     1      44.141 -11.805   8.535  1.00  0.00     0.069 A 
HETATM   19  C   UNL     1      45.288 -12.591   8.566  1.00  0.00     0.037 A 
HETATM   20  C   UNL     1      45.461 -13.610   7.625  1.00  0.00     0.004 A 
HETATM   21  C   UNL     1      44.493 -13.843   6.645  1.00  0.00     0.015 A 
BRANCH  18  22
HETATM   22  O   UNL     1      43.844 -10.773   9.377  1.00  0.00    -0.356 OA
HETATM   23  C   UNL     1      44.397 -10.827  10.688  1.00  0.00     0.210 C 
ENDBRANCH  18  22
ENDBRANCH   1  16
BRANCH   5  24
HETATM   24  C   UNL     1      39.161 -12.024   4.955  1.00  0.00     0.426 C 
HETATM   25  F   UNL     1      38.761 -13.174   5.565  1.00  0.00    -0.168 F 
HETATM   26  F   UNL     1      39.401 -11.134   5.946  1.00  0.00    -0.168 F 
HETATM   27  F   UNL     1      38.128 -11.583   4.229  1.00  0.00    -0.168 F 
ENDBRANCH   5  24
BRANCH   5  28
HETATM   28  C   UNL     1      40.614 -11.135   3.194  1.00  0.00     0.426 C 
HETATM   29  F   UNL     1      41.465 -11.484   2.197  1.00  0.00    -0.168 F 
HETATM   30  F   UNL     1      39.494 -10.646   2.654  1.00  0.00    -0.168 F 
HETATM   31  F   UNL     1      41.219 -10.108   3.856  1.00  0.00    -0.168 F 
ENDBRANCH   5  28
BRANCH   6  32
HETATM   32  C   UNL     1      41.911 -17.116   3.959  1.00  0.00     0.140 C 
BRANCH  32  33
HETATM   33  C   UNL     1      43.198 -17.318   3.144  1.00  0.00     0.059 C 
BRANCH  33  34
HETATM   34  C   UNL     1      43.622 -18.764   3.071  1.00  0.00    -0.057 A 
HETATM   35  C   UNL     1      43.370 -19.533   1.925  1.00  0.00     0.007 A 
HETATM   36  C   UNL     1      43.778 -20.866   1.859  1.00  0.00     0.001 A 
HETATM   37  C   UNL     1      44.455 -21.442   2.931  1.00  0.00     0.000 A 
HETATM   38  C   UNL     1      44.734 -20.683   4.065  1.00  0.00     0.001 A 
HETATM   39  C   UNL     1      44.323 -19.351   4.135  1.00  0.00     0.007 A 
ENDBRANCH  33  34
ENDBRANCH  32  33
ENDBRANCH   6  32
TORSDOF 7
ENDMDL
MODEL 7
REMARK VINA RESULT:      -8.7      4.744      7.149
REMARK  7 active torsions:
REMARK  status: ('A' for Active; 'I' for Inactive)
REMARK    1  A    between atoms: O_2  and  C_3 
REMARK    2  A    between atoms: C_5  and  C_6 
REMARK    3  A    between atoms: C_10  and  C_11 
REMARK    4  A    between atoms: C_10  and  C_15 
REMARK    5  A    between atoms: N_19  and  C_20 
REMARK    6  A    between atoms: C_20  and  C_21 
REMARK    7  A    between atoms: C_21  and  C_22 
ROOT
HETATM    1  C   UNL     1      41.099 -15.580   0.232  1.00  0.00     0.114 C 
HETATM    2  N   UNL     1      40.431 -14.619   0.840  1.00  0.00    -0.327 N 
HETATM    3  C   UNL     1      39.651 -13.703   0.168  1.00  0.00     0.128 A 
HETATM    4  C   UNL     1      39.616 -13.737  -1.172  1.00  0.00     0.100 A 
HETATM    5  C   UNL     1      40.446 -14.669  -2.020  1.00  0.00     0.264 C 
HETATM    6  N   UNL     1      38.922 -12.767   0.883  1.00  0.00    -0.284 N 
HETATM    7  C   UNL     1      38.082 -11.852   0.252  1.00  0.00     0.331 A 
HETATM    8  O   UNL     1      37.394 -11.028   0.843  1.00  0.00    -0.246 OA
HETATM    9  N   UNL     1      38.048 -11.918  -1.107  1.00  0.00    -0.275 N 
HETATM   10  C   UNL     1      38.743 -12.789  -1.871  1.00  0.00     0.262 A 
HETATM   11  O   UNL     1      38.661 -12.816  -3.086  1.00  0.00    -0.267 OA
HETATM   12  N   UNL     1      41.099 -15.681  -1.078  1.00  0.00    -0.347 N 
HETATM   13  H   UNL     1      41.591 -16.473  -1.502  1.00  0.00     0.162 HD
HETATM   14  H   UNL     1      40.501 -14.598   1.850  1.00  0.00     0.169 HD
HETATM   15  H   UNL     1      37.434 -11.259  -1.572  1.00  0.00     0.173 HD
ENDROOT
BRANCH   1  16
HETATM   16  C   UNL     1      41.851 -16.573   1.018  1.00  0.00     0.010 A 
HETATM   17  C   UNL     1      41.424 -16.915   2.311  1.00  0.00     0.052 A 
HETATM   18  C   UNL     1      42.141 -17.816   3.104  1.00  0.00     0.069 A 
HETATM   19  C   UNL     1      43.288 -18.412   2.589  1.00  0.00     0.037 A 
HETATM   20  C   UNL     1      43.719 -18.097   1.297  1.00  0.00     0.004 A 
HETATM   21  C   UNL     1      43.011 -17.179   0.518  1.00  0.00     0.015 A 
BRANCH  18  22
HETATM   22  O   UNL     1      41.611 -18.016   4.345  1.00  0.00    -0.356 OA
HETATM   23  C   UNL     1      42.525 -18.299   5.401  1.00  0.00     0.210 C 
ENDBRANCH  18  22
ENDBRANCH   1  16
BRANCH   5  24
HETATM   24  C   UNL     1      41.581 -13.940  -2.746  1.00  0.00     0.426 C 
HETATM   25  F   UNL     1      42.404 -13.380  -1.818  1.00  0.00    -0.168 F 
HETATM   26  F   UNL     1      42.339 -14.819  -3.442  1.00  0.00    -0.168 F 
HETATM   27  F   UNL     1      41.197 -12.961  -3.574  1.00  0.00    -0.168 F 
ENDBRANCH   5  24
BRANCH   5  28
HETATM   28  C   UNL     1      39.703 -15.476  -3.092  1.00  0.00     0.426 C 
HETATM   29  F   UNL     1      38.396 -15.601  -2.751  1.00  0.00    -0.168 F 
HETATM   30  F   UNL     1      39.780 -15.010  -4.342  1.00  0.00    -0.168 F 
HETATM   31  F   UNL     1      40.207 -16.741  -3.107  1.00  0.00    -0.168 F 
ENDBRANCH   5  28
BRANCH   6  32
HETATM   32  C   UNL     1      38.952 -12.670   2.349  1.00  0.00     0.140 C 
BRANCH  32  33
HETATM   33  C   UNL     1      40.207 -11.947   2.860  1.00  0.00     0.059 C 
BRANCH  33  34
HETATM   34  C   UNL     1      41.215 -12.887   3.472  1.00  0.00    -0.057 A 
HETATM   35  C   UNL     1      42.494 -13.036   2.916  1.00  0.00     0.007 A 
HETATM   36  C   UNL     1      43.426 -13.898   3.495  1.00  0.00     0.001 A 
HETATM   37  C   UNL     1      43.097 -14.610   4.645  1.00  0.00     0.000 A 
HETATM   38  C   UNL     1      41.839 -14.454   5.223  1.00  0.00     0.001 A 
HETATM   39  C   UNL     1      40.903 -13.595   4.642  1.00  0.00     0.007 A 
ENDBRANCH  33  34
ENDBRANCH  32  33
ENDBRANCH   6  32
TORSDOF 7
ENDMDL
MODEL 8
REMARK VINA RESULT:      -8.6      3.404      6.503
REMARK  7 active torsions:
REMARK  status: ('A' for Active; 'I' for Inactive)
REMARK    1  A    between atoms: O_2  and  C_3 
REMARK    2  A    between atoms: C_5  and  C_6 
REMARK    3  A    between atoms: C_10  and  C_11 
REMARK    4  A    between atoms: C_10  and  C_15 
REMARK    5  A    between atoms: N_19  and  C_20 
REMARK    6  A    between atoms: C_20  and  C_21 
REMARK    7  A    between atoms: C_21  and  C_22 
ROOT
HETATM    1  C   UNL     1      42.107 -14.336   3.874  1.00  0.00     0.114 C 
HETATM    2  N   UNL     1      42.145 -15.122   2.817  1.00  0.00    -0.327 N 
HETATM    3  C   UNL     1      41.550 -14.800   1.616  1.00  0.00     0.128 A 
HETATM    4  C   UNL     1      40.837 -13.667   1.528  1.00  0.00     0.100 A 
HETATM    5  C   UNL     1      40.564 -12.743   2.689  1.00  0.00     0.264 C 
HETATM    6  N   UNL     1      41.695 -15.646   0.529  1.00  0.00    -0.284 N 
HETATM    7  C   UNL     1      41.152 -15.339  -0.717  1.00  0.00     0.331 A 
HETATM    8  O   UNL     1      41.282 -16.039  -1.715  1.00  0.00    -0.246 OA
HETATM    9  N   UNL     1      40.449 -14.177  -0.788  1.00  0.00    -0.275 N 
HETATM   10  C   UNL     1      40.250 -13.313   0.232  1.00  0.00     0.262 A 
HETATM   11  O   UNL     1      39.626 -12.274   0.109  1.00  0.00    -0.267 OA
HETATM   12  N   UNL     1      41.438 -13.205   3.855  1.00  0.00    -0.347 N 
HETATM   13  H   UNL     1      41.480 -12.605   4.683  1.00  0.00     0.162 HD
HETATM   14  H   UNL     1      42.664 -15.986   2.922  1.00  0.00     0.169 HD
HETATM   15  H   UNL     1      40.057 -13.944  -1.693  1.00  0.00     0.173 HD
ENDROOT
BRANCH   1  16
HETATM   16  C   UNL     1      42.832 -14.707   5.102  1.00  0.00     0.010 A 
HETATM   17  C   UNL     1      43.911 -13.923   5.544  1.00  0.00     0.052 A 
HETATM   18  C   UNL     1      44.653 -14.274   6.676  1.00  0.00     0.069 A 
HETATM   19  C   UNL     1      44.296 -15.407   7.401  1.00  0.00     0.037 A 
HETATM   20  C   UNL     1      43.214 -16.188   6.986  1.00  0.00     0.004 A 
HETATM   21  C   UNL     1      42.490 -15.847   5.840  1.00  0.00     0.015 A 
BRANCH  18  22
HETATM   22  O   UNL     1      45.687 -13.427   6.953  1.00  0.00    -0.356 OA
HETATM   23  C   UNL     1      45.654 -12.754   8.208  1.00  0.00     0.210 C 
ENDBRANCH  18  22
ENDBRANCH   1  16
BRANCH   5  24
HETATM   24  C   UNL     1      39.110 -12.819   3.164  1.00  0.00     0.426 C 
HETATM   25  F   UNL     1      38.706 -14.119   3.128  1.00  0.00    -0.168 F 
HETATM   26  F   UNL     1      39.014 -12.431   4.458  1.00  0.00    -0.168 F 
HETATM   27  F   UNL     1      38.232 -12.113   2.443  1.00  0.00    -0.168 F 
ENDBRANCH   5  24
BRANCH   5  28
HETATM   28  C   UNL     1      40.864 -11.254   2.473  1.00  0.00     0.426 C 
HETATM   29  F   UNL     1      41.293 -10.698   3.633  1.00  0.00    -0.168 F 
HETATM   30  F   UNL     1      41.736 -10.960   1.504  1.00  0.00    -0.168 F 
HETATM   31  F   UNL     1      39.698 -10.620   2.165  1.00  0.00    -0.168 F 
ENDBRANCH   5  28
BRANCH   6  32
HETATM   32  C   UNL     1      42.440 -16.911   0.585  1.00  0.00     0.140 C 
BRANCH  32  33
HETATM   33  C   UNL     1      41.795 -17.925   1.542  1.00  0.00     0.059 C 
BRANCH  33  34
HETATM   34  C   UNL     1      42.812 -18.753   2.288  1.00  0.00    -0.057 A 
HETATM   35  C   UNL     1      43.296 -18.345   3.540  1.00  0.00     0.007 A 
HETATM   36  C   UNL     1      44.227 -19.123   4.230  1.00  0.00     0.001 A 
HETATM   37  C   UNL     1      44.673 -20.324   3.686  1.00  0.00     0.000 A 
HETATM   38  C   UNL     1      44.182 -20.753   2.455  1.00  0.00     0.001 A 
HETATM   39  C   UNL     1      43.254 -19.975   1.760  1.00  0.00     0.007 A 
ENDBRANCH  33  34
ENDBRANCH  32  33
ENDBRANCH   6  32
TORSDOF 7
ENDMDL
MODEL 9
REMARK VINA RESULT:      -8.6      3.692      7.964
REMARK  7 active torsions:
REMARK  status: ('A' for Active; 'I' for Inactive)
REMARK    1  A    between atoms: O_2  and  C_3 
REMARK    2  A    between atoms: C_5  and  C_6 
REMARK    3  A    between atoms: C_10  and  C_11 
REMARK    4  A    between atoms: C_10  and  C_15 
REMARK    5  A    between atoms: N_19  and  C_20 
REMARK    6  A    between atoms: C_20  and  C_21 
REMARK    7  A    between atoms: C_21  and  C_22 
ROOT
HETATM    1  C   UNL     1      42.994 -13.085   6.903  1.00  0.00     0.114 C 
HETATM    2  N   UNL     1      42.895 -14.396   6.794  1.00  0.00    -0.327 N 
HETATM    3  C   UNL     1      42.068 -15.015   5.882  1.00  0.00     0.128 A 
HETATM    4  C   UNL     1      41.271 -14.261   5.111  1.00  0.00     0.100 A 
HETATM    5  C   UNL     1      41.149 -12.762   5.226  1.00  0.00     0.264 C 
HETATM    6  N   UNL     1      42.072 -16.396   5.779  1.00  0.00    -0.284 N 
HETATM    7  C   UNL     1      41.290 -17.065   4.839  1.00  0.00     0.331 A 
HETATM    8  O   UNL     1      41.285 -18.281   4.688  1.00  0.00    -0.246 OA
HETATM    9  N   UNL     1      40.503 -16.279   4.055  1.00  0.00    -0.275 N 
HETATM   10  C   UNL     1      40.432 -14.931   4.111  1.00  0.00     0.262 A 
HETATM   11  O   UNL     1      39.723 -14.273   3.371  1.00  0.00    -0.267 OA
HETATM   12  N   UNL     1      42.252 -12.286   6.170  1.00  0.00    -0.347 N 
HETATM   13  H   UNL     1      42.401 -11.276   6.254  1.00  0.00     0.162 HD
HETATM   14  H   UNL     1      43.485 -14.940   7.410  1.00  0.00     0.169 HD
HETATM   15  H   UNL     1      39.936 -16.758   3.365  1.00  0.00     0.173 HD
ENDROOT
BRANCH   1  16
HETATM   16  C   UNL     1      43.956 -12.490   7.846  1.00  0.00     0.010 A 
HETATM   17  C   UNL     1      43.519 -11.554   8.798  1.00  0.00     0.052 A 
HETATM   18  C   UNL     1      44.413 -10.931   9.674  1.00  0.00     0.069 A 
HETATM   19  C   UNL     1      45.762 -11.269   9.625  1.00  0.00     0.037 A 
HETATM   20  C   UNL     1      46.212 -12.211   8.696  1.00  0.00     0.004 A 
HETATM   21  C   UNL     1      45.319 -12.813   7.807  1.00  0.00     0.015 A 
BRANCH  18  22
HETATM   22  O   UNL     1      43.834 -10.025  10.515  1.00  0.00    -0.356 OA
HETATM   23  C   UNL     1      43.833 -10.339  11.904  1.00  0.00     0.210 C 
ENDBRANCH  18  22
ENDBRANCH   1  16
BRANCH   5  24
HETATM   24  C   UNL     1      39.815 -12.332   5.846  1.00  0.00     0.426 C 
HETATM   25  F   UNL     1      39.431 -13.275   6.750  1.00  0.00    -0.168 F 
HETATM   26  F   UNL     1      39.966 -11.181   6.542  1.00  0.00    -0.168 F 
HETATM   27  F   UNL     1      38.804 -12.177   4.984  1.00  0.00    -0.168 F 
ENDBRANCH   5  24
BRANCH   5  28
HETATM   28  C   UNL     1      41.295 -11.955   3.929  1.00  0.00     0.426 C 
HETATM   29  F   UNL     1      42.301 -12.468   3.179  1.00  0.00    -0.168 F 
HETATM   30  F   UNL     1      40.200 -11.851   3.170  1.00  0.00    -0.168 F 
HETATM   31  F   UNL     1      41.678 -10.687   4.251  1.00  0.00    -0.168 F 
ENDBRANCH   5  28
BRANCH   6  32
HETATM   32  C   UNL     1      42.905 -17.266   6.622  1.00  0.00     0.140 C 
BRANCH  32  33
HETATM   33  C   UNL     1      44.208 -17.681   5.922  1.00  0.00     0.059 C 
BRANCH  33  34
HETATM   34  C   UNL     1      44.331 -19.175   5.756  1.00  0.00    -0.057 A 
HETATM   35  C   UNL     1      44.973 -19.726   4.636  1.00  0.00     0.007 A 
HETATM   36  C   UNL     1      45.095 -21.109   4.495  1.00  0.00     0.001 A 
HETATM   37  C   UNL     1      44.592 -21.957   5.477  1.00  0.00     0.000 A 
HETATM   38  C   UNL     1      43.974 -21.423   6.606  1.00  0.00     0.001 A 
HETATM   39  C   UNL     1      43.847 -20.040   6.747  1.00  0.00     0.007 A 
ENDBRANCH  33  34
ENDBRANCH  32  33
ENDBRANCH   6  32
TORSDOF 7
ENDMDL
MODEL 10
REMARK VINA RESULT:      -8.6      2.039      5.708
REMARK  7 active torsions:
REMARK  status: ('A' for Active; 'I' for Inactive)
REMARK    1  A    between atoms: O_2  and  C_3 
REMARK    2  A    between atoms: C_5  and  C_6 
REMARK    3  A    between atoms: C_10  and  C_11 
REMARK    4  A    between atoms: C_10  and  C_15 
REMARK    5  A    between atoms: N_19  and  C_20 
REMARK    6  A    between atoms: C_20  and  C_21 
REMARK    7  A    between atoms: C_21  and  C_22 
ROOT
HETATM    1  C   UNL     1      42.863 -16.024   4.851  1.00  0.00     0.114 C 
HETATM    2  N   UNL     1      43.023 -16.704   3.733  1.00  0.00    -0.327 N 
HETATM    3  C   UNL     1      43.485 -18.002   3.699  1.00  0.00     0.128 A 
HETATM    4  C   UNL     1      43.859 -18.588   4.846  1.00  0.00     0.100 A 
HETATM    5  C   UNL     1      43.890 -17.893   6.185  1.00  0.00     0.264 C 
HETATM    6  N   UNL     1      43.557 -18.674   2.490  1.00  0.00    -0.284 N 
HETATM    7  C   UNL     1      43.972 -20.002   2.412  1.00  0.00     0.331 A 
HETATM    8  O   UNL     1      44.021 -20.647   1.371  1.00  0.00    -0.246 OA
HETATM    9  N   UNL     1      44.329 -20.581   3.590  1.00  0.00    -0.275 N 
HETATM   10  C   UNL     1      44.303 -19.985   4.802  1.00  0.00     0.262 A 
HETATM   11  O   UNL     1      44.616 -20.558   5.830  1.00  0.00    -0.267 OA
HETATM   12  N   UNL     1      43.197 -16.541   6.012  1.00  0.00    -0.347 N 
HETATM   13  H   UNL     1      43.008 -15.994   6.857  1.00  0.00     0.162 HD
HETATM   14  H   UNL     1      42.762 -16.225   2.879  1.00  0.00     0.169 HD
HETATM   15  H   UNL     1      44.626 -21.550   3.541  1.00  0.00     0.173 HD
ENDROOT
BRANCH   1  16
HETATM   16  C   UNL     1      42.290 -14.667   4.820  1.00  0.00     0.010 A 
HETATM   17  C   UNL     1      41.196 -14.348   5.642  1.00  0.00     0.052 A 
HETATM   18  C   UNL     1      40.595 -13.087   5.601  1.00  0.00     0.069 A 
HETATM   19  C   UNL     1      41.112 -12.113   4.752  1.00  0.00     0.037 A 
HETATM   20  C   UNL     1      42.212 -12.407   3.941  1.00  0.00     0.004 A 
HETATM   21  C   UNL     1      42.794 -13.677   3.968  1.00  0.00     0.015 A 
BRANCH  18  22
HETATM   22  O   UNL     1      39.525 -12.948   6.437  1.00  0.00    -0.356 OA
HETATM   23  C   UNL     1      39.528 -11.824   7.312  1.00  0.00     0.210 C 
ENDBRANCH  18  22
ENDBRANCH   1  16
BRANCH   5  24
HETATM   24  C   UNL     1      45.318 -17.605   6.658  1.00  0.00     0.426 C 
HETATM   25  F   UNL     1      46.189 -18.030   5.702  1.00  0.00    -0.168 F 
HETATM   26  F   UNL     1      45.515 -16.271   6.783  1.00  0.00    -0.168 F 
HETATM   27  F   UNL     1      45.673 -18.195   7.805  1.00  0.00    -0.168 F 
ENDBRANCH   5  24
BRANCH   5  28
HETATM   28  C   UNL     1      43.190 -18.605   7.350  1.00  0.00     0.426 C 
HETATM   29  F   UNL     1      42.073 -19.230   6.903  1.00  0.00    -0.168 F 
HETATM   30  F   UNL     1      43.929 -19.481   8.037  1.00  0.00    -0.168 F 
HETATM   31  F   UNL     1      42.761 -17.663   8.236  1.00  0.00    -0.168 F 
ENDBRANCH   5  28
BRANCH   6  32
HETATM   32  C   UNL     1      43.188 -18.064   1.205  1.00  0.00     0.140 C 
BRANCH  32  33
HETATM   33  C   UNL     1      41.667 -18.016   0.999  1.00  0.00     0.059 C 
BRANCH  33  34
HETATM   34  C   UNL     1      41.100 -16.627   1.152  1.00  0.00    -0.057 A 
HETATM   35  C   UNL     1      40.039 -16.373   2.035  1.00  0.00     0.007 A 
HETATM   36  C   UNL     1      39.528 -15.083   2.181  1.00  0.00     0.001 A 
HETATM   37  C   UNL     1      40.081 -14.028   1.460  1.00  0.00     0.000 A 
HETATM   38  C   UNL     1      41.150 -14.261   0.598  1.00  0.00     0.001 A 
HETATM   39  C   UNL     1      41.660 -15.552   0.447  1.00  0.00     0.007 A 
ENDBRANCH  33  34
ENDBRANCH  32  33
ENDBRANCH   6  32
TORSDOF 7
ENDMDL
