MODEL 1
REMARK VINA RESULT:      -9.7      0.000      0.000
REMARK  9 active torsions:
REMARK  status: ('A' for Active; 'I' for Inactive)
REMARK    1  A    between atoms: C_2  and  O_3 
REMARK    2  A    between atoms: O_3  and  C_4 
REMARK    3  A    between atoms: C_4  and  C_5 
REMARK    4  A    between atoms: C_8  and  N_9 
REMARK       I    between atoms: N_9  and  C_10 
REMARK    5  A    between atoms: C_10  and  C_11 
REMARK    6  A    between atoms: C_13  and  N_14 
REMARK    7  A    between atoms: N_17  and  C_19 
REMARK    8  A    between atoms: C_19  and  C_20 
REMARK    9  A    between atoms: C_19  and  C_26 
ROOT
HETATM    1  C   UNL     1      41.204 -13.584   1.274  1.00  0.00     0.200 C 
HETATM    2  N   UNL     1      41.136 -13.247   2.687  1.00  0.00    -0.211 N 
HETATM    3  C   UNL     1      39.973 -13.429   3.358  1.00  0.00     0.702 C 
HETATM    4  N   UNL     1      38.826 -13.672   2.825  1.00  0.00    -0.028 NA
HETATM    5  C   UNL     1      38.774 -13.837   1.460  1.00  0.00     0.263 C 
HETATM    6  O   UNL     1      37.818 -14.380   0.915  1.00  0.00    -0.271 OA
HETATM    7  C   UNL     1      39.880 -13.241   0.626  1.00  0.00     0.141 C 
HETATM    8  H   UNL     1      41.986 -13.414   3.211  1.00  0.00     0.178 HD
ENDROOT
BRANCH   3   9
HETATM    9  N   UNL     1      40.125 -13.250   4.713  1.00  0.00    -0.213 N 
HETATM   10  C   UNL     1      41.059 -12.181   5.141  1.00  0.00     0.169 C 
HETATM   11  C   UNL     1      42.515 -12.694   5.187  1.00  0.00     0.256 C 
HETATM   12  N   UNL     1      42.599 -13.895   6.131  1.00  0.00    -0.056 N 
HETATM   13  H   UNL     1      42.184 -13.629   7.028  1.00  0.00     0.281 HD
HETATM   14  C   UNL     1      41.694 -15.006   5.591  1.00  0.00     0.256 C 
HETATM   15  C   UNL     1      40.242 -14.484   5.528  1.00  0.00     0.169 C 
BRANCH  12  16
HETATM   16  C   UNL     1      44.008 -14.369   6.476  1.00  0.00     0.254 C 
BRANCH  16  17
HETATM   17  C   UNL     1      44.784 -13.396   7.356  1.00  0.00    -0.023 A 
HETATM   18  C   UNL     1      44.177 -12.725   8.434  1.00  0.00     0.009 A 
HETATM   19  C   UNL     1      44.907 -11.832   9.218  1.00  0.00     0.001 A 
HETATM   20  C   UNL     1      46.252 -11.596   8.942  1.00  0.00     0.000 A 
HETATM   21  C   UNL     1      46.870 -12.255   7.884  1.00  0.00     0.001 A 
HETATM   22  C   UNL     1      46.144 -13.148   7.095  1.00  0.00     0.009 A 
ENDBRANCH  16  17
BRANCH  16  23
HETATM   23  C   UNL     1      44.100 -15.836   6.924  1.00  0.00    -0.023 A 
HETATM   24  C   UNL     1      43.423 -16.369   8.038  1.00  0.00     0.009 A 
HETATM   25  C   UNL     1      43.529 -17.727   8.362  1.00  0.00     0.001 A 
HETATM   26  C   UNL     1      44.311 -18.576   7.587  1.00  0.00     0.000 A 
HETATM   27  C   UNL     1      44.988 -18.076   6.482  1.00  0.00     0.001 A 
HETATM   28  C   UNL     1      44.879 -16.723   6.150  1.00  0.00     0.009 A 
ENDBRANCH  16  23
ENDBRANCH  12  16
ENDBRANCH   3   9
BRANCH   1  29
HETATM   29  C   UNL     1      41.581 -15.070   1.060  1.00  0.00     0.246 C 
HETATM   30  N   UNL     1      42.242 -15.606   2.157  1.00  0.00    -0.325 N 
HETATM   31  H   UNL     1      42.327 -15.022   2.982  1.00  0.00     0.169 HD
HETATM   32  O   UNL     1      41.280 -15.662   0.026  1.00  0.00    -0.271 OA
BRANCH  30  33
HETATM   33  C   UNL     1      42.834 -16.879   2.279  1.00  0.00     0.034 A 
HETATM   34  C   UNL     1      43.901 -17.329   1.504  1.00  0.00     0.030 A 
HETATM   35  C   UNL     1      44.467 -18.591   1.743  1.00  0.00     0.020 A 
HETATM   36  C   UNL     1      43.974 -19.415   2.761  1.00  0.00     0.039 A 
HETATM   37  C   UNL     1      42.886 -18.977   3.522  1.00  0.00     0.020 A 
HETATM   38  C   UNL     1      42.322 -17.719   3.280  1.00  0.00     0.030 A 
BRANCH  36  39
HETATM   39  C   UNL     1      44.649 -20.718   3.014  1.00  0.00     0.293 C 
HETATM   40  O   UNL     1      44.670 -21.631   2.205  1.00  0.00    -0.259 OA
BRANCH  39  41
HETATM   41  O   UNL     1      45.255 -20.707   4.227  1.00  0.00    -0.318 OA
BRANCH  41  42
HETATM   42  C   UNL     1      45.123 -21.904   5.008  1.00  0.00     0.174 C 
HETATM   43  C   UNL     1      44.119 -21.699   6.125  1.00  0.00     0.034 C 
ENDBRANCH  41  42
ENDBRANCH  39  41
ENDBRANCH  36  39
ENDBRANCH  30  33
ENDBRANCH   1  29
TORSDOF 9
ENDMDL
MODEL 2
REMARK VINA RESULT:      -9.1      3.467      7.297
REMARK  9 active torsions:
REMARK  status: ('A' for Active; 'I' for Inactive)
REMARK    1  A    between atoms: C_2  and  O_3 
REMARK    2  A    between atoms: O_3  and  C_4 
REMARK    3  A    between atoms: C_4  and  C_5 
REMARK    4  A    between atoms: C_8  and  N_9 
REMARK       I    between atoms: N_9  and  C_10 
REMARK    5  A    between atoms: C_10  and  C_11 
REMARK    6  A    between atoms: C_13  and  N_14 
REMARK    7  A    between atoms: N_17  and  C_19 
REMARK    8  A    between atoms: C_19  and  C_20 
REMARK    9  A    between atoms: C_19  and  C_26 
ROOT
HETATM    1  C   UNL     1      39.063 -13.054   3.596  1.00  0.00     0.200 C 
HETATM    2  N   UNL     1      39.377 -14.231   2.801  1.00  0.00    -0.211 N 
HETATM    3  C   UNL     1      40.401 -14.182   1.916  1.00  0.00     0.702 C 
HETATM    4  N   UNL     1      41.013 -13.116   1.531  1.00  0.00    -0.028 NA
HETATM    5  C   UNL     1      40.655 -11.923   2.116  1.00  0.00     0.263 C 
HETATM    6  O   UNL     1      41.381 -10.936   2.058  1.00  0.00    -0.271 OA
HETATM    7  C   UNL     1      39.291 -11.820   2.750  1.00  0.00     0.141 C 
HETATM    8  H   UNL     1      39.231 -15.118   3.269  1.00  0.00     0.178 HD
ENDROOT
BRANCH   3   9
HETATM    9  N   UNL     1      40.691 -15.420   1.391  1.00  0.00    -0.213 N 
HETATM   10  C   UNL     1      40.242 -16.595   2.175  1.00  0.00     0.169 C 
HETATM   11  C   UNL     1      41.273 -16.970   3.264  1.00  0.00     0.256 C 
HETATM   12  N   UNL     1      42.626 -17.244   2.604  1.00  0.00    -0.056 N 
HETATM   13  H   UNL     1      42.487 -17.928   1.857  1.00  0.00     0.281 HD
HETATM   14  C   UNL     1      43.091 -15.971   1.892  1.00  0.00     0.256 C 
HETATM   15  C   UNL     1      42.049 -15.587   0.819  1.00  0.00     0.169 C 
BRANCH  12  16
HETATM   16  C   UNL     1      43.689 -17.861   3.508  1.00  0.00     0.254 C 
BRANCH  16  17
HETATM   17  C   UNL     1      43.523 -17.509   4.981  1.00  0.00    -0.023 A 
HETATM   18  C   UNL     1      42.954 -18.410   5.900  1.00  0.00     0.009 A 
HETATM   19  C   UNL     1      42.803 -18.059   7.242  1.00  0.00     0.001 A 
HETATM   20  C   UNL     1      43.218 -16.806   7.687  1.00  0.00     0.000 A 
HETATM   21  C   UNL     1      43.788 -15.903   6.795  1.00  0.00     0.001 A 
HETATM   22  C   UNL     1      43.939 -16.249   5.451  1.00  0.00     0.009 A 
ENDBRANCH  16  17
BRANCH  16  23
HETATM   23  C   UNL     1      43.971 -19.349   3.244  1.00  0.00    -0.023 A 
HETATM   24  C   UNL     1      44.694 -20.186   4.114  1.00  0.00     0.009 A 
HETATM   25  C   UNL     1      44.879 -21.542   3.821  1.00  0.00     0.001 A 
HETATM   26  C   UNL     1      44.351 -22.088   2.656  1.00  0.00     0.000 A 
HETATM   27  C   UNL     1      43.632 -21.284   1.780  1.00  0.00     0.001 A 
HETATM   28  C   UNL     1      43.439 -19.932   2.073  1.00  0.00     0.009 A 
ENDBRANCH  16  23
ENDBRANCH  12  16
ENDBRANCH   3   9
BRANCH   1  29
HETATM   29  C   UNL     1      39.888 -13.014   4.905  1.00  0.00     0.246 C 
HETATM   30  N   UNL     1      39.632 -11.872   5.651  1.00  0.00    -0.325 N 
HETATM   31  H   UNL     1      38.899 -11.253   5.321  1.00  0.00     0.169 HD
HETATM   32  O   UNL     1      40.649 -13.931   5.208  1.00  0.00    -0.271 OA
BRANCH  30  33
HETATM   33  C   UNL     1      40.275 -11.440   6.829  1.00  0.00     0.034 A 
HETATM   34  C   UNL     1      41.603 -11.020   6.892  1.00  0.00     0.030 A 
HETATM   35  C   UNL     1      42.138 -10.544   8.099  1.00  0.00     0.020 A 
HETATM   36  C   UNL     1      41.351 -10.481   9.255  1.00  0.00     0.039 A 
HETATM   37  C   UNL     1      40.027 -10.927   9.200  1.00  0.00     0.020 A 
HETATM   38  C   UNL     1      39.497 -11.403   7.995  1.00  0.00     0.030 A 
BRANCH  36  39
HETATM   39  C   UNL     1      41.948  -9.911  10.494  1.00  0.00     0.293 C 
HETATM   40  O   UNL     1      41.775  -8.758  10.854  1.00  0.00    -0.259 OA
BRANCH  39  41
HETATM   41  O   UNL     1      42.654 -10.861  11.157  1.00  0.00    -0.318 OA
BRANCH  41  42
HETATM   42  C   UNL     1      43.967 -10.480  11.594  1.00  0.00     0.174 C 
HETATM   43  C   UNL     1      45.008 -10.904  10.576  1.00  0.00     0.034 C 
ENDBRANCH  41  42
ENDBRANCH  39  41
ENDBRANCH  36  39
ENDBRANCH  30  33
ENDBRANCH   1  29
TORSDOF 9
ENDMDL
MODEL 3
REMARK VINA RESULT:      -8.9      3.045      6.574
REMARK  9 active torsions:
REMARK  status: ('A' for Active; 'I' for Inactive)
REMARK    1  A    between atoms: C_2  and  O_3 
REMARK    2  A    between atoms: O_3  and  C_4 
REMARK    3  A    between atoms: C_4  and  C_5 
REMARK    4  A    between atoms: C_8  and  N_9 
REMARK       I    between atoms: N_9  and  C_10 
REMARK    5  A    between atoms: C_10  and  C_11 
REMARK    6  A    between atoms: C_13  and  N_14 
REMARK    7  A    between atoms: N_17  and  C_19 
REMARK    8  A    between atoms: C_19  and  C_20 
REMARK    9  A    between atoms: C_19  and  C_26 
ROOT
HETATM    1  C   UNL     1      39.860 -11.938   0.642  1.00  0.00     0.200 C 
HETATM    2  N   UNL     1      39.682 -13.379   0.744  1.00  0.00    -0.211 N 
HETATM    3  C   UNL     1      40.688 -14.202   0.362  1.00  0.00     0.702 C 
HETATM    4  N   UNL     1      41.735 -13.853  -0.301  1.00  0.00    -0.028 NA
HETATM    5  C   UNL     1      41.897 -12.518  -0.591  1.00  0.00     0.263 C 
HETATM    6  O   UNL     1      42.987 -12.059  -0.919  1.00  0.00    -0.271 OA
HETATM    7  C   UNL     1      40.674 -11.635  -0.598  1.00  0.00     0.141 C 
HETATM    8  H   UNL     1      39.123 -13.688   1.530  1.00  0.00     0.178 HD
ENDROOT
BRANCH   3   9
HETATM    9  N   UNL     1      40.440 -15.511   0.700  1.00  0.00    -0.213 N 
HETATM   10  C   UNL     1      40.091 -15.777   2.116  1.00  0.00     0.169 C 
HETATM   11  C   UNL     1      41.358 -15.938   2.986  1.00  0.00     0.256 C 
HETATM   12  N   UNL     1      42.219 -17.069   2.419  1.00  0.00    -0.056 N 
HETATM   13  H   UNL     1      41.631 -17.900   2.317  1.00  0.00     0.281 HD
HETATM   14  C   UNL     1      42.635 -16.701   0.993  1.00  0.00     0.256 C 
HETATM   15  C   UNL     1      41.366 -16.521   0.131  1.00  0.00     0.169 C 
BRANCH  12  16
HETATM   16  C   UNL     1      43.383 -17.518   3.299  1.00  0.00     0.254 C 
BRANCH  16  17
HETATM   17  C   UNL     1      43.262 -17.073   4.751  1.00  0.00    -0.023 A 
HETATM   18  C   UNL     1      43.941 -15.942   5.239  1.00  0.00     0.009 A 
HETATM   19  C   UNL     1      43.822 -15.561   6.576  1.00  0.00     0.001 A 
HETATM   20  C   UNL     1      43.022 -16.300   7.445  1.00  0.00     0.000 A 
HETATM   21  C   UNL     1      42.339 -17.419   6.979  1.00  0.00     0.001 A 
HETATM   22  C   UNL     1      42.456 -17.805   5.643  1.00  0.00     0.009 A 
ENDBRANCH  16  17
BRANCH  16  23
HETATM   23  C   UNL     1      43.790 -18.989   3.122  1.00  0.00    -0.023 A 
HETATM   24  C   UNL     1      44.620 -19.695   4.013  1.00  0.00     0.009 A 
HETATM   25  C   UNL     1      44.918 -21.046   3.803  1.00  0.00     0.001 A 
HETATM   26  C   UNL     1      44.398 -21.718   2.702  1.00  0.00     0.000 A 
HETATM   27  C   UNL     1      43.575 -21.045   1.807  1.00  0.00     0.001 A 
HETATM   28  C   UNL     1      43.270 -19.698   2.017  1.00  0.00     0.009 A 
ENDBRANCH  16  23
ENDBRANCH  12  16
ENDBRANCH   3   9
BRANCH   1  29
HETATM   29  C   UNL     1      40.514 -11.353   1.916  1.00  0.00     0.246 C 
HETATM   30  N   UNL     1      40.364 -12.190   3.013  1.00  0.00    -0.325 N 
HETATM   31  H   UNL     1      39.939 -13.097   2.854  1.00  0.00     0.169 HD
HETATM   32  O   UNL     1      41.107 -10.277   1.892  1.00  0.00    -0.271 OA
BRANCH  30  33
HETATM   33  C   UNL     1      40.722 -11.940   4.354  1.00  0.00     0.034 A 
HETATM   34  C   UNL     1      41.710 -12.636   5.049  1.00  0.00     0.030 A 
HETATM   35  C   UNL     1      42.041 -12.272   6.362  1.00  0.00     0.020 A 
HETATM   36  C   UNL     1      41.391 -11.206   6.996  1.00  0.00     0.039 A 
HETATM   37  C   UNL     1      40.381 -10.524   6.310  1.00  0.00     0.020 A 
HETATM   38  C   UNL     1      40.051 -10.890   5.001  1.00  0.00     0.030 A 
BRANCH  36  39
HETATM   39  C   UNL     1      41.823 -10.821   8.367  1.00  0.00     0.293 C 
HETATM   40  O   UNL     1      41.048 -10.673   9.298  1.00  0.00    -0.259 OA
BRANCH  39  41
HETATM   41  O   UNL     1      43.173 -10.709   8.422  1.00  0.00    -0.318 OA
BRANCH  41  42
HETATM   42  C   UNL     1      43.821 -11.413   9.492  1.00  0.00     0.174 C 
HETATM   43  C   UNL     1      44.760 -12.468   8.940  1.00  0.00     0.034 C 
ENDBRANCH  41  42
ENDBRANCH  39  41
ENDBRANCH  36  39
ENDBRANCH  30  33
ENDBRANCH   1  29
TORSDOF 9
ENDMDL
MODEL 4
REMARK VINA RESULT:      -8.7      4.270      8.257
REMARK  9 active torsions:
REMARK  status: ('A' for Active; 'I' for Inactive)
REMARK    1  A    between atoms: C_2  and  O_3 
REMARK    2  A    between atoms: O_3  and  C_4 
REMARK    3  A    between atoms: C_4  and  C_5 
REMARK    4  A    between atoms: C_8  and  N_9 
REMARK       I    between atoms: N_9  and  C_10 
REMARK    5  A    between atoms: C_10  and  C_11 
REMARK    6  A    between atoms: C_13  and  N_14 
REMARK    7  A    between atoms: N_17  and  C_19 
REMARK    8  A    between atoms: C_19  and  C_20 
REMARK    9  A    between atoms: C_19  and  C_26 
ROOT
HETATM    1  C   UNL     1      42.058 -13.379  -1.743  1.00  0.00     0.200 C 
HETATM    2  N   UNL     1      41.691 -14.535  -0.940  1.00  0.00    -0.211 N 
HETATM    3  C   UNL     1      41.040 -14.351   0.233  1.00  0.00     0.702 C 
HETATM    4  N   UNL     1      40.893 -13.226   0.844  1.00  0.00    -0.028 NA
HETATM    5  C   UNL     1      41.368 -12.093   0.226  1.00  0.00     0.263 C 
HETATM    6  O   UNL     1      40.995 -10.973   0.562  1.00  0.00    -0.271 OA
HETATM    7  C   UNL     1      42.447 -12.247  -0.817  1.00  0.00     0.141 C 
HETATM    8  H   UNL     1      41.438 -15.362  -1.468  1.00  0.00     0.178 HD
ENDROOT
BRANCH   3   9
HETATM    9  N   UNL     1      40.596 -15.536   0.771  1.00  0.00    -0.213 N 
HETATM   10  C   UNL     1      40.348 -15.551   2.232  1.00  0.00     0.169 C 
HETATM   11  C   UNL     1      41.646 -15.841   3.019  1.00  0.00     0.256 C 
HETATM   12  N   UNL     1      42.229 -17.178   2.556  1.00  0.00    -0.056 N 
HETATM   13  H   UNL     1      41.494 -17.887   2.616  1.00  0.00     0.281 HD
HETATM   14  C   UNL     1      42.560 -17.078   1.064  1.00  0.00     0.256 C 
HETATM   15  C   UNL     1      41.265 -16.767   0.283  1.00  0.00     0.169 C 
BRANCH  12  16
HETATM   16  C   UNL     1      43.375 -17.728   3.400  1.00  0.00     0.254 C 
BRANCH  16  17
HETATM   17  C   UNL     1      43.282 -17.359   4.876  1.00  0.00    -0.023 A 
HETATM   18  C   UNL     1      42.221 -17.803   5.686  1.00  0.00     0.009 A 
HETATM   19  C   UNL     1      42.154 -17.443   7.032  1.00  0.00     0.001 A 
HETATM   20  C   UNL     1      43.144 -16.637   7.590  1.00  0.00     0.000 A 
HETATM   21  C   UNL     1      44.203 -16.192   6.806  1.00  0.00     0.001 A 
HETATM   22  C   UNL     1      44.274 -16.548   5.458  1.00  0.00     0.009 A 
ENDBRANCH  16  17
BRANCH  16  23
HETATM   23  C   UNL     1      43.713 -19.204   3.139  1.00  0.00    -0.023 A 
HETATM   24  C   UNL     1      43.255 -19.938   2.029  1.00  0.00     0.009 A 
HETATM   25  C   UNL     1      43.636 -21.272   1.841  1.00  0.00     0.001 A 
HETATM   26  C   UNL     1      44.477 -21.899   2.754  1.00  0.00     0.000 A 
HETATM   27  C   UNL     1      44.945 -21.196   3.858  1.00  0.00     0.001 A 
HETATM   28  C   UNL     1      44.572 -19.863   4.045  1.00  0.00     0.009 A 
ENDBRANCH  16  23
ENDBRANCH  12  16
ENDBRANCH   3   9
BRANCH   1  29
HETATM   29  C   UNL     1      40.917 -12.968  -2.704  1.00  0.00     0.246 C 
HETATM   30  N   UNL     1      39.707 -13.557  -2.364  1.00  0.00    -0.325 N 
HETATM   31  H   UNL     1      39.677 -14.100  -1.508  1.00  0.00     0.169 HD
HETATM   32  O   UNL     1      41.115 -12.185  -3.631  1.00  0.00    -0.271 OA
BRANCH  30  33
HETATM   33  C   UNL     1      38.488 -13.510  -3.070  1.00  0.00     0.034 A 
HETATM   34  C   UNL     1      37.784 -12.339  -3.349  1.00  0.00     0.030 A 
HETATM   35  C   UNL     1      36.610 -12.386  -4.116  1.00  0.00     0.020 A 
HETATM   36  C   UNL     1      36.127 -13.602  -4.614  1.00  0.00     0.039 A 
HETATM   37  C   UNL     1      36.817 -14.780  -4.312  1.00  0.00     0.020 A 
HETATM   38  C   UNL     1      37.987 -14.731  -3.546  1.00  0.00     0.030 A 
BRANCH  36  39
HETATM   39  C   UNL     1      34.912 -13.589  -5.473  1.00  0.00     0.293 C 
HETATM   40  O   UNL     1      33.995 -12.797  -5.326  1.00  0.00    -0.259 OA
BRANCH  39  41
HETATM   41  O   UNL     1      35.007 -14.536  -6.440  1.00  0.00    -0.318 OA
BRANCH  41  42
HETATM   42  C   UNL     1      35.393 -14.071  -7.742  1.00  0.00     0.174 C 
HETATM   43  C   UNL     1      34.549 -14.734  -8.812  1.00  0.00     0.034 C 
ENDBRANCH  41  42
ENDBRANCH  39  41
ENDBRANCH  36  39
ENDBRANCH  30  33
ENDBRANCH   1  29
TORSDOF 9
ENDMDL
MODEL 5
REMARK VINA RESULT:      -8.6      4.072      8.249
REMARK  9 active torsions:
REMARK  status: ('A' for Active; 'I' for Inactive)
REMARK    1  A    between atoms: C_2  and  O_3 
REMARK    2  A    between atoms: O_3  and  C_4 
REMARK    3  A    between atoms: C_4  and  C_5 
REMARK    4  A    between atoms: C_8  and  N_9 
REMARK       I    between atoms: N_9  and  C_10 
REMARK    5  A    between atoms: C_10  and  C_11 
REMARK    6  A    between atoms: C_13  and  N_14 
REMARK    7  A    between atoms: N_17  and  C_19 
REMARK    8  A    between atoms: C_19  and  C_20 
REMARK    9  A    between atoms: C_19  and  C_26 
ROOT
HETATM    1  C   UNL     1      42.038 -13.333  -1.561  1.00  0.00     0.200 C 
HETATM    2  N   UNL     1      41.697 -14.525  -0.800  1.00  0.00    -0.211 N 
HETATM    3  C   UNL     1      41.029 -14.397   0.371  1.00  0.00     0.702 C 
HETATM    4  N   UNL     1      40.842 -13.298   1.015  1.00  0.00    -0.028 NA
HETATM    5  C   UNL     1      41.291 -12.132   0.439  1.00  0.00     0.263 C 
HETATM    6  O   UNL     1      40.881 -11.035   0.806  1.00  0.00    -0.271 OA
HETATM    7  C   UNL     1      42.384 -12.220  -0.596  1.00  0.00     0.141 C 
HETATM    8  H   UNL     1      41.474 -15.342  -1.356  1.00  0.00     0.178 HD
ENDROOT
BRANCH   3   9
HETATM    9  N   UNL     1      40.615 -15.612   0.866  1.00  0.00    -0.213 N 
HETATM   10  C   UNL     1      40.354 -15.681   2.323  1.00  0.00     0.169 C 
HETATM   11  C   UNL     1      41.652 -15.958   3.114  1.00  0.00     0.256 C 
HETATM   12  N   UNL     1      42.278 -17.262   2.615  1.00  0.00    -0.056 N 
HETATM   13  H   UNL     1      41.564 -17.994   2.644  1.00  0.00     0.281 HD
HETATM   14  C   UNL     1      42.620 -17.104   1.131  1.00  0.00     0.256 C 
HETATM   15  C   UNL     1      41.324 -16.806   0.346  1.00  0.00     0.169 C 
BRANCH  12  16
HETATM   16  C   UNL     1      43.432 -17.805   3.453  1.00  0.00     0.254 C 
BRANCH  16  17
HETATM   17  C   UNL     1      43.357 -17.417   4.925  1.00  0.00    -0.023 A 
HETATM   18  C   UNL     1      44.341 -16.614   5.531  1.00  0.00     0.009 A 
HETATM   19  C   UNL     1      44.254 -16.281   6.883  1.00  0.00     0.001 A 
HETATM   20  C   UNL     1      43.186 -16.741   7.649  1.00  0.00     0.000 A 
HETATM   21  C   UNL     1      42.200 -17.531   7.066  1.00  0.00     0.001 A 
HETATM   22  C   UNL     1      42.283 -17.869   5.714  1.00  0.00     0.009 A 
ENDBRANCH  16  17
BRANCH  16  23
HETATM   23  C   UNL     1      43.762 -19.286   3.208  1.00  0.00    -0.023 A 
HETATM   24  C   UNL     1      43.375 -20.005   2.061  1.00  0.00     0.009 A 
HETATM   25  C   UNL     1      43.744 -21.344   1.892  1.00  0.00     0.001 A 
HETATM   26  C   UNL     1      44.502 -21.992   2.862  1.00  0.00     0.000 A 
HETATM   27  C   UNL     1      44.899 -21.305   4.002  1.00  0.00     0.001 A 
HETATM   28  C   UNL     1      44.538 -19.966   4.171  1.00  0.00     0.009 A 
ENDBRANCH  16  23
ENDBRANCH  12  16
ENDBRANCH   3   9
BRANCH   1  29
HETATM   29  C   UNL     1      40.896 -12.925  -2.522  1.00  0.00     0.246 C 
HETATM   30  N   UNL     1      39.722 -13.621  -2.266  1.00  0.00    -0.325 N 
HETATM   31  H   UNL     1      39.708 -14.232  -1.457  1.00  0.00     0.169 HD
HETATM   32  O   UNL     1      41.061 -12.059  -3.378  1.00  0.00    -0.271 OA
BRANCH  30  33
HETATM   33  C   UNL     1      38.520 -13.601  -3.003  1.00  0.00     0.034 A 
HETATM   34  C   UNL     1      37.852 -12.439  -3.389  1.00  0.00     0.030 A 
HETATM   35  C   UNL     1      36.695 -12.518  -4.178  1.00  0.00     0.020 A 
HETATM   36  C   UNL     1      36.193 -13.758  -4.592  1.00  0.00     0.039 A 
HETATM   37  C   UNL     1      36.846 -14.925  -4.183  1.00  0.00     0.020 A 
HETATM   38  C   UNL     1      37.999 -14.843  -3.394  1.00  0.00     0.030 A 
BRANCH  36  39
HETATM   39  C   UNL     1      34.998 -13.783  -5.479  1.00  0.00     0.293 C 
HETATM   40  O   UNL     1      34.969 -14.368  -6.549  1.00  0.00    -0.259 OA
BRANCH  39  41
HETATM   41  O   UNL     1      33.969 -13.113  -4.903  1.00  0.00    -0.318 OA
BRANCH  41  42
HETATM   42  C   UNL     1      33.432 -12.015  -5.656  1.00  0.00     0.174 C 
HETATM   43  C   UNL     1      33.339 -10.774  -4.789  1.00  0.00     0.034 C 
ENDBRANCH  41  42
ENDBRANCH  39  41
ENDBRANCH  36  39
ENDBRANCH  30  33
ENDBRANCH   1  29
TORSDOF 9
ENDMDL
MODEL 6
REMARK VINA RESULT:      -8.6      2.928      7.366
REMARK  9 active torsions:
REMARK  status: ('A' for Active; 'I' for Inactive)
REMARK    1  A    between atoms: C_2  and  O_3 
REMARK    2  A    between atoms: O_3  and  C_4 
REMARK    3  A    between atoms: C_4  and  C_5 
REMARK    4  A    between atoms: C_8  and  N_9 
REMARK       I    between atoms: N_9  and  C_10 
REMARK    5  A    between atoms: C_10  and  C_11 
REMARK    6  A    between atoms: C_13  and  N_14 
REMARK    7  A    between atoms: N_17  and  C_19 
REMARK    8  A    between atoms: C_19  and  C_20 
REMARK    9  A    between atoms: C_19  and  C_26 
ROOT
HETATM    1  C   UNL     1      41.142 -13.796   5.635  1.00  0.00     0.200 C 
HETATM    2  N   UNL     1      40.022 -13.465   4.768  1.00  0.00    -0.211 N 
HETATM    3  C   UNL     1      40.235 -13.302   3.440  1.00  0.00     0.702 C 
HETATM    4  N   UNL     1      41.385 -13.194   2.870  1.00  0.00    -0.028 NA
HETATM    5  C   UNL     1      42.506 -13.326   3.655  1.00  0.00     0.263 C 
HETATM    6  O   UNL     1      43.608 -13.560   3.167  1.00  0.00    -0.271 OA
HETATM    7  C   UNL     1      42.375 -13.075   5.136  1.00  0.00     0.141 C 
HETATM    8  H   UNL     1      39.136 -13.877   5.033  1.00  0.00     0.178 HD
ENDROOT
BRANCH   3   9
HETATM    9  N   UNL     1      39.058 -13.187   2.738  1.00  0.00    -0.213 N 
HETATM   10  C   UNL     1      38.709 -14.311   1.837  1.00  0.00     0.169 C 
HETATM   11  C   UNL     1      39.386 -14.155   0.457  1.00  0.00     0.256 C 
HETATM   12  N   UNL     1      38.970 -12.817  -0.161  1.00  0.00    -0.056 N 
HETATM   13  H   UNL     1      37.949 -12.761  -0.148  1.00  0.00     0.281 HD
HETATM   14  C   UNL     1      39.441 -11.687   0.758  1.00  0.00     0.256 C 
HETATM   15  C   UNL     1      38.779 -11.857   2.143  1.00  0.00     0.169 C 
BRANCH  12  16
HETATM   16  C   UNL     1      39.355 -12.617  -1.623  1.00  0.00     0.254 C 
BRANCH  16  17
HETATM   17  C   UNL     1      40.668 -11.866  -1.815  1.00  0.00    -0.023 A 
HETATM   18  C   UNL     1      41.878 -12.341  -1.279  1.00  0.00     0.009 A 
HETATM   19  C   UNL     1      43.065 -11.629  -1.460  1.00  0.00     0.001 A 
HETATM   20  C   UNL     1      43.062 -10.437  -2.180  1.00  0.00     0.000 A 
HETATM   21  C   UNL     1      41.875  -9.955  -2.723  1.00  0.00     0.001 A 
HETATM   22  C   UNL     1      40.685 -10.662  -2.543  1.00  0.00     0.009 A 
ENDBRANCH  16  17
BRANCH  16  23
HETATM   23  C   UNL     1      39.211 -13.869  -2.503  1.00  0.00    -0.023 A 
HETATM   24  C   UNL     1      40.253 -14.778  -2.765  1.00  0.00     0.009 A 
HETATM   25  C   UNL     1      40.034 -15.917  -3.548  1.00  0.00     0.001 A 
HETATM   26  C   UNL     1      38.776 -16.171  -4.086  1.00  0.00     0.000 A 
HETATM   27  C   UNL     1      37.730 -15.290  -3.840  1.00  0.00     0.001 A 
HETATM   28  C   UNL     1      37.943 -14.155  -3.054  1.00  0.00     0.009 A 
ENDBRANCH  16  23
ENDBRANCH  12  16
ENDBRANCH   3   9
BRANCH   1  29
HETATM   29  C   UNL     1      41.365 -15.325   5.718  1.00  0.00     0.246 C 
HETATM   30  N   UNL     1      42.700 -15.670   5.558  1.00  0.00    -0.325 N 
HETATM   31  H   UNL     1      43.373 -14.913   5.496  1.00  0.00     0.169 HD
HETATM   32  O   UNL     1      40.431 -16.095   5.929  1.00  0.00    -0.271 OA
BRANCH  30  33
HETATM   33  C   UNL     1      43.260 -16.960   5.459  1.00  0.00     0.034 A 
HETATM   34  C   UNL     1      43.534 -17.785   6.548  1.00  0.00     0.030 A 
HETATM   35  C   UNL     1      44.032 -19.081   6.346  1.00  0.00     0.020 A 
HETATM   36  C   UNL     1      44.260 -19.567   5.052  1.00  0.00     0.039 A 
HETATM   37  C   UNL     1      44.012 -18.731   3.960  1.00  0.00     0.020 A 
HETATM   38  C   UNL     1      43.516 -17.438   4.165  1.00  0.00     0.030 A 
BRANCH  36  39
HETATM   39  C   UNL     1      44.731 -20.970   4.891  1.00  0.00     0.293 C 
HETATM   40  O   UNL     1      44.752 -21.780   5.803  1.00  0.00    -0.259 OA
BRANCH  39  41
HETATM   41  O   UNL     1      45.076 -21.206   3.601  1.00  0.00    -0.318 OA
BRANCH  41  42
HETATM   42  C   UNL     1      44.395 -22.291   2.954  1.00  0.00     0.174 C 
HETATM   43  C   UNL     1      44.039 -21.917   1.528  1.00  0.00     0.034 C 
ENDBRANCH  41  42
ENDBRANCH  39  41
ENDBRANCH  36  39
ENDBRANCH  30  33
ENDBRANCH   1  29
TORSDOF 9
ENDMDL
MODEL 7
REMARK VINA RESULT:      -8.5      3.095      8.063
REMARK  9 active torsions:
REMARK  status: ('A' for Active; 'I' for Inactive)
REMARK    1  A    between atoms: C_2  and  O_3 
REMARK    2  A    between atoms: O_3  and  C_4 
REMARK    3  A    between atoms: C_4  and  C_5 
REMARK    4  A    between atoms: C_8  and  N_9 
REMARK       I    between atoms: N_9  and  C_10 
REMARK    5  A    between atoms: C_10  and  C_11 
REMARK    6  A    between atoms: C_13  and  N_14 
REMARK    7  A    between atoms: N_17  and  C_19 
REMARK    8  A    between atoms: C_19  and  C_20 
REMARK    9  A    between atoms: C_19  and  C_26 
ROOT
HETATM    1  C   UNL     1      41.160 -13.991   5.940  1.00  0.00     0.200 C 
HETATM    2  N   UNL     1      40.233 -13.519   4.923  1.00  0.00    -0.211 N 
HETATM    3  C   UNL     1      40.701 -13.202   3.692  1.00  0.00     0.702 C 
HETATM    4  N   UNL     1      41.940 -13.061   3.371  1.00  0.00    -0.028 NA
HETATM    5  C   UNL     1      42.887 -13.325   4.334  1.00  0.00     0.263 C 
HETATM    6  O   UNL     1      44.061 -13.532   4.040  1.00  0.00    -0.271 OA
HETATM    7  C   UNL     1      42.473 -13.253   5.782  1.00  0.00     0.141 C 
HETATM    8  H   UNL     1      39.309 -13.933   4.958  1.00  0.00     0.178 HD
ENDROOT
BRANCH   3   9
HETATM    9  N   UNL     1      39.684 -12.963   2.798  1.00  0.00    -0.213 N 
HETATM   10  C   UNL     1      39.174 -14.133   2.044  1.00  0.00     0.169 C 
HETATM   11  C   UNL     1      40.028 -14.405   0.786  1.00  0.00     0.256 C 
HETATM   12  N   UNL     1      40.039 -13.155  -0.097  1.00  0.00    -0.056 N 
HETATM   13  H   UNL     1      39.071 -12.868  -0.260  1.00  0.00     0.281 HD
HETATM   14  C   UNL     1      40.665 -12.003   0.693  1.00  0.00     0.256 C 
HETATM   15  C   UNL     1      39.821 -11.747   1.960  1.00  0.00     0.169 C 
BRANCH  12  16
HETATM   16  C   UNL     1      40.635 -13.335  -1.491  1.00  0.00     0.254 C 
BRANCH  16  17
HETATM   17  C   UNL     1      39.842 -14.287  -2.379  1.00  0.00    -0.023 A 
HETATM   18  C   UNL     1      38.471 -14.099  -2.627  1.00  0.00     0.009 A 
HETATM   19  C   UNL     1      37.766 -14.991  -3.437  1.00  0.00     0.001 A 
HETATM   20  C   UNL     1      38.417 -16.080  -4.011  1.00  0.00     0.000 A 
HETATM   21  C   UNL     1      39.775 -16.278  -3.780  1.00  0.00     0.001 A 
HETATM   22  C   UNL     1      40.485 -15.390  -2.970  1.00  0.00     0.009 A 
ENDBRANCH  16  17
BRANCH  16  23
HETATM   23  C   UNL     1      41.055 -12.028  -2.183  1.00  0.00    -0.023 A 
HETATM   24  C   UNL     1      42.351 -11.768  -2.665  1.00  0.00     0.009 A 
HETATM   25  C   UNL     1      42.648 -10.566  -3.318  1.00  0.00     0.001 A 
HETATM   26  C   UNL     1      41.662  -9.602  -3.499  1.00  0.00     0.000 A 
HETATM   27  C   UNL     1      40.374  -9.835  -3.034  1.00  0.00     0.001 A 
HETATM   28  C   UNL     1      40.072 -11.036  -2.388  1.00  0.00     0.009 A 
ENDBRANCH  16  23
ENDBRANCH  12  16
ENDBRANCH   3   9
BRANCH   1  29
HETATM   29  C   UNL     1      41.351 -15.525   5.869  1.00  0.00     0.246 C 
HETATM   30  N   UNL     1      42.691 -15.887   5.877  1.00  0.00    -0.325 N 
HETATM   31  H   UNL     1      43.374 -15.149   6.011  1.00  0.00     0.169 HD
HETATM   32  O   UNL     1      40.387 -16.287   5.838  1.00  0.00    -0.271 OA
BRANCH  30  33
HETATM   33  C   UNL     1      43.246 -17.172   5.709  1.00  0.00     0.034 A 
HETATM   34  C   UNL     1      43.315 -18.138   6.712  1.00  0.00     0.030 A 
HETATM   35  C   UNL     1      43.827 -19.414   6.431  1.00  0.00     0.020 A 
HETATM   36  C   UNL     1      44.274 -19.739   5.145  1.00  0.00     0.039 A 
HETATM   37  C   UNL     1      44.231 -18.763   4.145  1.00  0.00     0.020 A 
HETATM   38  C   UNL     1      43.721 -17.491   4.427  1.00  0.00     0.030 A 
BRANCH  36  39
HETATM   39  C   UNL     1      44.750 -21.125   4.886  1.00  0.00     0.293 C 
HETATM   40  O   UNL     1      44.765 -22.000   5.736  1.00  0.00    -0.259 OA
BRANCH  39  41
HETATM   41  O   UNL     1      45.109 -21.265   3.585  1.00  0.00    -0.318 OA
BRANCH  41  42
HETATM   42  C   UNL     1      44.384 -22.250   2.833  1.00  0.00     0.174 C 
HETATM   43  C   UNL     1      43.601 -21.590   1.715  1.00  0.00     0.034 C 
ENDBRANCH  41  42
ENDBRANCH  39  41
ENDBRANCH  36  39
ENDBRANCH  30  33
ENDBRANCH   1  29
TORSDOF 9
ENDMDL
MODEL 8
REMARK VINA RESULT:      -8.2      3.337      6.795
REMARK  9 active torsions:
REMARK  status: ('A' for Active; 'I' for Inactive)
REMARK    1  A    between atoms: C_2  and  O_3 
REMARK    2  A    between atoms: O_3  and  C_4 
REMARK    3  A    between atoms: C_4  and  C_5 
REMARK    4  A    between atoms: C_8  and  N_9 
REMARK       I    between atoms: N_9  and  C_10 
REMARK    5  A    between atoms: C_10  and  C_11 
REMARK    6  A    between atoms: C_13  and  N_14 
REMARK    7  A    between atoms: N_17  and  C_19 
REMARK    8  A    between atoms: C_19  and  C_20 
REMARK    9  A    between atoms: C_19  and  C_26 
ROOT
HETATM    1  C   UNL     1      38.403 -14.456   1.742  1.00  0.00     0.200 C 
HETATM    2  N   UNL     1      39.571 -15.106   1.167  1.00  0.00    -0.211 N 
HETATM    3  C   UNL     1      40.097 -14.630   0.013  1.00  0.00     0.702 C 
HETATM    4  N   UNL     1      39.539 -13.773  -0.771  1.00  0.00    -0.028 NA
HETATM    5  C   UNL     1      38.338 -13.231  -0.379  1.00  0.00     0.263 C 
HETATM    6  O   UNL     1      37.905 -12.198  -0.881  1.00  0.00    -0.271 OA
HETATM    7  C   UNL     1      37.501 -13.992   0.618  1.00  0.00     0.141 C 
HETATM    8  H   UNL     1      40.229 -15.481   1.839  1.00  0.00     0.178 HD
ENDROOT
BRANCH   3   9
HETATM    9  N   UNL     1      41.298 -15.225  -0.292  1.00  0.00    -0.213 N 
HETATM   10  C   UNL     1      41.331 -16.707  -0.265  1.00  0.00     0.169 C 
HETATM   11  C   UNL     1      41.590 -17.236   1.163  1.00  0.00     0.256 C 
HETATM   12  N   UNL     1      42.906 -16.657   1.686  1.00  0.00    -0.056 N 
HETATM   13  H   UNL     1      43.637 -16.843   0.994  1.00  0.00     0.281 HD
HETATM   14  C   UNL     1      42.785 -15.131   1.732  1.00  0.00     0.256 C 
HETATM   15  C   UNL     1      42.506 -14.606   0.307  1.00  0.00     0.169 C 
BRANCH  12  16
HETATM   16  C   UNL     1      43.429 -17.268   2.982  1.00  0.00     0.254 C 
BRANCH  16  17
HETATM   17  C   UNL     1      42.639 -16.855   4.218  1.00  0.00    -0.023 A 
HETATM   18  C   UNL     1      43.123 -15.888   5.119  1.00  0.00     0.009 A 
HETATM   19  C   UNL     1      42.384 -15.535   6.248  1.00  0.00     0.001 A 
HETATM   20  C   UNL     1      41.153 -16.138   6.496  1.00  0.00     0.000 A 
HETATM   21  C   UNL     1      40.657 -17.093   5.614  1.00  0.00     0.001 A 
HETATM   22  C   UNL     1      41.392 -17.451   4.483  1.00  0.00     0.009 A 
ENDBRANCH  16  17
BRANCH  16  23
HETATM   23  C   UNL     1      43.737 -18.772   2.904  1.00  0.00    -0.023 A 
HETATM   24  C   UNL     1      43.441 -19.585   1.794  1.00  0.00     0.009 A 
HETATM   25  C   UNL     1      43.785 -20.942   1.783  1.00  0.00     0.001 A 
HETATM   26  C   UNL     1      44.427 -21.513   2.876  1.00  0.00     0.000 A 
HETATM   27  C   UNL     1      44.733 -20.732   3.984  1.00  0.00     0.001 A 
HETATM   28  C   UNL     1      44.397 -19.376   3.996  1.00  0.00     0.009 A 
ENDBRANCH  16  23
ENDBRANCH  12  16
ENDBRANCH   3   9
BRANCH   1  29
HETATM   29  C   UNL     1      38.804 -13.289   2.676  1.00  0.00     0.246 C 
HETATM   30  N   UNL     1      39.734 -13.678   3.630  1.00  0.00    -0.325 N 
HETATM   31  H   UNL     1      40.105 -14.620   3.564  1.00  0.00     0.169 HD
HETATM   32  O   UNL     1      38.337 -12.162   2.525  1.00  0.00    -0.271 OA
BRANCH  30  33
HETATM   33  C   UNL     1      40.238 -12.926   4.711  1.00  0.00     0.034 A 
HETATM   34  C   UNL     1      41.462 -12.259   4.703  1.00  0.00     0.030 A 
HETATM   35  C   UNL     1      41.850 -11.481   5.805  1.00  0.00     0.020 A 
HETATM   36  C   UNL     1      41.018 -11.359   6.924  1.00  0.00     0.039 A 
HETATM   37  C   UNL     1      39.803 -12.050   6.945  1.00  0.00     0.020 A 
HETATM   38  C   UNL     1      39.419 -12.826   5.846  1.00  0.00     0.030 A 
BRANCH  36  39
HETATM   39  C   UNL     1      41.450 -10.472   8.040  1.00  0.00     0.293 C 
HETATM   40  O   UNL     1      40.698  -9.700   8.612  1.00  0.00    -0.259 OA
BRANCH  39  41
HETATM   41  O   UNL     1      42.756 -10.688   8.335  1.00  0.00    -0.318 OA
BRANCH  41  42
HETATM   42  C   UNL     1      43.054 -10.957   9.713  1.00  0.00     0.174 C 
HETATM   43  C   UNL     1      44.519 -10.689  10.000  1.00  0.00     0.034 C 
ENDBRANCH  41  42
ENDBRANCH  39  41
ENDBRANCH  36  39
ENDBRANCH  30  33
ENDBRANCH   1  29
TORSDOF 9
ENDMDL
MODEL 9
REMARK VINA RESULT:      -8.1      3.254      7.824
REMARK  9 active torsions:
REMARK  status: ('A' for Active; 'I' for Inactive)
REMARK    1  A    between atoms: C_2  and  O_3 
REMARK    2  A    between atoms: O_3  and  C_4 
REMARK    3  A    between atoms: C_4  and  C_5 
REMARK    4  A    between atoms: C_8  and  N_9 
REMARK       I    between atoms: N_9  and  C_10 
REMARK    5  A    between atoms: C_10  and  C_11 
REMARK    6  A    between atoms: C_13  and  N_14 
REMARK    7  A    between atoms: N_17  and  C_19 
REMARK    8  A    between atoms: C_19  and  C_20 
REMARK    9  A    between atoms: C_19  and  C_26 
ROOT
HETATM    1  C   UNL     1      39.842 -12.876   5.791  1.00  0.00     0.200 C 
HETATM    2  N   UNL     1      39.001 -12.768   4.609  1.00  0.00    -0.211 N 
HETATM    3  C   UNL     1      39.253 -11.795   3.701  1.00  0.00     0.702 C 
HETATM    4  N   UNL     1      40.040 -10.791   3.873  1.00  0.00    -0.028 NA
HETATM    5  C   UNL     1      40.752 -10.726   5.049  1.00  0.00     0.263 C 
HETATM    6  O   UNL     1      41.741 -10.009   5.163  1.00  0.00    -0.271 OA
HETATM    7  C   UNL     1      40.229 -11.485   6.243  1.00  0.00     0.141 C 
HETATM    8  H   UNL     1      38.662 -13.649   4.240  1.00  0.00     0.178 HD
ENDROOT
BRANCH   3   9
HETATM    9  N   UNL     1      38.502 -11.946   2.559  1.00  0.00    -0.213 N 
HETATM   10  C   UNL     1      38.317 -13.332   2.065  1.00  0.00     0.169 C 
HETATM   11  C   UNL     1      39.502 -13.774   1.178  1.00  0.00     0.256 C 
HETATM   12  N   UNL     1      39.649 -12.797   0.008  1.00  0.00    -0.056 N 
HETATM   13  H   UNL     1      38.741 -12.713  -0.456  1.00  0.00     0.281 HD
HETATM   14  C   UNL     1      39.937 -11.402   0.569  1.00  0.00     0.256 C 
HETATM   15  C   UNL     1      38.760 -10.972   1.472  1.00  0.00     0.169 C 
BRANCH  12  16
HETATM   16  C   UNL     1      40.615 -13.225  -1.093  1.00  0.00     0.254 C 
BRANCH  16  17
HETATM   17  C   UNL     1      40.009 -14.197  -2.098  1.00  0.00    -0.023 A 
HETATM   18  C   UNL     1      40.725 -15.310  -2.577  1.00  0.00     0.009 A 
HETATM   19  C   UNL     1      40.150 -16.179  -3.504  1.00  0.00     0.001 A 
HETATM   20  C   UNL     1      38.856 -15.955  -3.966  1.00  0.00     0.000 A 
HETATM   21  C   UNL     1      38.131 -14.862  -3.499  1.00  0.00     0.001 A 
HETATM   22  C   UNL     1      38.701 -13.988  -2.572  1.00  0.00     0.009 A 
ENDBRANCH  16  17
BRANCH  16  23
HETATM   23  C   UNL     1      41.412 -12.074  -1.730  1.00  0.00    -0.023 A 
HETATM   24  C   UNL     1      40.982 -11.337  -2.849  1.00  0.00     0.009 A 
HETATM   25  C   UNL     1      41.747 -10.278  -3.350  1.00  0.00     0.001 A 
HETATM   26  C   UNL     1      42.954  -9.936  -2.749  1.00  0.00     0.000 A 
HETATM   27  C   UNL     1      43.400 -10.647  -1.642  1.00  0.00     0.001 A 
HETATM   28  C   UNL     1      42.636 -11.700  -1.134  1.00  0.00     0.009 A 
ENDBRANCH  16  23
ENDBRANCH  12  16
ENDBRANCH   3   9
BRANCH   1  29
HETATM   29  C   UNL     1      41.083 -13.762   5.528  1.00  0.00     0.246 C 
HETATM   30  N   UNL     1      40.771 -14.898   4.795  1.00  0.00    -0.325 N 
HETATM   31  H   UNL     1      39.822 -14.982   4.446  1.00  0.00     0.169 HD
HETATM   32  O   UNL     1      42.198 -13.432   5.927  1.00  0.00    -0.271 OA
BRANCH  30  33
HETATM   33  C   UNL     1      41.611 -15.982   4.468  1.00  0.00     0.034 A 
HETATM   34  C   UNL     1      42.604 -15.942   3.490  1.00  0.00     0.030 A 
HETATM   35  C   UNL     1      43.436 -17.053   3.282  1.00  0.00     0.020 A 
HETATM   36  C   UNL     1      43.286 -18.214   4.049  1.00  0.00     0.039 A 
HETATM   37  C   UNL     1      42.273 -18.265   5.012  1.00  0.00     0.020 A 
HETATM   38  C   UNL     1      41.444 -17.157   5.217  1.00  0.00     0.030 A 
BRANCH  36  39
HETATM   39  C   UNL     1      44.234 -19.341   3.829  1.00  0.00     0.293 C 
HETATM   40  O   UNL     1      44.751 -19.970   4.738  1.00  0.00    -0.259 OA
BRANCH  39  41
HETATM   41  O   UNL     1      44.388 -19.575   2.502  1.00  0.00    -0.318 OA
BRANCH  41  42
HETATM   42  C   UNL     1      43.453 -20.490   1.911  1.00  0.00     0.174 C 
HETATM   43  C   UNL     1      44.101 -21.844   1.698  1.00  0.00     0.034 C 
ENDBRANCH  41  42
ENDBRANCH  39  41
ENDBRANCH  36  39
ENDBRANCH  30  33
ENDBRANCH   1  29
TORSDOF 9
ENDMDL
MODEL 10
REMARK VINA RESULT:      -7.9      4.388      8.340
REMARK  9 active torsions:
REMARK  status: ('A' for Active; 'I' for Inactive)
REMARK    1  A    between atoms: C_2  and  O_3 
REMARK    2  A    between atoms: O_3  and  C_4 
REMARK    3  A    between atoms: C_4  and  C_5 
REMARK    4  A    between atoms: C_8  and  N_9 
REMARK       I    between atoms: N_9  and  C_10 
REMARK    5  A    between atoms: C_10  and  C_11 
REMARK    6  A    between atoms: C_13  and  N_14 
REMARK    7  A    between atoms: N_17  and  C_19 
REMARK    8  A    between atoms: C_19  and  C_20 
REMARK    9  A    between atoms: C_19  and  C_26 
ROOT
HETATM    1  C   UNL     1      41.742 -12.188   1.206  1.00  0.00     0.200 C 
HETATM    2  N   UNL     1      41.756 -13.641   1.133  1.00  0.00    -0.211 N 
HETATM    3  C   UNL     1      40.634 -14.333   1.448  1.00  0.00     0.702 C 
HETATM    4  N   UNL     1      39.590 -13.850   2.026  1.00  0.00    -0.028 NA
HETATM    5  C   UNL     1      39.566 -12.500   2.288  1.00  0.00     0.263 C 
HETATM    6  O   UNL     1      38.517 -11.909   2.528  1.00  0.00    -0.271 OA
HETATM    7  C   UNL     1      40.881 -11.766   2.377  1.00  0.00     0.141 C 
HETATM    8  H   UNL     1      42.330 -14.030   0.395  1.00  0.00     0.178 HD
ENDROOT
BRANCH   3   9
HETATM    9  N   UNL     1      40.748 -15.669   1.144  1.00  0.00    -0.213 N 
HETATM   10  C   UNL     1      40.261 -16.626   2.167  1.00  0.00     0.169 C 
HETATM   11  C   UNL     1      41.348 -16.916   3.226  1.00  0.00     0.256 C 
HETATM   12  N   UNL     1      42.599 -17.457   2.531  1.00  0.00    -0.056 N 
HETATM   13  H   UNL     1      42.323 -18.244   1.938  1.00  0.00     0.281 HD
HETATM   14  C   UNL     1      43.119 -16.394   1.560  1.00  0.00     0.256 C 
HETATM   15  C   UNL     1      42.023 -16.091   0.515  1.00  0.00     0.169 C 
BRANCH  12  16
HETATM   16  C   UNL     1      43.676 -18.021   3.453  1.00  0.00     0.254 C 
BRANCH  16  17
HETATM   17  C   UNL     1      43.512 -17.610   4.912  1.00  0.00    -0.023 A 
HETATM   18  C   UNL     1      42.750 -18.373   5.815  1.00  0.00     0.009 A 
HETATM   19  C   UNL     1      42.607 -17.970   7.143  1.00  0.00     0.001 A 
HETATM   20  C   UNL     1      43.223 -16.803   7.590  1.00  0.00     0.000 A 
HETATM   21  C   UNL     1      43.985 -16.039   6.712  1.00  0.00     0.001 A 
HETATM   22  C   UNL     1      44.130 -16.437   5.382  1.00  0.00     0.009 A 
ENDBRANCH  16  17
BRANCH  16  23
HETATM   23  C   UNL     1      43.979 -19.514   3.248  1.00  0.00    -0.023 A 
HETATM   24  C   UNL     1      44.661 -20.319   4.179  1.00  0.00     0.009 A 
HETATM   25  C   UNL     1      44.868 -21.682   3.937  1.00  0.00     0.001 A 
HETATM   26  C   UNL     1      44.403 -22.266   2.764  1.00  0.00     0.000 A 
HETATM   27  C   UNL     1      43.725 -21.494   1.829  1.00  0.00     0.001 A 
HETATM   28  C   UNL     1      43.510 -20.135   2.070  1.00  0.00     0.009 A 
ENDBRANCH  16  23
ENDBRANCH  12  16
ENDBRANCH   3   9
BRANCH   1  29
HETATM   29  C   UNL     1      41.258 -11.556  -0.121  1.00  0.00     0.246 C 
HETATM   30  N   UNL     1      42.305 -11.317  -1.000  1.00  0.00    -0.325 N 
HETATM   31  H   UNL     1      43.226 -11.648  -0.731  1.00  0.00     0.169 HD
HETATM   32  O   UNL     1      40.066 -11.337  -0.325  1.00  0.00    -0.271 OA
BRANCH  30  33
HETATM   33  C   UNL     1      42.264 -10.652  -2.243  1.00  0.00     0.034 A 
HETATM   34  C   UNL     1      42.144  -9.271  -2.393  1.00  0.00     0.030 A 
HETATM   35  C   UNL     1      42.178  -8.693  -3.671  1.00  0.00     0.020 A 
HETATM   36  C   UNL     1      42.333  -9.488  -4.813  1.00  0.00     0.039 A 
HETATM   37  C   UNL     1      42.425 -10.876  -4.666  1.00  0.00     0.020 A 
HETATM   38  C   UNL     1      42.390 -11.450  -3.390  1.00  0.00     0.030 A 
BRANCH  36  39
HETATM   39  C   UNL     1      42.423  -8.820  -6.140  1.00  0.00     0.293 C 
HETATM   40  O   UNL     1      43.481  -8.535  -6.676  1.00  0.00    -0.259 OA
BRANCH  39  41
HETATM   41  O   UNL     1      41.184  -8.628  -6.656  1.00  0.00    -0.318 OA
BRANCH  41  42
HETATM   42  C   UNL     1      41.063  -8.783  -8.078  1.00  0.00     0.174 C 
HETATM   43  C   UNL     1      40.818 -10.237  -8.433  1.00  0.00     0.034 C 
ENDBRANCH  41  42
ENDBRANCH  39  41
ENDBRANCH  36  39
ENDBRANCH  30  33
ENDBRANCH   1  29
TORSDOF 9
ENDMDL
