MODEL 1
REMARK VINA RESULT:      -8.8      0.000      0.000
REMARK  6 active torsions:
REMARK  status: ('A' for Active; 'I' for Inactive)
REMARK    1  A    between atoms: C_7  and  C_8 
REMARK    2  A    between atoms: N_9  and  N_10 
REMARK       I    between atoms: N_10  and  C_11 
REMARK    3  A    between atoms: C_11  and  C_12 
REMARK    4  A    between atoms: C_12  and  N_13 
REMARK    5  A    between atoms: N_13  and  C_14 
REMARK    6  A    between atoms: C_17  and  O_18 
ROOT
HETATM    1  N   UNL     1      41.964 -15.912   2.298  1.00  0.00    -0.246 N 
HETATM    2  C   UNL     1      41.506 -16.102   1.001  1.00  0.00     0.250 C 
HETATM    3  O   UNL     1      41.331 -17.193   0.459  1.00  0.00    -0.270 OA
HETATM    4  H   UNL     1      42.066 -14.964   2.654  1.00  0.00     0.192 HD
ENDROOT
BRANCH   1   5
HETATM    5  N   UNL     1      42.322 -16.995   3.040  1.00  0.00    -0.184 NA
HETATM    6  C   UNL     1      43.585 -17.241   3.160  1.00  0.00     0.153 C 
BRANCH   6   7
HETATM    7  C   UNL     1      44.017 -18.394   3.933  1.00  0.00     0.018 A 
HETATM    8  C   UNL     1      44.396 -18.401   5.271  1.00  0.00     0.018 A 
HETATM    9  C   UNL     1      44.476 -17.305   6.275  1.00  0.00     0.069 C 
HETATM   10  N   UNL     1      44.730 -19.689   5.605  1.00  0.00    -0.358 N 
HETATM   11  H   UNL     1      45.044 -19.987   6.520  1.00  0.00     0.166 HD
HETATM   12  C   UNL     1      44.582 -20.526   4.527  1.00  0.00     0.043 A 
HETATM   13  C   UNL     1      44.136 -19.746   3.460  1.00  0.00     0.004 A 
HETATM   14  C   UNL     1      44.811 -21.903   4.424  1.00  0.00     0.030 A 
HETATM   15  C   UNL     1      43.911 -20.383   2.220  1.00  0.00     0.014 A 
HETATM   16  C   UNL     1      44.136 -21.760   2.098  1.00  0.00     0.001 A 
HETATM   17  C   UNL     1      44.579 -22.507   3.187  1.00  0.00     0.002 A 
ENDBRANCH   6   7
ENDBRANCH   1   5
BRANCH   2  18
HETATM   18  C   UNL     1      41.164 -14.793   0.289  1.00  0.00     0.197 C 
BRANCH  18  19
HETATM   19  N   UNL     1      41.538 -14.838  -1.140  1.00  0.00    -0.284 NA
HETATM   20  H   UNL     1      42.218 -15.583  -1.312  1.00  0.00     0.128 HD
BRANCH  19  21
HETATM   21  C   UNL     1      40.485 -14.966  -2.067  1.00  0.00     0.008 A 
HETATM   22  C   UNL     1      39.343 -14.174  -1.890  1.00  0.00     0.026 A 
HETATM   23  C   UNL     1      38.249 -14.276  -2.756  1.00  0.00     0.038 A 
HETATM   24  C   UNL     1      38.259 -15.189  -3.809  1.00  0.00     0.068 A 
HETATM   25  C   UNL     1      39.362 -16.023  -3.963  1.00  0.00     0.038 A 
HETATM   26  C   UNL     1      40.454 -15.924  -3.086  1.00  0.00     0.026 A 
BRANCH  24  27
HETATM   27  O   UNL     1      37.139 -15.179  -4.593  1.00  0.00    -0.356 OA
HETATM   28  C   UNL     1      36.312 -14.024  -4.514  1.00  0.00     0.210 C 
ENDBRANCH  24  27
ENDBRANCH  19  21
ENDBRANCH  18  19
ENDBRANCH   2  18
TORSDOF 6
ENDMDL
MODEL 2
REMARK VINA RESULT:      -8.5      6.609     10.745
REMARK  6 active torsions:
REMARK  status: ('A' for Active; 'I' for Inactive)
REMARK    1  A    between atoms: C_7  and  C_8 
REMARK    2  A    between atoms: N_9  and  N_10 
REMARK       I    between atoms: N_10  and  C_11 
REMARK    3  A    between atoms: C_11  and  C_12 
REMARK    4  A    between atoms: C_12  and  N_13 
REMARK    5  A    between atoms: N_13  and  C_14 
REMARK    6  A    between atoms: C_17  and  O_18 
ROOT
HETATM    1  N   UNL     1      44.002 -14.625   7.672  1.00  0.00    -0.246 N 
HETATM    2  C   UNL     1      44.871 -13.542   7.627  1.00  0.00     0.250 C 
HETATM    3  O   UNL     1      45.859 -13.452   6.900  1.00  0.00    -0.270 OA
HETATM    4  H   UNL     1      43.206 -14.596   8.305  1.00  0.00     0.192 HD
ENDROOT
BRANCH   1   5
HETATM    5  N   UNL     1      44.270 -15.723   6.913  1.00  0.00    -0.184 NA
HETATM    6  C   UNL     1      43.293 -16.225   6.231  1.00  0.00     0.153 C 
BRANCH   6   7
HETATM    7  C   UNL     1      43.526 -17.405   5.415  1.00  0.00     0.018 A 
HETATM    8  C   UNL     1      43.745 -18.701   5.873  1.00  0.00     0.018 A 
HETATM    9  C   UNL     1      43.805 -19.257   7.252  1.00  0.00     0.069 C 
HETATM   10  N   UNL     1      43.919 -19.509   4.778  1.00  0.00    -0.358 N 
HETATM   11  H   UNL     1      44.096 -20.504   4.816  1.00  0.00     0.166 HD
HETATM   12  C   UNL     1      43.823 -18.783   3.617  1.00  0.00     0.043 A 
HETATM   13  C   UNL     1      43.577 -17.459   3.980  1.00  0.00     0.004 A 
HETATM   14  C   UNL     1      43.937 -19.202   2.287  1.00  0.00     0.030 A 
HETATM   15  C   UNL     1      43.441 -16.502   2.950  1.00  0.00     0.014 A 
HETATM   16  C   UNL     1      43.554 -16.903   1.613  1.00  0.00     0.001 A 
HETATM   17  C   UNL     1      43.798 -18.235   1.288  1.00  0.00     0.002 A 
ENDBRANCH   6   7
ENDBRANCH   1   5
BRANCH   2  18
HETATM   18  C   UNL     1      44.448 -12.397   8.546  1.00  0.00     0.197 C 
BRANCH  18  19
HETATM   19  N   UNL     1      44.348 -12.840   9.953  1.00  0.00    -0.284 NA
HETATM   20  H   UNL     1      45.244 -13.211  10.279  1.00  0.00     0.128 HD
BRANCH  19  21
HETATM   21  C   UNL     1      43.886 -11.890  10.885  1.00  0.00     0.008 A 
HETATM   22  C   UNL     1      44.054 -10.531  10.588  1.00  0.00     0.026 A 
HETATM   23  C   UNL     1      43.647  -9.537  11.487  1.00  0.00     0.038 A 
HETATM   24  C   UNL     1      43.083  -9.878  12.714  1.00  0.00     0.068 A 
HETATM   25  C   UNL     1      42.963 -11.223  13.048  1.00  0.00     0.038 A 
HETATM   26  C   UNL     1      43.381 -12.216  12.148  1.00  0.00     0.026 A 
BRANCH  24  27
HETATM   27  O   UNL     1      42.711  -8.817  13.493  1.00  0.00    -0.356 OA
HETATM   28  C   UNL     1      42.156  -9.121  14.767  1.00  0.00     0.210 C 
ENDBRANCH  24  27
ENDBRANCH  19  21
ENDBRANCH  18  19
ENDBRANCH   2  18
TORSDOF 6
ENDMDL
MODEL 3
REMARK VINA RESULT:      -8.3      2.149      2.616
REMARK  6 active torsions:
REMARK  status: ('A' for Active; 'I' for Inactive)
REMARK    1  A    between atoms: C_7  and  C_8 
REMARK    2  A    between atoms: N_9  and  N_10 
REMARK       I    between atoms: N_10  and  C_11 
REMARK    3  A    between atoms: C_11  and  C_12 
REMARK    4  A    between atoms: C_12  and  N_13 
REMARK    5  A    between atoms: N_13  and  C_14 
REMARK    6  A    between atoms: C_17  and  O_18 
ROOT
HETATM    1  N   UNL     1      42.593 -15.029   2.306  1.00  0.00    -0.246 N 
HETATM    2  C   UNL     1      42.932 -13.755   2.743  1.00  0.00     0.250 C 
HETATM    3  O   UNL     1      43.905 -13.477   3.443  1.00  0.00    -0.270 OA
HETATM    4  H   UNL     1      41.768 -15.149   1.722  1.00  0.00     0.192 HD
ENDROOT
BRANCH   1   5
HETATM    5  N   UNL     1      43.335 -16.092   2.719  1.00  0.00    -0.184 NA
HETATM    6  C   UNL     1      42.765 -16.942   3.508  1.00  0.00     0.153 C 
BRANCH   6   7
HETATM    7  C   UNL     1      43.522 -18.088   3.987  1.00  0.00     0.018 A 
HETATM    8  C   UNL     1      44.231 -18.175   5.180  1.00  0.00     0.018 A 
HETATM    9  C   UNL     1      44.430 -17.189   6.277  1.00  0.00     0.069 C 
HETATM   10  N   UNL     1      44.796 -19.423   5.243  1.00  0.00    -0.358 N 
HETATM   11  H   UNL     1      45.370 -19.762   6.004  1.00  0.00     0.166 HD
HETATM   12  C   UNL     1      44.480 -20.157   4.126  1.00  0.00     0.043 A 
HETATM   13  C   UNL     1      43.681 -19.350   3.317  1.00  0.00     0.004 A 
HETATM   14  C   UNL     1      44.843 -21.464   3.781  1.00  0.00     0.030 A 
HETATM   15  C   UNL     1      43.225 -19.883   2.091  1.00  0.00     0.014 A 
HETATM   16  C   UNL     1      43.580 -21.189   1.729  1.00  0.00     0.001 A 
HETATM   17  C   UNL     1      44.378 -21.966   2.565  1.00  0.00     0.002 A 
ENDBRANCH   6   7
ENDBRANCH   1   5
BRANCH   2  18
HETATM   18  C   UNL     1      41.994 -12.671   2.213  1.00  0.00     0.197 C 
BRANCH  18  19
HETATM   19  N   UNL     1      42.544 -12.022   1.004  1.00  0.00    -0.284 NA
HETATM   20  H   UNL     1      43.562 -12.116   0.975  1.00  0.00     0.128 HD
BRANCH  19  21
HETATM   21  C   UNL     1      42.016 -12.438  -0.234  1.00  0.00     0.008 A 
HETATM   22  C   UNL     1      40.728 -12.990  -0.257  1.00  0.00     0.026 A 
HETATM   23  C   UNL     1      40.159 -13.453  -1.449  1.00  0.00     0.038 A 
HETATM   24  C   UNL     1      40.872 -13.398  -2.644  1.00  0.00     0.068 A 
HETATM   25  C   UNL     1      42.174 -12.907  -2.628  1.00  0.00     0.038 A 
HETATM   26  C   UNL     1      42.744 -12.452  -1.429  1.00  0.00     0.026 A 
BRANCH  24  27
HETATM   27  O   UNL     1      40.199 -13.864  -3.740  1.00  0.00    -0.356 OA
HETATM   28  C   UNL     1      39.732 -15.207  -3.681  1.00  0.00     0.210 C 
ENDBRANCH  24  27
ENDBRANCH  19  21
ENDBRANCH  18  19
ENDBRANCH   2  18
TORSDOF 6
ENDMDL
MODEL 4
REMARK VINA RESULT:      -8.1      6.410     10.347
REMARK  6 active torsions:
REMARK  status: ('A' for Active; 'I' for Inactive)
REMARK    1  A    between atoms: C_7  and  C_8 
REMARK    2  A    between atoms: N_9  and  N_10 
REMARK       I    between atoms: N_10  and  C_11 
REMARK    3  A    between atoms: C_11  and  C_12 
REMARK    4  A    between atoms: C_12  and  N_13 
REMARK    5  A    between atoms: N_13  and  C_14 
REMARK    6  A    between atoms: C_17  and  O_18 
ROOT
HETATM    1  N   UNL     1      43.655 -14.345   6.980  1.00  0.00    -0.246 N 
HETATM    2  C   UNL     1      44.814 -13.656   7.310  1.00  0.00     0.250 C 
HETATM    3  O   UNL     1      45.846 -13.634   6.640  1.00  0.00    -0.270 OA
HETATM    4  H   UNL     1      42.851 -14.291   7.602  1.00  0.00     0.192 HD
ENDROOT
BRANCH   1   5
HETATM    5  N   UNL     1      43.641 -15.125   5.864  1.00  0.00    -0.184 NA
HETATM    6  C   UNL     1      42.732 -16.041   5.792  1.00  0.00     0.153 C 
BRANCH   6   7
HETATM    7  C   UNL     1      42.685 -16.908   4.626  1.00  0.00     0.018 A 
HETATM    8  C   UNL     1      41.870 -16.752   3.509  1.00  0.00     0.018 A 
HETATM    9  C   UNL     1      40.854 -15.719   3.172  1.00  0.00     0.069 C 
HETATM   10  N   UNL     1      42.139 -17.784   2.646  1.00  0.00    -0.358 N 
HETATM   11  H   UNL     1      41.690 -17.922   1.751  1.00  0.00     0.166 HD
HETATM   12  C   UNL     1      43.105 -18.611   3.164  1.00  0.00     0.043 A 
HETATM   13  C   UNL     1      43.470 -18.091   4.405  1.00  0.00     0.004 A 
HETATM   14  C   UNL     1      43.674 -19.771   2.625  1.00  0.00     0.030 A 
HETATM   15  C   UNL     1      44.457 -18.775   5.149  1.00  0.00     0.014 A 
HETATM   16  C   UNL     1      45.035 -19.939   4.625  1.00  0.00     0.001 A 
HETATM   17  C   UNL     1      44.647 -20.427   3.380  1.00  0.00     0.002 A 
ENDBRANCH   6   7
ENDBRANCH   1   5
BRANCH   2  18
HETATM   18  C   UNL     1      44.681 -12.843   8.597  1.00  0.00     0.197 C 
BRANCH  18  19
HETATM   19  N   UNL     1      43.597 -11.843   8.498  1.00  0.00    -0.284 NA
HETATM   20  H   UNL     1      42.724 -12.286   8.203  1.00  0.00     0.128 HD
BRANCH  19  21
HETATM   21  C   UNL     1      43.345 -11.066   9.645  1.00  0.00     0.008 A 
HETATM   22  C   UNL     1      44.300 -11.062  10.670  1.00  0.00     0.026 A 
HETATM   23  C   UNL     1      44.095 -10.337  11.850  1.00  0.00     0.038 A 
HETATM   24  C   UNL     1      42.919  -9.616  12.045  1.00  0.00     0.068 A 
HETATM   25  C   UNL     1      41.935  -9.657  11.061  1.00  0.00     0.038 A 
HETATM   26  C   UNL     1      42.141 -10.393   9.884  1.00  0.00     0.026 A 
BRANCH  24  27
HETATM   27  O   UNL     1      42.848  -8.937  13.229  1.00  0.00    -0.356 OA
HETATM   28  C   UNL     1      42.624  -9.713  14.401  1.00  0.00     0.210 C 
ENDBRANCH  24  27
ENDBRANCH  19  21
ENDBRANCH  18  19
ENDBRANCH   2  18
TORSDOF 6
ENDMDL
MODEL 5
REMARK VINA RESULT:      -7.9      2.010      2.679
REMARK  6 active torsions:
REMARK  status: ('A' for Active; 'I' for Inactive)
REMARK    1  A    between atoms: C_7  and  C_8 
REMARK    2  A    between atoms: N_9  and  N_10 
REMARK       I    between atoms: N_10  and  C_11 
REMARK    3  A    between atoms: C_11  and  C_12 
REMARK    4  A    between atoms: C_12  and  N_13 
REMARK    5  A    between atoms: N_13  and  C_14 
REMARK    6  A    between atoms: C_17  and  O_18 
ROOT
HETATM    1  N   UNL     1      42.709 -15.147   2.390  1.00  0.00    -0.246 N 
HETATM    2  C   UNL     1      43.055 -13.872   2.819  1.00  0.00     0.250 C 
HETATM    3  O   UNL     1      44.031 -13.595   3.515  1.00  0.00    -0.270 OA
HETATM    4  H   UNL     1      41.883 -15.267   1.808  1.00  0.00     0.192 HD
ENDROOT
BRANCH   1   5
HETATM    5  N   UNL     1      43.448 -16.211   2.807  1.00  0.00    -0.184 NA
HETATM    6  C   UNL     1      42.847 -17.107   3.519  1.00  0.00     0.153 C 
BRANCH   6   7
HETATM    7  C   UNL     1      43.597 -18.256   3.999  1.00  0.00     0.018 A 
HETATM    8  C   UNL     1      44.296 -18.350   5.198  1.00  0.00     0.018 A 
HETATM    9  C   UNL     1      44.488 -17.368   6.301  1.00  0.00     0.069 C 
HETATM   10  N   UNL     1      44.858 -19.599   5.261  1.00  0.00    -0.358 N 
HETATM   11  H   UNL     1      45.424 -19.942   6.025  1.00  0.00     0.166 HD
HETATM   12  C   UNL     1      44.549 -20.328   4.139  1.00  0.00     0.043 A 
HETATM   13  C   UNL     1      43.759 -19.516   3.326  1.00  0.00     0.004 A 
HETATM   14  C   UNL     1      44.912 -21.634   3.791  1.00  0.00     0.030 A 
HETATM   15  C   UNL     1      43.312 -20.043   2.094  1.00  0.00     0.014 A 
HETATM   16  C   UNL     1      43.667 -21.348   1.730  1.00  0.00     0.001 A 
HETATM   17  C   UNL     1      44.456 -22.131   2.569  1.00  0.00     0.002 A 
ENDBRANCH   6   7
ENDBRANCH   1   5
BRANCH   2  18
HETATM   18  C   UNL     1      42.122 -12.787   2.284  1.00  0.00     0.197 C 
BRANCH  18  19
HETATM   19  N   UNL     1      40.703 -13.121   2.531  1.00  0.00    -0.284 NA
HETATM   20  H   UNL     1      40.252 -12.390   3.087  1.00  0.00     0.128 HD
BRANCH  19  21
HETATM   21  C   UNL     1      39.908 -13.384   1.399  1.00  0.00     0.008 A 
HETATM   22  C   UNL     1      40.486 -13.237   0.131  1.00  0.00     0.026 A 
HETATM   23  C   UNL     1      39.740 -13.451  -1.034  1.00  0.00     0.038 A 
HETATM   24  C   UNL     1      38.392 -13.796  -0.962  1.00  0.00     0.068 A 
HETATM   25  C   UNL     1      37.789 -13.888   0.289  1.00  0.00     0.038 A 
HETATM   26  C   UNL     1      38.538 -13.664   1.455  1.00  0.00     0.026 A 
BRANCH  24  27
HETATM   27  O   UNL     1      37.781 -13.995  -2.169  1.00  0.00    -0.356 OA
HETATM   28  C   UNL     1      38.515 -14.725  -3.145  1.00  0.00     0.210 C 
ENDBRANCH  24  27
ENDBRANCH  19  21
ENDBRANCH  18  19
ENDBRANCH   2  18
TORSDOF 6
ENDMDL
MODEL 6
REMARK VINA RESULT:      -7.8      2.724      3.177
REMARK  6 active torsions:
REMARK  status: ('A' for Active; 'I' for Inactive)
REMARK    1  A    between atoms: C_7  and  C_8 
REMARK    2  A    between atoms: N_9  and  N_10 
REMARK       I    between atoms: N_10  and  C_11 
REMARK    3  A    between atoms: C_11  and  C_12 
REMARK    4  A    between atoms: C_12  and  N_13 
REMARK    5  A    between atoms: N_13  and  C_14 
REMARK    6  A    between atoms: C_17  and  O_18 
ROOT
HETATM    1  N   UNL     1      42.852 -15.195   2.352  1.00  0.00    -0.246 N 
HETATM    2  C   UNL     1      43.152 -13.910   2.786  1.00  0.00     0.250 C 
HETATM    3  O   UNL     1      44.066 -13.613   3.555  1.00  0.00    -0.270 OA
HETATM    4  H   UNL     1      42.076 -15.332   1.707  1.00  0.00     0.192 HD
ENDROOT
BRANCH   1   5
HETATM    5  N   UNL     1      43.561 -16.246   2.847  1.00  0.00    -0.184 NA
HETATM    6  C   UNL     1      42.894 -17.203   3.402  1.00  0.00     0.153 C 
BRANCH   6   7
HETATM    7  C   UNL     1      43.609 -18.341   3.957  1.00  0.00     0.018 A 
HETATM    8  C   UNL     1      44.239 -18.403   5.195  1.00  0.00     0.018 A 
HETATM    9  C   UNL     1      44.376 -17.390   6.278  1.00  0.00     0.069 C 
HETATM   10  N   UNL     1      44.789 -19.652   5.325  1.00  0.00    -0.358 N 
HETATM   11  H   UNL     1      45.310 -19.976   6.130  1.00  0.00     0.166 HD
HETATM   12  C   UNL     1      44.539 -20.412   4.209  1.00  0.00     0.043 A 
HETATM   13  C   UNL     1      43.801 -19.620   3.330  1.00  0.00     0.004 A 
HETATM   14  C   UNL     1      44.912 -21.730   3.921  1.00  0.00     0.030 A 
HETATM   15  C   UNL     1      43.419 -20.182   2.091  1.00  0.00     0.014 A 
HETATM   16  C   UNL     1      43.786 -21.498   1.785  1.00  0.00     0.001 A 
HETATM   17  C   UNL     1      44.522 -22.260   2.690  1.00  0.00     0.002 A 
ENDBRANCH   6   7
ENDBRANCH   1   5
BRANCH   2  18
HETATM   18  C   UNL     1      42.257 -12.842   2.159  1.00  0.00     0.197 C 
BRANCH  18  19
HETATM   19  N   UNL     1      41.389 -13.411   1.106  1.00  0.00    -0.284 NA
HETATM   20  H   UNL     1      40.410 -13.168   1.275  1.00  0.00     0.128 HD
BRANCH  19  21
HETATM   21  C   UNL     1      41.712 -13.085  -0.226  1.00  0.00     0.008 A 
HETATM   22  C   UNL     1      42.376 -11.876  -0.473  1.00  0.00     0.026 A 
HETATM   23  C   UNL     1      42.696 -11.478  -1.776  1.00  0.00     0.038 A 
HETATM   24  C   UNL     1      42.339 -12.267  -2.867  1.00  0.00     0.068 A 
HETATM   25  C   UNL     1      41.628 -13.442  -2.642  1.00  0.00     0.038 A 
HETATM   26  C   UNL     1      41.301 -13.833  -1.334  1.00  0.00     0.026 A 
BRANCH  24  27
HETATM   27  O   UNL     1      42.724 -11.778  -4.085  1.00  0.00    -0.356 OA
HETATM   28  C   UNL     1      42.141 -10.545  -4.492  1.00  0.00     0.210 C 
ENDBRANCH  24  27
ENDBRANCH  19  21
ENDBRANCH  18  19
ENDBRANCH   2  18
TORSDOF 6
ENDMDL
MODEL 7
REMARK VINA RESULT:      -7.8      1.933      2.354
REMARK  6 active torsions:
REMARK  status: ('A' for Active; 'I' for Inactive)
REMARK    1  A    between atoms: C_7  and  C_8 
REMARK    2  A    between atoms: N_9  and  N_10 
REMARK       I    between atoms: N_10  and  C_11 
REMARK    3  A    between atoms: C_11  and  C_12 
REMARK    4  A    between atoms: C_12  and  N_13 
REMARK    5  A    between atoms: N_13  and  C_14 
REMARK    6  A    between atoms: C_17  and  O_18 
ROOT
HETATM    1  N   UNL     1      41.045 -15.759   3.627  1.00  0.00    -0.246 N 
HETATM    2  C   UNL     1      40.305 -15.828   2.454  1.00  0.00     0.250 C 
HETATM    3  O   UNL     1      40.125 -16.844   1.784  1.00  0.00    -0.270 OA
HETATM    4  H   UNL     1      41.126 -14.867   4.111  1.00  0.00     0.192 HD
ENDROOT
BRANCH   1   5
HETATM    5  N   UNL     1      41.694 -16.871   4.069  1.00  0.00    -0.184 NA
HETATM    6  C   UNL     1      42.921 -17.029   3.695  1.00  0.00     0.153 C 
BRANCH   6   7
HETATM    7  C   UNL     1      43.653 -18.207   4.130  1.00  0.00     0.018 A 
HETATM    8  C   UNL     1      44.370 -18.350   5.314  1.00  0.00     0.018 A 
HETATM    9  C   UNL     1      44.602 -17.404   6.440  1.00  0.00     0.069 C 
HETATM   10  N   UNL     1      44.905 -19.612   5.332  1.00  0.00    -0.358 N 
HETATM   11  H   UNL     1      45.476 -19.989   6.077  1.00  0.00     0.166 HD
HETATM   12  C   UNL     1      44.561 -20.302   4.195  1.00  0.00     0.043 A 
HETATM   13  C   UNL     1      43.776 -19.450   3.419  1.00  0.00     0.004 A 
HETATM   14  C   UNL     1      44.889 -21.606   3.806  1.00  0.00     0.030 A 
HETATM   15  C   UNL     1      43.297 -19.933   2.181  1.00  0.00     0.014 A 
HETATM   16  C   UNL     1      43.617 -21.234   1.775  1.00  0.00     0.001 A 
HETATM   17  C   UNL     1      44.402 -22.058   2.578  1.00  0.00     0.002 A 
ENDBRANCH   6   7
ENDBRANCH   1   5
BRANCH   2  18
HETATM   18  C   UNL     1      39.654 -14.497   2.078  1.00  0.00     0.197 C 
BRANCH  18  19
HETATM   19  N   UNL     1      38.890 -14.604   0.817  1.00  0.00    -0.284 NA
HETATM   20  H   UNL     1      37.960 -14.193   0.923  1.00  0.00     0.128 HD
BRANCH  19  21
HETATM   21  C   UNL     1      39.493 -14.066  -0.336  1.00  0.00     0.008 A 
HETATM   22  C   UNL     1      38.666 -13.666  -1.395  1.00  0.00     0.026 A 
HETATM   23  C   UNL     1      39.205 -13.154  -2.581  1.00  0.00     0.038 A 
HETATM   24  C   UNL     1      40.584 -13.050  -2.749  1.00  0.00     0.068 A 
HETATM   25  C   UNL     1      41.419 -13.497  -1.730  1.00  0.00     0.038 A 
HETATM   26  C   UNL     1      40.876 -14.018  -0.545  1.00  0.00     0.026 A 
BRANCH  24  27
HETATM   27  O   UNL     1      40.982 -12.518  -3.944  1.00  0.00    -0.356 OA
HETATM   28  C   UNL     1      42.186 -11.760  -3.939  1.00  0.00     0.210 C 
ENDBRANCH  24  27
ENDBRANCH  19  21
ENDBRANCH  18  19
ENDBRANCH   2  18
TORSDOF 6
ENDMDL
MODEL 8
REMARK VINA RESULT:      -7.8      7.776     11.832
REMARK  6 active torsions:
REMARK  status: ('A' for Active; 'I' for Inactive)
REMARK    1  A    between atoms: C_7  and  C_8 
REMARK    2  A    between atoms: N_9  and  N_10 
REMARK       I    between atoms: N_10  and  C_11 
REMARK    3  A    between atoms: C_11  and  C_12 
REMARK    4  A    between atoms: C_12  and  N_13 
REMARK    5  A    between atoms: N_13  and  C_14 
REMARK    6  A    between atoms: C_17  and  O_18 
ROOT
HETATM    1  N   UNL     1      43.662 -12.015   8.031  1.00  0.00    -0.246 N 
HETATM    2  C   UNL     1      44.728 -12.864   8.298  1.00  0.00     0.250 C 
HETATM    3  O   UNL     1      45.456 -12.805   9.288  1.00  0.00    -0.270 OA
HETATM    4  H   UNL     1      43.117 -12.156   7.183  1.00  0.00     0.192 HD
ENDROOT
BRANCH   1   5
HETATM    5  N   UNL     1      43.411 -10.979   8.876  1.00  0.00    -0.184 NA
HETATM    6  C   UNL     1      42.173 -10.684   9.101  1.00  0.00     0.153 C 
BRANCH   6   7
HETATM    7  C   UNL     1      41.854  -9.577   9.988  1.00  0.00     0.018 A 
HETATM    8  C   UNL     1      41.053  -8.479   9.690  1.00  0.00     0.018 A 
HETATM    9  C   UNL     1      40.315  -8.110   8.451  1.00  0.00     0.069 C 
HETATM   10  N   UNL     1      41.013  -7.674  10.800  1.00  0.00    -0.358 N 
HETATM   11  H   UNL     1      40.503  -6.803  10.866  1.00  0.00     0.166 HD
HETATM   12  C   UNL     1      41.764  -8.211  11.817  1.00  0.00     0.043 A 
HETATM   13  C   UNL     1      42.306  -9.405  11.341  1.00  0.00     0.004 A 
HETATM   14  C   UNL     1      41.999  -7.726  13.109  1.00  0.00     0.030 A 
HETATM   15  C   UNL     1      43.133 -10.151  12.210  1.00  0.00     0.014 A 
HETATM   16  C   UNL     1      43.380  -9.680  13.505  1.00  0.00     0.001 A 
HETATM   17  C   UNL     1      42.819  -8.484  13.946  1.00  0.00     0.002 A 
ENDBRANCH   6   7
ENDBRANCH   1   5
BRANCH   2  18
HETATM   18  C   UNL     1      44.895 -13.964   7.250  1.00  0.00     0.197 C 
BRANCH  18  19
HETATM   19  N   UNL     1      44.100 -15.163   7.590  1.00  0.00    -0.284 NA
HETATM   20  H   UNL     1      43.120 -14.915   7.740  1.00  0.00     0.128 HD
BRANCH  19  21
HETATM   21  C   UNL     1      44.160 -16.241   6.685  1.00  0.00     0.008 A 
HETATM   22  C   UNL     1      43.324 -16.213   5.561  1.00  0.00     0.026 A 
HETATM   23  C   UNL     1      43.311 -17.268   4.641  1.00  0.00     0.038 A 
HETATM   24  C   UNL     1      44.118 -18.387   4.833  1.00  0.00     0.068 A 
HETATM   25  C   UNL     1      44.911 -18.456   5.975  1.00  0.00     0.038 A 
HETATM   26  C   UNL     1      44.913 -17.400   6.899  1.00  0.00     0.026 A 
BRANCH  24  27
HETATM   27  O   UNL     1      44.027 -19.339   3.855  1.00  0.00    -0.356 OA
HETATM   28  C   UNL     1      44.783 -20.529   4.047  1.00  0.00     0.210 C 
ENDBRANCH  24  27
ENDBRANCH  19  21
ENDBRANCH  18  19
ENDBRANCH   2  18
TORSDOF 6
ENDMDL
MODEL 9
REMARK VINA RESULT:      -7.6      1.711      2.766
REMARK  6 active torsions:
REMARK  status: ('A' for Active; 'I' for Inactive)
REMARK    1  A    between atoms: C_7  and  C_8 
REMARK    2  A    between atoms: N_9  and  N_10 
REMARK       I    between atoms: N_10  and  C_11 
REMARK    3  A    between atoms: C_11  and  C_12 
REMARK    4  A    between atoms: C_12  and  N_13 
REMARK    5  A    between atoms: N_13  and  C_14 
REMARK    6  A    between atoms: C_17  and  O_18 
ROOT
HETATM    1  N   UNL     1      41.144 -16.288  -0.569  1.00  0.00    -0.246 N 
HETATM    2  C   UNL     1      41.144 -14.987  -1.056  1.00  0.00     0.250 C 
HETATM    3  O   UNL     1      41.881 -14.082  -0.667  1.00  0.00    -0.270 OA
HETATM    4  H   UNL     1      40.496 -16.965  -0.967  1.00  0.00     0.192 HD
ENDROOT
BRANCH   1   5
HETATM    5  N   UNL     1      41.965 -16.609   0.467  1.00  0.00    -0.184 NA
HETATM    6  C   UNL     1      41.518 -17.454   1.337  1.00  0.00     0.153 C 
BRANCH   6   7
HETATM    7  C   UNL     1      42.354 -17.820   2.470  1.00  0.00     0.018 A 
HETATM    8  C   UNL     1      42.579 -17.062   3.614  1.00  0.00     0.018 A 
HETATM    9  C   UNL     1      42.072 -15.722   4.020  1.00  0.00     0.069 C 
HETATM   10  N   UNL     1      43.425 -17.771   4.428  1.00  0.00    -0.358 N 
HETATM   11  H   UNL     1      43.760 -17.458   5.330  1.00  0.00     0.166 HD
HETATM   12  C   UNL     1      43.762 -18.971   3.852  1.00  0.00     0.043 A 
HETATM   13  C   UNL     1      43.107 -19.034   2.622  1.00  0.00     0.004 A 
HETATM   14  C   UNL     1      44.592 -19.992   4.329  1.00  0.00     0.030 A 
HETATM   15  C   UNL     1      43.300 -20.185   1.825  1.00  0.00     0.014 A 
HETATM   16  C   UNL     1      44.128 -21.215   2.286  1.00  0.00     0.001 A 
HETATM   17  C   UNL     1      44.764 -21.118   3.522  1.00  0.00     0.002 A 
ENDBRANCH   6   7
ENDBRANCH   1   5
BRANCH   2  18
HETATM   18  C   UNL     1      40.157 -14.776  -2.203  1.00  0.00     0.197 C 
BRANCH  18  19
HETATM   19  N   UNL     1      38.790 -14.520  -1.702  1.00  0.00    -0.284 NA
HETATM   20  H   UNL     1      38.812 -13.880  -0.905  1.00  0.00     0.128 HD
BRANCH  19  21
HETATM   21  C   UNL     1      37.851 -14.044  -2.638  1.00  0.00     0.008 A 
HETATM   22  C   UNL     1      37.321 -14.948  -3.568  1.00  0.00     0.026 A 
HETATM   23  C   UNL     1      36.410 -14.531  -4.545  1.00  0.00     0.038 A 
HETATM   24  C   UNL     1      36.022 -13.196  -4.632  1.00  0.00     0.068 A 
HETATM   25  C   UNL     1      36.584 -12.275  -3.753  1.00  0.00     0.038 A 
HETATM   26  C   UNL     1      37.505 -12.695  -2.780  1.00  0.00     0.026 A 
BRANCH  24  27
HETATM   27  O   UNL     1      35.114 -12.921  -5.616  1.00  0.00    -0.356 OA
HETATM   28  C   UNL     1      35.312 -13.566  -6.869  1.00  0.00     0.210 C 
ENDBRANCH  24  27
ENDBRANCH  19  21
ENDBRANCH  18  19
ENDBRANCH   2  18
TORSDOF 6
ENDMDL
MODEL 10
REMARK VINA RESULT:      -7.5      2.923      9.197
REMARK  6 active torsions:
REMARK  status: ('A' for Active; 'I' for Inactive)
REMARK    1  A    between atoms: C_7  and  C_8 
REMARK    2  A    between atoms: N_9  and  N_10 
REMARK       I    between atoms: N_10  and  C_11 
REMARK    3  A    between atoms: C_11  and  C_12 
REMARK    4  A    between atoms: C_12  and  N_13 
REMARK    5  A    between atoms: N_13  and  C_14 
REMARK    6  A    between atoms: C_17  and  O_18 
ROOT
HETATM    1  N   UNL     1      41.470 -14.718   1.753  1.00  0.00    -0.246 N 
HETATM    2  C   UNL     1      42.414 -14.279   2.673  1.00  0.00     0.250 C 
HETATM    3  O   UNL     1      43.116 -13.276   2.550  1.00  0.00    -0.270 OA
HETATM    4  H   UNL     1      40.935 -15.560   1.956  1.00  0.00     0.192 HD
ENDROOT
BRANCH   1   5
HETATM    5  N   UNL     1      41.326 -14.048   0.578  1.00  0.00    -0.184 NA
HETATM    6  C   UNL     1      41.854 -14.578  -0.476  1.00  0.00     0.153 C 
BRANCH   6   7
HETATM    7  C   UNL     1      41.738 -13.894  -1.753  1.00  0.00     0.018 A 
HETATM    8  C   UNL     1      41.177 -14.402  -2.920  1.00  0.00     0.018 A 
HETATM    9  C   UNL     1      40.556 -15.722  -3.215  1.00  0.00     0.069 C 
HETATM   10  N   UNL     1      41.270 -13.434  -3.887  1.00  0.00    -0.358 N 
HETATM   11  H   UNL     1      40.940 -13.532  -4.838  1.00  0.00     0.166 HD
HETATM   12  C   UNL     1      41.876 -12.307  -3.390  1.00  0.00     0.043 A 
HETATM   13  C   UNL     1      42.183 -12.561  -2.054  1.00  0.00     0.004 A 
HETATM   14  C   UNL     1      42.171 -11.095  -4.025  1.00  0.00     0.030 A 
HETATM   15  C   UNL     1      42.826 -11.542  -1.315  1.00  0.00     0.014 A 
HETATM   16  C   UNL     1      43.130 -10.324  -1.935  1.00  0.00     0.001 A 
HETATM   17  C   UNL     1      42.805 -10.105  -3.271  1.00  0.00     0.002 A 
ENDBRANCH   6   7
ENDBRANCH   1   5
BRANCH   2  18
HETATM   18  C   UNL     1      42.472 -15.144   3.931  1.00  0.00     0.197 C 
BRANCH  18  19
HETATM   19  N   UNL     1      41.770 -16.431   3.738  1.00  0.00    -0.284 NA
HETATM   20  H   UNL     1      41.100 -16.364   2.968  1.00  0.00     0.128 HD
BRANCH  19  21
HETATM   21  C   UNL     1      42.576 -17.568   3.539  1.00  0.00     0.008 A 
HETATM   22  C   UNL     1      42.370 -18.336   2.385  1.00  0.00     0.026 A 
HETATM   23  C   UNL     1      43.115 -19.497   2.144  1.00  0.00     0.038 A 
HETATM   24  C   UNL     1      44.069 -19.932   3.061  1.00  0.00     0.068 A 
HETATM   25  C   UNL     1      44.244 -19.212   4.239  1.00  0.00     0.038 A 
HETATM   26  C   UNL     1      43.489 -18.054   4.481  1.00  0.00     0.026 A 
BRANCH  24  27
HETATM   27  O   UNL     1      44.741 -21.067   2.701  1.00  0.00    -0.356 OA
HETATM   28  C   UNL     1      44.164 -21.851   1.663  1.00  0.00     0.210 C 
ENDBRANCH  24  27
ENDBRANCH  19  21
ENDBRANCH  18  19
ENDBRANCH   2  18
TORSDOF 6
ENDMDL
