MODEL 1
REMARK VINA RESULT:      -8.5      0.000      0.000
REMARK  4 active torsions:
REMARK  status: ('A' for Active; 'I' for Inactive)
REMARK    1  A    between atoms: C_4  and  O_5 
REMARK    2  A    between atoms: O_5  and  C_6 
REMARK    3  A    between atoms: C_7  and  N_8 
REMARK       I    between atoms: N_8  and  C_9 
REMARK    4  A    between atoms: C_9  and  C_10 
ROOT
HETATM    1  C   UNL     1      42.596 -17.487   2.726  1.00  0.00     0.102 A 
HETATM    2  C   UNL     1      41.347 -16.976   3.139  1.00  0.00     0.069 A 
HETATM    3  C   UNL     1      40.611 -16.179   2.258  1.00  0.00     0.032 A 
HETATM    4  C   UNL     1      41.128 -15.847   1.004  1.00  0.00     0.002 A 
HETATM    5  C   UNL     1      42.384 -16.310   0.621  1.00  0.00     0.003 A 
HETATM    6  C   UNL     1      43.121 -17.127   1.480  1.00  0.00     0.039 A 
ENDROOT
BRANCH   2   7
HETATM    7  N   UNL     1      40.882 -17.348   4.418  1.00  0.00    -0.320 N 
HETATM    8  C   UNL     1      41.097 -16.836   5.665  1.00  0.00     0.257 C 
HETATM    9  O   UNL     1      40.351 -17.152   6.593  1.00  0.00    -0.267 OA
HETATM   10  H   UNL     1      40.251 -18.143   4.429  1.00  0.00     0.169 HD
BRANCH   8  11
HETATM   11  C   UNL     1      42.282 -15.975   5.940  1.00  0.00     0.048 A 
HETATM   12  C   UNL     1      43.320 -16.460   6.643  1.00  0.00     0.108 A 
HETATM   13  N   UNL     1      44.396 -15.657   6.944  1.00  0.00    -0.333 N 
HETATM   14  C   UNL     1      44.485 -14.330   6.598  1.00  0.00     0.245 A 
HETATM   15  H   UNL     1      45.185 -16.032   7.458  1.00  0.00     0.168 HD
HETATM   16  O   UNL     1      45.457 -13.635   6.865  1.00  0.00    -0.268 OA
HETATM   17  C   UNL     1      43.312 -13.772   5.874  1.00  0.00     0.075 A 
HETATM   18  C   UNL     1      42.273 -14.569   5.576  1.00  0.00     0.024 A 
ENDBRANCH   8  11
ENDBRANCH   2   7
BRANCH   1  19
HETATM   19  O   UNL     1      43.257 -18.271   3.657  1.00  0.00    -0.309 OA
BRANCH  19  20
HETATM   20  C   UNL     1      43.677 -19.525   3.297  1.00  0.00     0.076 A 
HETATM   21  C   UNL     1      44.448 -20.239   4.215  1.00  0.00     0.037 A 
HETATM   22  C   UNL     1      44.852 -21.539   3.915  1.00  0.00     0.003 A 
HETATM   23  C   UNL     1      44.470 -22.126   2.708  1.00  0.00     0.000 A 
HETATM   24  C   UNL     1      43.677 -21.417   1.803  1.00  0.00     0.003 A 
HETATM   25  C   UNL     1      43.268 -20.118   2.102  1.00  0.00     0.037 A 
ENDBRANCH  19  20
ENDBRANCH   1  19
TORSDOF 4
ENDMDL
MODEL 2
REMARK VINA RESULT:      -8.3      2.258      3.638
REMARK  4 active torsions:
REMARK  status: ('A' for Active; 'I' for Inactive)
REMARK    1  A    between atoms: C_4  and  O_5 
REMARK    2  A    between atoms: O_5  and  C_6 
REMARK    3  A    between atoms: C_7  and  N_8 
REMARK       I    between atoms: N_8  and  C_9 
REMARK    4  A    between atoms: C_9  and  C_10 
ROOT
HETATM    1  C   UNL     1      43.929 -18.032   5.279  1.00  0.00     0.102 A 
HETATM    2  C   UNL     1      42.600 -17.685   5.604  1.00  0.00     0.069 A 
HETATM    3  C   UNL     1      42.278 -17.388   6.931  1.00  0.00     0.032 A 
HETATM    4  C   UNL     1      43.247 -17.485   7.933  1.00  0.00     0.002 A 
HETATM    5  C   UNL     1      44.544 -17.878   7.616  1.00  0.00     0.003 A 
HETATM    6  C   UNL     1      44.888 -18.155   6.291  1.00  0.00     0.039 A 
ENDROOT
BRANCH   2   7
HETATM    7  N   UNL     1      41.671 -17.606   4.546  1.00  0.00    -0.320 N 
HETATM    8  C   UNL     1      41.179 -16.557   3.824  1.00  0.00     0.257 C 
HETATM    9  O   UNL     1      40.598 -16.767   2.758  1.00  0.00    -0.267 OA
HETATM   10  H   UNL     1      41.295 -18.499   4.239  1.00  0.00     0.169 HD
BRANCH   8  11
HETATM   11  C   UNL     1      41.250 -15.167   4.357  1.00  0.00     0.048 A 
HETATM   12  C   UNL     1      42.294 -14.379   4.050  1.00  0.00     0.108 A 
HETATM   13  N   UNL     1      42.394 -13.113   4.578  1.00  0.00    -0.333 N 
HETATM   14  C   UNL     1      41.487 -12.576   5.461  1.00  0.00     0.245 A 
HETATM   15  H   UNL     1      43.173 -12.515   4.328  1.00  0.00     0.168 HD
HETATM   16  O   UNL     1      41.587 -11.441   5.910  1.00  0.00    -0.268 OA
HETATM   17  C   UNL     1      40.364 -13.466   5.852  1.00  0.00     0.075 A 
HETATM   18  C   UNL     1      40.272 -14.696   5.321  1.00  0.00     0.024 A 
ENDBRANCH   8  11
ENDBRANCH   2   7
BRANCH   1  19
HETATM   19  O   UNL     1      44.164 -18.306   3.941  1.00  0.00    -0.309 OA
BRANCH  19  20
HETATM   20  C   UNL     1      44.185 -19.610   3.520  1.00  0.00     0.076 A 
HETATM   21  C   UNL     1      43.722 -19.883   2.233  1.00  0.00     0.037 A 
HETATM   22  C   UNL     1      43.776 -21.186   1.739  1.00  0.00     0.003 A 
HETATM   23  C   UNL     1      44.308 -22.207   2.529  1.00  0.00     0.000 A 
HETATM   24  C   UNL     1      44.794 -21.925   3.808  1.00  0.00     0.003 A 
HETATM   25  C   UNL     1      44.745 -20.622   4.301  1.00  0.00     0.037 A 
ENDBRANCH  19  20
ENDBRANCH   1  19
TORSDOF 4
ENDMDL
MODEL 3
REMARK VINA RESULT:      -8.3      1.527      1.741
REMARK  4 active torsions:
REMARK  status: ('A' for Active; 'I' for Inactive)
REMARK    1  A    between atoms: C_4  and  O_5 
REMARK    2  A    between atoms: O_5  and  C_6 
REMARK    3  A    between atoms: C_7  and  N_8 
REMARK       I    between atoms: N_8  and  C_9 
REMARK    4  A    between atoms: C_9  and  C_10 
ROOT
HETATM    1  C   UNL     1      43.205 -17.870   2.810  1.00  0.00     0.102 A 
HETATM    2  C   UNL     1      41.996 -17.514   3.442  1.00  0.00     0.069 A 
HETATM    3  C   UNL     1      40.968 -16.951   2.680  1.00  0.00     0.032 A 
HETATM    4  C   UNL     1      41.156 -16.694   1.319  1.00  0.00     0.002 A 
HETATM    5  C   UNL     1      42.370 -16.999   0.711  1.00  0.00     0.003 A 
HETATM    6  C   UNL     1      43.397 -17.585   1.453  1.00  0.00     0.039 A 
ENDROOT
BRANCH   2   7
HETATM    7  N   UNL     1      41.871 -17.799   4.817  1.00  0.00    -0.320 N 
HETATM    8  C   UNL     1      41.481 -17.045   5.886  1.00  0.00     0.257 C 
HETATM    9  O   UNL     1      41.174 -17.596   6.944  1.00  0.00    -0.267 OA
HETATM   10  H   UNL     1      42.099 -18.754   5.078  1.00  0.00     0.169 HD
BRANCH   8  11
HETATM   11  C   UNL     1      41.516 -15.557   5.820  1.00  0.00     0.048 A 
HETATM   12  C   UNL     1      42.664 -14.898   6.057  1.00  0.00     0.108 A 
HETATM   13  N   UNL     1      42.694 -13.522   6.047  1.00  0.00    -0.333 N 
HETATM   14  C   UNL     1      41.590 -12.731   5.839  1.00  0.00     0.245 A 
HETATM   15  H   UNL     1      43.566 -13.029   6.207  1.00  0.00     0.168 HD
HETATM   16  O   UNL     1      41.640 -11.508   5.822  1.00  0.00    -0.268 OA
HETATM   17  C   UNL     1      40.307 -13.455   5.639  1.00  0.00     0.075 A 
HETATM   18  C   UNL     1      40.292 -14.797   5.639  1.00  0.00     0.024 A 
ENDBRANCH   8  11
ENDBRANCH   2   7
BRANCH   1  19
HETATM   19  O   UNL     1      44.169 -18.427   3.635  1.00  0.00    -0.309 OA
BRANCH  19  20
HETATM   20  C   UNL     1      44.364 -19.784   3.614  1.00  0.00     0.076 A 
HETATM   21  C   UNL     1      44.748 -20.401   4.805  1.00  0.00     0.037 A 
HETATM   22  C   UNL     1      44.905 -21.786   4.846  1.00  0.00     0.003 A 
HETATM   23  C   UNL     1      44.661 -22.548   3.702  1.00  0.00     0.000 A 
HETATM   24  C   UNL     1      44.252 -21.928   2.519  1.00  0.00     0.003 A 
HETATM   25  C   UNL     1      44.090 -20.544   2.477  1.00  0.00     0.037 A 
ENDBRANCH  19  20
ENDBRANCH   1  19
TORSDOF 4
ENDMDL
MODEL 4
REMARK VINA RESULT:      -7.9      1.881      4.756
REMARK  4 active torsions:
REMARK  status: ('A' for Active; 'I' for Inactive)
REMARK    1  A    between atoms: C_4  and  O_5 
REMARK    2  A    between atoms: O_5  and  C_6 
REMARK    3  A    between atoms: C_7  and  N_8 
REMARK       I    between atoms: N_8  and  C_9 
REMARK    4  A    between atoms: C_9  and  C_10 
ROOT
HETATM    1  C   UNL     1      41.302 -16.977   2.276  1.00  0.00     0.102 A 
HETATM    2  C   UNL     1      41.884 -17.564   3.419  1.00  0.00     0.069 A 
HETATM    3  C   UNL     1      43.195 -18.041   3.348  1.00  0.00     0.032 A 
HETATM    4  C   UNL     1      43.903 -17.988   2.145  1.00  0.00     0.002 A 
HETATM    5  C   UNL     1      43.306 -17.455   1.005  1.00  0.00     0.003 A 
HETATM    6  C   UNL     1      42.006 -16.951   1.067  1.00  0.00     0.039 A 
ENDROOT
BRANCH   2   7
HETATM    7  N   UNL     1      41.115 -17.588   4.601  1.00  0.00    -0.320 N 
HETATM    8  C   UNL     1      41.110 -16.801   5.717  1.00  0.00     0.257 C 
HETATM    9  O   UNL     1      40.151 -16.839   6.489  1.00  0.00    -0.267 OA
HETATM   10  H   UNL     1      40.412 -18.319   4.640  1.00  0.00     0.169 HD
BRANCH   8  11
HETATM   11  C   UNL     1      42.295 -15.967   6.065  1.00  0.00     0.048 A 
HETATM   12  C   UNL     1      43.212 -16.426   6.934  1.00  0.00     0.108 A 
HETATM   13  N   UNL     1      44.283 -15.643   7.299  1.00  0.00    -0.333 N 
HETATM   14  C   UNL     1      44.482 -14.359   6.852  1.00  0.00     0.245 A 
HETATM   15  H   UNL     1      44.982 -16.001   7.941  1.00  0.00     0.168 HD
HETATM   16  O   UNL     1      45.450 -13.683   7.180  1.00  0.00    -0.268 OA
HETATM   17  C   UNL     1      43.439 -13.824   5.940  1.00  0.00     0.075 A 
HETATM   18  C   UNL     1      42.404 -14.602   5.582  1.00  0.00     0.024 A 
ENDBRANCH   8  11
ENDBRANCH   2   7
BRANCH   1  19
HETATM   19  O   UNL     1      40.002 -16.524   2.434  1.00  0.00    -0.309 OA
BRANCH  19  20
HETATM   20  C   UNL     1      39.724 -15.200   2.214  1.00  0.00     0.076 A 
HETATM   21  C   UNL     1      38.567 -14.891   1.498  1.00  0.00     0.037 A 
HETATM   22  C   UNL     1      38.213 -13.557   1.298  1.00  0.00     0.003 A 
HETATM   23  C   UNL     1      39.008 -12.540   1.828  1.00  0.00     0.000 A 
HETATM   24  C   UNL     1      40.151 -12.854   2.567  1.00  0.00     0.003 A 
HETATM   25  C   UNL     1      40.504 -14.187   2.772  1.00  0.00     0.037 A 
ENDBRANCH  19  20
ENDBRANCH   1  19
TORSDOF 4
ENDMDL
MODEL 5
REMARK VINA RESULT:      -7.9      2.076      2.777
REMARK  4 active torsions:
REMARK  status: ('A' for Active; 'I' for Inactive)
REMARK    1  A    between atoms: C_4  and  O_5 
REMARK    2  A    between atoms: O_5  and  C_6 
REMARK    3  A    between atoms: C_7  and  N_8 
REMARK       I    between atoms: N_8  and  C_9 
REMARK    4  A    between atoms: C_9  and  C_10 
ROOT
HETATM    1  C   UNL     1      41.956 -17.000   2.481  1.00  0.00     0.102 A 
HETATM    2  C   UNL     1      42.651 -15.813   2.794  1.00  0.00     0.069 A 
HETATM    3  C   UNL     1      42.556 -14.719   1.929  1.00  0.00     0.032 A 
HETATM    4  C   UNL     1      41.825 -14.817   0.742  1.00  0.00     0.002 A 
HETATM    5  C   UNL     1      41.184 -16.008   0.412  1.00  0.00     0.003 A 
HETATM    6  C   UNL     1      41.249 -17.101   1.277  1.00  0.00     0.039 A 
ENDROOT
BRANCH   2   7
HETATM    7  N   UNL     1      43.371 -15.780   4.006  1.00  0.00    -0.320 N 
HETATM    8  C   UNL     1      43.029 -15.409   5.275  1.00  0.00     0.257 C 
HETATM    9  O   UNL     1      43.740 -15.744   6.223  1.00  0.00    -0.267 OA
HETATM   10  H   UNL     1      44.330 -16.108   3.943  1.00  0.00     0.169 HD
BRANCH   8  11
HETATM   11  C   UNL     1      41.857 -14.521   5.517  1.00  0.00     0.048 A 
HETATM   12  C   UNL     1      40.653 -15.053   5.793  1.00  0.00     0.108 A 
HETATM   13  N   UNL     1      39.555 -14.242   5.969  1.00  0.00    -0.333 N 
HETATM   14  C   UNL     1      39.584 -12.874   5.847  1.00  0.00     0.245 A 
HETATM   15  H   UNL     1      38.654 -14.646   6.196  1.00  0.00     0.168 HD
HETATM   16  O   UNL     1      38.597 -12.169   6.019  1.00  0.00    -0.268 OA
HETATM   17  C   UNL     1      40.899 -12.286   5.480  1.00  0.00     0.075 A 
HETATM   18  C   UNL     1      41.965 -13.086   5.323  1.00  0.00     0.024 A 
ENDBRANCH   8  11
ENDBRANCH   2   7
BRANCH   1  19
HETATM   19  O   UNL     1      42.100 -18.034   3.393  1.00  0.00    -0.309 OA
BRANCH  19  20
HETATM   20  C   UNL     1      43.013 -19.025   3.142  1.00  0.00     0.076 A 
HETATM   21  C   UNL     1      43.961 -19.297   4.128  1.00  0.00     0.037 A 
HETATM   22  C   UNL     1      44.876 -20.333   3.942  1.00  0.00     0.003 A 
HETATM   23  C   UNL     1      44.827 -21.102   2.778  1.00  0.00     0.000 A 
HETATM   24  C   UNL     1      43.858 -20.844   1.805  1.00  0.00     0.003 A 
HETATM   25  C   UNL     1      42.940 -19.811   1.992  1.00  0.00     0.037 A 
ENDBRANCH  19  20
ENDBRANCH   1  19
TORSDOF 4
ENDMDL
MODEL 6
REMARK VINA RESULT:      -7.8      2.469      6.525
REMARK  4 active torsions:
REMARK  status: ('A' for Active; 'I' for Inactive)
REMARK    1  A    between atoms: C_4  and  O_5 
REMARK    2  A    between atoms: O_5  and  C_6 
REMARK    3  A    between atoms: C_7  and  N_8 
REMARK       I    between atoms: N_8  and  C_9 
REMARK    4  A    between atoms: C_9  and  C_10 
ROOT
HETATM    1  C   UNL     1      41.595 -16.940   4.420  1.00  0.00     0.102 A 
HETATM    2  C   UNL     1      43.006 -16.937   4.407  1.00  0.00     0.069 A 
HETATM    3  C   UNL     1      43.699 -17.092   5.611  1.00  0.00     0.032 A 
HETATM    4  C   UNL     1      43.004 -17.196   6.819  1.00  0.00     0.002 A 
HETATM    5  C   UNL     1      41.613 -17.147   6.832  1.00  0.00     0.003 A 
HETATM    6  C   UNL     1      40.906 -17.017   5.636  1.00  0.00     0.039 A 
ENDROOT
BRANCH   2   7
HETATM    7  N   UNL     1      43.645 -16.827   3.155  1.00  0.00    -0.320 N 
HETATM    8  C   UNL     1      43.982 -17.748   2.205  1.00  0.00     0.257 C 
HETATM    9  O   UNL     1      44.271 -17.376   1.067  1.00  0.00    -0.267 OA
HETATM   10  H   UNL     1      43.899 -15.881   2.885  1.00  0.00     0.169 HD
BRANCH   8  11
HETATM   11  C   UNL     1      44.099 -19.193   2.554  1.00  0.00     0.048 A 
HETATM   12  C   UNL     1      44.876 -19.578   3.581  1.00  0.00     0.108 A 
HETATM   13  N   UNL     1      45.029 -20.912   3.879  1.00  0.00    -0.333 N 
HETATM   14  C   UNL     1      44.453 -21.931   3.158  1.00  0.00     0.245 A 
HETATM   15  H   UNL     1      45.601 -21.197   4.666  1.00  0.00     0.168 HD
HETATM   16  O   UNL     1      44.592 -23.113   3.447  1.00  0.00    -0.268 OA
HETATM   17  C   UNL     1      43.644 -21.512   1.984  1.00  0.00     0.075 A 
HETATM   18  C   UNL     1      43.492 -20.207   1.711  1.00  0.00     0.024 A 
ENDBRANCH   8  11
ENDBRANCH   2   7
BRANCH   1  19
HETATM   19  O   UNL     1      40.987 -16.787   3.184  1.00  0.00    -0.309 OA
BRANCH  19  20
HETATM   20  C   UNL     1      40.347 -15.609   2.896  1.00  0.00     0.076 A 
HETATM   21  C   UNL     1      40.819 -14.449   3.510  1.00  0.00     0.037 A 
HETATM   22  C   UNL     1      40.237 -13.219   3.206  1.00  0.00     0.003 A 
HETATM   23  C   UNL     1      39.197 -13.153   2.277  1.00  0.00     0.000 A 
HETATM   24  C   UNL     1      38.745 -14.314   1.644  1.00  0.00     0.003 A 
HETATM   25  C   UNL     1      39.329 -15.544   1.944  1.00  0.00     0.037 A 
ENDBRANCH  19  20
ENDBRANCH   1  19
TORSDOF 4
ENDMDL
MODEL 7
REMARK VINA RESULT:      -7.6      4.438      7.241
REMARK  4 active torsions:
REMARK  status: ('A' for Active; 'I' for Inactive)
REMARK    1  A    between atoms: C_4  and  O_5 
REMARK    2  A    between atoms: O_5  and  C_6 
REMARK    3  A    between atoms: C_7  and  N_8 
REMARK       I    between atoms: N_8  and  C_9 
REMARK    4  A    between atoms: C_9  and  C_10 
ROOT
HETATM    1  C   UNL     1      41.488 -15.554   1.256  1.00  0.00     0.102 A 
HETATM    2  C   UNL     1      41.116 -14.464   0.442  1.00  0.00     0.069 A 
HETATM    3  C   UNL     1      39.863 -13.872   0.626  1.00  0.00     0.032 A 
HETATM    4  C   UNL     1      38.969 -14.386   1.568  1.00  0.00     0.002 A 
HETATM    5  C   UNL     1      39.321 -15.495   2.334  1.00  0.00     0.003 A 
HETATM    6  C   UNL     1      40.578 -16.082   2.178  1.00  0.00     0.039 A 
ENDROOT
BRANCH   2   7
HETATM    7  N   UNL     1      42.064 -13.994  -0.491  1.00  0.00    -0.320 N 
HETATM    8  C   UNL     1      41.982 -13.688  -1.819  1.00  0.00     0.257 C 
HETATM    9  O   UNL     1      42.870 -13.019  -2.348  1.00  0.00    -0.267 OA
HETATM   10  H   UNL     1      42.992 -13.833  -0.112  1.00  0.00     0.169 HD
BRANCH   8  11
HETATM   11  C   UNL     1      40.879 -14.234  -2.658  1.00  0.00     0.048 A 
HETATM   12  C   UNL     1      39.895 -13.426  -3.090  1.00  0.00     0.108 A 
HETATM   13  N   UNL     1      38.846 -13.931  -3.823  1.00  0.00    -0.333 N 
HETATM   14  C   UNL     1      38.699 -15.261  -4.136  1.00  0.00     0.245 A 
HETATM   15  H   UNL     1      38.117 -13.314  -4.163  1.00  0.00     0.168 HD
HETATM   16  O   UNL     1      37.764 -15.689  -4.801  1.00  0.00    -0.268 OA
HETATM   17  C   UNL     1      39.751 -16.168  -3.608  1.00  0.00     0.075 A 
HETATM   18  C   UNL     1      40.775 -15.661  -2.903  1.00  0.00     0.024 A 
ENDBRANCH   8  11
ENDBRANCH   2   7
BRANCH   1  19
HETATM   19  O   UNL     1      42.748 -16.079   1.012  1.00  0.00    -0.309 OA
BRANCH  19  20
HETATM   20  C   UNL     1      43.195 -17.125   1.776  1.00  0.00     0.076 A 
HETATM   21  C   UNL     1      43.496 -16.868   3.114  1.00  0.00     0.037 A 
HETATM   22  C   UNL     1      43.902 -17.911   3.944  1.00  0.00     0.003 A 
HETATM   23  C   UNL     1      43.990 -19.209   3.438  1.00  0.00     0.000 A 
HETATM   24  C   UNL     1      43.663 -19.467   2.105  1.00  0.00     0.003 A 
HETATM   25  C   UNL     1      43.252 -18.425   1.274  1.00  0.00     0.037 A 
ENDBRANCH  19  20
ENDBRANCH   1  19
TORSDOF 4
ENDMDL
MODEL 8
REMARK VINA RESULT:      -7.6      2.859      5.137
REMARK  4 active torsions:
REMARK  status: ('A' for Active; 'I' for Inactive)
REMARK    1  A    between atoms: C_4  and  O_5 
REMARK    2  A    between atoms: O_5  and  C_6 
REMARK    3  A    between atoms: C_7  and  N_8 
REMARK       I    between atoms: N_8  and  C_9 
REMARK    4  A    between atoms: C_9  and  C_10 
ROOT
HETATM    1  C   UNL     1      42.275 -17.570   3.365  1.00  0.00     0.102 A 
HETATM    2  C   UNL     1      41.602 -17.118   2.211  1.00  0.00     0.069 A 
HETATM    3  C   UNL     1      42.179 -17.334   0.956  1.00  0.00     0.032 A 
HETATM    4  C   UNL     1      43.432 -17.942   0.850  1.00  0.00     0.002 A 
HETATM    5  C   UNL     1      44.117 -18.339   1.995  1.00  0.00     0.003 A 
HETATM    6  C   UNL     1      43.543 -18.152   3.253  1.00  0.00     0.039 A 
ENDROOT
BRANCH   2   7
HETATM    7  N   UNL     1      40.341 -16.511   2.388  1.00  0.00    -0.320 N 
HETATM    8  C   UNL     1      39.796 -15.354   1.911  1.00  0.00     0.257 C 
HETATM    9  O   UNL     1      38.578 -15.183   1.968  1.00  0.00    -0.267 OA
HETATM   10  H   UNL     1      39.693 -17.033   2.971  1.00  0.00     0.169 HD
BRANCH   8  11
HETATM   11  C   UNL     1      40.667 -14.254   1.410  1.00  0.00     0.048 A 
HETATM   12  C   UNL     1      41.267 -13.420   2.277  1.00  0.00     0.108 A 
HETATM   13  N   UNL     1      42.033 -12.371   1.823  1.00  0.00    -0.333 N 
HETATM   14  C   UNL     1      42.215 -12.073   0.494  1.00  0.00     0.245 A 
HETATM   15  H   UNL     1      42.499 -11.757   2.481  1.00  0.00     0.168 HD
HETATM   16  O   UNL     1      42.910 -11.141   0.109  1.00  0.00    -0.268 OA
HETATM   17  C   UNL     1      41.502 -12.954  -0.468  1.00  0.00     0.075 A 
HETATM   18  C   UNL     1      40.768 -13.981  -0.013  1.00  0.00     0.024 A 
ENDBRANCH   8  11
ENDBRANCH   2   7
BRANCH   1  19
HETATM   19  O   UNL     1      41.632 -17.321   4.567  1.00  0.00    -0.309 OA
BRANCH  19  20
HETATM   20  C   UNL     1      42.326 -16.720   5.585  1.00  0.00     0.076 A 
HETATM   21  C   UNL     1      42.514 -17.449   6.759  1.00  0.00     0.037 A 
HETATM   22  C   UNL     1      43.261 -16.902   7.801  1.00  0.00     0.003 A 
HETATM   23  C   UNL     1      43.831 -15.636   7.658  1.00  0.00     0.000 A 
HETATM   24  C   UNL     1      43.662 -14.920   6.470  1.00  0.00     0.003 A 
HETATM   25  C   UNL     1      42.919 -15.467   5.425  1.00  0.00     0.037 A 
ENDBRANCH  19  20
ENDBRANCH   1  19
TORSDOF 4
ENDMDL
MODEL 9
REMARK VINA RESULT:      -7.5      2.712      5.030
REMARK  4 active torsions:
REMARK  status: ('A' for Active; 'I' for Inactive)
REMARK    1  A    between atoms: C_4  and  O_5 
REMARK    2  A    between atoms: O_5  and  C_6 
REMARK    3  A    between atoms: C_7  and  N_8 
REMARK       I    between atoms: N_8  and  C_9 
REMARK    4  A    between atoms: C_9  and  C_10 
ROOT
HETATM    1  C   UNL     1      42.582 -17.803   3.544  1.00  0.00     0.102 A 
HETATM    2  C   UNL     1      42.971 -16.531   3.077  1.00  0.00     0.069 A 
HETATM    3  C   UNL     1      43.620 -16.425   1.844  1.00  0.00     0.032 A 
HETATM    4  C   UNL     1      43.929 -17.572   1.107  1.00  0.00     0.002 A 
HETATM    5  C   UNL     1      43.590 -18.830   1.596  1.00  0.00     0.003 A 
HETATM    6  C   UNL     1      42.919 -18.950   2.815  1.00  0.00     0.039 A 
ENDROOT
BRANCH   2   7
HETATM    7  N   UNL     1      42.630 -15.414   3.869  1.00  0.00    -0.320 N 
HETATM    8  C   UNL     1      41.587 -14.534   3.826  1.00  0.00     0.257 C 
HETATM    9  O   UNL     1      41.349 -13.819   4.800  1.00  0.00    -0.267 OA
HETATM   10  H   UNL     1      43.267 -15.224   4.636  1.00  0.00     0.169 HD
BRANCH   8  11
HETATM   11  C   UNL     1      40.793 -14.356   2.577  1.00  0.00     0.048 A 
HETATM   12  C   UNL     1      39.666 -15.064   2.389  1.00  0.00     0.108 A 
HETATM   13  N   UNL     1      38.953 -14.945   1.218  1.00  0.00    -0.333 N 
HETATM   14  C   UNL     1      39.335 -14.149   0.164  1.00  0.00     0.245 A 
HETATM   15  H   UNL     1      38.093 -15.466   1.088  1.00  0.00     0.168 HD
HETATM   16  O   UNL     1      38.680 -14.047  -0.865  1.00  0.00    -0.268 OA
HETATM   17  C   UNL     1      40.614 -13.412   0.343  1.00  0.00     0.075 A 
HETATM   18  C   UNL     1      41.294 -13.529   1.495  1.00  0.00     0.024 A 
ENDBRANCH   8  11
ENDBRANCH   2   7
BRANCH   1  19
HETATM   19  O   UNL     1      41.939 -17.818   4.772  1.00  0.00    -0.309 OA
BRANCH  19  20
HETATM   20  C   UNL     1      42.677 -18.013   5.910  1.00  0.00     0.076 A 
HETATM   21  C   UNL     1      42.523 -17.093   6.947  1.00  0.00     0.037 A 
HETATM   22  C   UNL     1      43.211 -17.280   8.145  1.00  0.00     0.003 A 
HETATM   23  C   UNL     1      44.035 -18.395   8.308  1.00  0.00     0.000 A 
HETATM   24  C   UNL     1      44.165 -19.328   7.276  1.00  0.00     0.003 A 
HETATM   25  C   UNL     1      43.475 -19.145   6.079  1.00  0.00     0.037 A 
ENDBRANCH  19  20
ENDBRANCH   1  19
TORSDOF 4
ENDMDL
MODEL 10
REMARK VINA RESULT:      -7.4      2.834      4.235
REMARK  4 active torsions:
REMARK  status: ('A' for Active; 'I' for Inactive)
REMARK    1  A    between atoms: C_4  and  O_5 
REMARK    2  A    between atoms: O_5  and  C_6 
REMARK    3  A    between atoms: C_7  and  N_8 
REMARK       I    between atoms: N_8  and  C_9 
REMARK    4  A    between atoms: C_9  and  C_10 
ROOT
HETATM    1  C   UNL     1      43.234 -16.457   5.453  1.00  0.00     0.102 A 
HETATM    2  C   UNL     1      42.919 -15.284   4.737  1.00  0.00     0.069 A 
HETATM    3  C   UNL     1      43.533 -14.080   5.095  1.00  0.00     0.032 A 
HETATM    4  C   UNL     1      44.406 -14.028   6.185  1.00  0.00     0.002 A 
HETATM    5  C   UNL     1      44.674 -15.179   6.922  1.00  0.00     0.003 A 
HETATM    6  C   UNL     1      44.088 -16.393   6.561  1.00  0.00     0.039 A 
ENDROOT
BRANCH   2   7
HETATM    7  N   UNL     1      42.030 -15.404   3.649  1.00  0.00    -0.320 N 
HETATM    8  C   UNL     1      41.056 -14.584   3.155  1.00  0.00     0.257 C 
HETATM    9  O   UNL     1      40.613 -14.775   2.022  1.00  0.00    -0.267 OA
HETATM   10  H   UNL     1      42.130 -16.257   3.107  1.00  0.00     0.169 HD
BRANCH   8  11
HETATM   11  C   UNL     1      40.455 -13.519   4.007  1.00  0.00     0.048 A 
HETATM   12  C   UNL     1      40.644 -12.224   3.700  1.00  0.00     0.108 A 
HETATM   13  N   UNL     1      40.135 -11.233   4.508  1.00  0.00    -0.333 N 
HETATM   14  C   UNL     1      39.447 -11.472   5.674  1.00  0.00     0.245 A 
HETATM   15  H   UNL     1      40.263 -10.258   4.263  1.00  0.00     0.168 HD
HETATM   16  O   UNL     1      38.991 -10.575   6.374  1.00  0.00    -0.268 OA
HETATM   17  C   UNL     1      39.291 -12.901   6.050  1.00  0.00     0.075 A 
HETATM   18  C   UNL     1      39.782 -13.859   5.247  1.00  0.00     0.024 A 
ENDBRANCH   8  11
ENDBRANCH   2   7
BRANCH   1  19
HETATM   19  O   UNL     1      42.588 -17.607   5.029  1.00  0.00    -0.309 OA
BRANCH  19  20
HETATM   20  C   UNL     1      43.276 -18.522   4.275  1.00  0.00     0.076 A 
HETATM   21  C   UNL     1      44.129 -19.400   4.943  1.00  0.00     0.037 A 
HETATM   22  C   UNL     1      44.808 -20.384   4.225  1.00  0.00     0.003 A 
HETATM   23  C   UNL     1      44.618 -20.496   2.847  1.00  0.00     0.000 A 
HETATM   24  C   UNL     1      43.742 -19.631   2.186  1.00  0.00     0.003 A 
HETATM   25  C   UNL     1      43.058 -18.649   2.903  1.00  0.00     0.037 A 
ENDBRANCH  19  20
ENDBRANCH   1  19
TORSDOF 4
ENDMDL
