MODEL 1
REMARK VINA RESULT:     -10.0      0.000      0.000
REMARK  7 active torsions:
REMARK  status: ('A' for Active; 'I' for Inactive)
REMARK    1  A    between atoms: N_1  and  C_2 
REMARK    2  A    between atoms: C_2  and  C_3 
REMARK    3  A    between atoms: C_6  and  C_24 
REMARK    4  A    between atoms: C_8  and  C_9 
REMARK    5  A    between atoms: C_13  and  C_15 
REMARK       I    between atoms: C_15  and  N_17 
REMARK    6  A    between atoms: N_17  and  C_18 
REMARK       I    between atoms: C_24  and  N_26 
REMARK    7  A    between atoms: N_26  and  C_27 
ROOT
HETATM    1  C   UNL     1      42.526 -14.284   5.638  1.00  0.00    -0.020 A 
HETATM    2  C   UNL     1      41.694 -15.203   4.971  1.00  0.00     0.011 A 
HETATM    3  C   UNL     1      42.011 -16.560   4.928  1.00  0.00     0.017 A 
HETATM    4  C   UNL     1      43.163 -17.036   5.561  1.00  0.00     0.033 A 
HETATM    5  C   UNL     1      43.994 -16.134   6.240  1.00  0.00     0.030 A 
HETATM    6  C   UNL     1      43.687 -14.758   6.303  1.00  0.00    -0.017 A 
ENDROOT
BRANCH   6   7
HETATM    7  C   UNL     1      44.587 -13.859   7.048  1.00  0.00    -0.024 A 
HETATM    8  C   UNL     1      45.914 -13.648   6.641  1.00  0.00     0.012 A 
HETATM    9  C   UNL     1      46.742 -12.758   7.329  1.00  0.00     0.002 A 
HETATM   10  C   UNL     1      46.243 -12.037   8.413  1.00  0.00     0.017 A 
HETATM   11  C   UNL     1      44.920 -12.220   8.826  1.00  0.00     0.033 A 
HETATM   12  C   UNL     1      44.121 -13.169   8.178  1.00  0.00     0.029 A 
BRANCH  11  13
HETATM   13  C   UNL     1      44.381 -11.361   9.921  1.00  0.00     0.256 C 
HETATM   14  O   UNL     1      44.858 -10.242  10.065  1.00  0.00    -0.267 OA
HETATM   15  N   UNL     1      43.337 -11.922  10.638  1.00  0.00    -0.323 N 
HETATM   16  H   UNL     1      43.025 -12.847  10.359  1.00  0.00     0.169 HD
BRANCH  15  17
HETATM   17  C   UNL     1      42.589 -11.327  11.676  1.00  0.00     0.035 A 
HETATM   18  C   UNL     1      43.108 -11.008  12.932  1.00  0.00     0.029 A 
HETATM   19  C   UNL     1      42.300 -10.399  13.899  1.00  0.00     0.002 A 
HETATM   20  C   UNL     1      40.967 -10.108  13.619  1.00  0.00     0.000 A 
HETATM   21  C   UNL     1      40.439 -10.428  12.372  1.00  0.00     0.002 A 
HETATM   22  C   UNL     1      41.246 -11.033  11.405  1.00  0.00     0.029 A 
ENDBRANCH  15  17
ENDBRANCH  11  13
ENDBRANCH   6   7
BRANCH   1  23
HETATM   23  C   UNL     1      42.146 -12.818   5.580  1.00  0.00     0.306 C 
BRANCH  23  24
HETATM   24  N   UNL     1      41.007 -12.506   6.446  1.00  0.00     0.082 N 
HETATM   25  H   UNL     1      40.790 -13.341   6.991  1.00  0.00     0.313 HD
HETATM   26  H   UNL     1      41.308 -11.808   7.128  1.00  0.00     0.313 HD
ENDBRANCH  23  24
ENDBRANCH   1  23
BRANCH   4  27
HETATM   27  C   UNL     1      43.480 -18.490   5.435  1.00  0.00     0.256 C 
HETATM   28  O   UNL     1      43.347 -19.199   6.427  1.00  0.00    -0.267 OA
HETATM   29  N   UNL     1      43.922 -18.910   4.195  1.00  0.00    -0.320 N 
HETATM   30  H   UNL     1      44.101 -18.210   3.484  1.00  0.00     0.169 HD
BRANCH  29  31
HETATM   31  C   UNL     1      44.229 -20.236   3.803  1.00  0.00     0.076 A 
HETATM   32  C   UNL     1      44.733 -21.214   4.656  1.00  0.00     0.052 A 
HETATM   33  C   UNL     1      44.983 -22.480   4.140  1.00  0.00     0.118 A 
HETATM   34  N   UNL     1      44.763 -22.831   2.853  1.00  0.00    -0.270 NA
HETATM   35  C   UNL     1      44.269 -21.867   2.044  1.00  0.00     0.160 A 
HETATM   36  C   UNL     1      43.994 -20.581   2.472  1.00  0.00     0.160 A 
HETATM   37  F   UNL     1      43.500 -19.674   1.614  1.00  0.00    -0.202 F 
ENDBRANCH  29  31
ENDBRANCH   4  27
TORSDOF 7
ENDMDL
MODEL 2
REMARK VINA RESULT:      -9.5      4.417      6.593
REMARK  7 active torsions:
REMARK  status: ('A' for Active; 'I' for Inactive)
REMARK    1  A    between atoms: N_1  and  C_2 
REMARK    2  A    between atoms: C_2  and  C_3 
REMARK    3  A    between atoms: C_6  and  C_24 
REMARK    4  A    between atoms: C_8  and  C_9 
REMARK    5  A    between atoms: C_13  and  C_15 
REMARK       I    between atoms: C_15  and  N_17 
REMARK    6  A    between atoms: N_17  and  C_18 
REMARK       I    between atoms: C_24  and  N_26 
REMARK    7  A    between atoms: N_26  and  C_27 
ROOT
HETATM    1  C   UNL     1      43.536 -18.466   3.062  1.00  0.00    -0.020 A 
HETATM    2  C   UNL     1      43.386 -18.665   1.677  1.00  0.00     0.011 A 
HETATM    3  C   UNL     1      42.657 -17.768   0.896  1.00  0.00     0.017 A 
HETATM    4  C   UNL     1      42.069 -16.642   1.479  1.00  0.00     0.033 A 
HETATM    5  C   UNL     1      42.220 -16.424   2.856  1.00  0.00     0.030 A 
HETATM    6  C   UNL     1      42.962 -17.315   3.662  1.00  0.00    -0.017 A 
ENDROOT
BRANCH   6   7
HETATM    7  C   UNL     1      43.105 -17.025   5.101  1.00  0.00    -0.024 A 
HETATM    8  C   UNL     1      42.742 -17.965   6.077  1.00  0.00     0.012 A 
HETATM    9  C   UNL     1      42.928 -17.695   7.435  1.00  0.00     0.002 A 
HETATM   10  C   UNL     1      43.513 -16.495   7.835  1.00  0.00     0.017 A 
HETATM   11  C   UNL     1      43.896 -15.551   6.877  1.00  0.00     0.033 A 
HETATM   12  C   UNL     1      43.638 -15.798   5.524  1.00  0.00     0.029 A 
BRANCH  11  13
HETATM   13  C   UNL     1      44.614 -14.322   7.324  1.00  0.00     0.256 C 
HETATM   14  O   UNL     1      45.407 -13.801   6.549  1.00  0.00    -0.267 OA
HETATM   15  N   UNL     1      44.255 -13.865   8.582  1.00  0.00    -0.323 N 
HETATM   16  H   UNL     1      43.541 -14.386   9.080  1.00  0.00     0.169 HD
BRANCH  15  17
HETATM   17  C   UNL     1      44.709 -12.700   9.236  1.00  0.00     0.035 A 
HETATM   18  C   UNL     1      45.832 -11.969   8.844  1.00  0.00     0.029 A 
HETATM   19  C   UNL     1      46.201 -10.811   9.538  1.00  0.00     0.002 A 
HETATM   20  C   UNL     1      45.455 -10.378  10.631  1.00  0.00     0.000 A 
HETATM   21  C   UNL     1      44.338 -11.104  11.033  1.00  0.00     0.002 A 
HETATM   22  C   UNL     1      43.967 -12.258  10.339  1.00  0.00     0.029 A 
ENDBRANCH  15  17
ENDBRANCH  11  13
ENDBRANCH   6   7
BRANCH   1  23
HETATM   23  C   UNL     1      44.285 -19.523   3.849  1.00  0.00     0.306 C 
BRANCH  23  24
HETATM   24  N   UNL     1      44.948 -20.496   2.978  1.00  0.00     0.082 N 
HETATM   25  H   UNL     1      44.399 -20.575   2.122  1.00  0.00     0.313 HD
HETATM   26  H   UNL     1      45.846 -20.105   2.689  1.00  0.00     0.313 HD
ENDBRANCH  23  24
ENDBRANCH   1  23
BRANCH   4  27
HETATM   27  C   UNL     1      41.254 -15.746   0.605  1.00  0.00     0.256 C 
HETATM   28  O   UNL     1      40.134 -15.426   0.988  1.00  0.00    -0.267 OA
HETATM   29  N   UNL     1      41.838 -15.368  -0.589  1.00  0.00    -0.320 N 
HETATM   30  H   UNL     1      42.723 -15.788  -0.848  1.00  0.00     0.169 HD
BRANCH  29  31
HETATM   31  C   UNL     1      41.303 -14.483  -1.557  1.00  0.00     0.076 A 
HETATM   32  C   UNL     1      41.379 -13.095  -1.484  1.00  0.00     0.052 A 
HETATM   33  C   UNL     1      40.817 -12.345  -2.510  1.00  0.00     0.118 A 
HETATM   34  N   UNL     1      40.198 -12.877  -3.588  1.00  0.00    -0.270 NA
HETATM   35  C   UNL     1      40.140 -14.227  -3.640  1.00  0.00     0.160 A 
HETATM   36  C   UNL     1      40.670 -15.051  -2.663  1.00  0.00     0.160 A 
HETATM   37  F   UNL     1      40.580 -16.384  -2.781  1.00  0.00    -0.202 F 
ENDBRANCH  29  31
ENDBRANCH   4  27
TORSDOF 7
ENDMDL
MODEL 3
REMARK VINA RESULT:      -9.4      3.564      4.816
REMARK  7 active torsions:
REMARK  status: ('A' for Active; 'I' for Inactive)
REMARK    1  A    between atoms: N_1  and  C_2 
REMARK    2  A    between atoms: C_2  and  C_3 
REMARK    3  A    between atoms: C_6  and  C_24 
REMARK    4  A    between atoms: C_8  and  C_9 
REMARK    5  A    between atoms: C_13  and  C_15 
REMARK       I    between atoms: C_15  and  N_17 
REMARK    6  A    between atoms: N_17  and  C_18 
REMARK       I    between atoms: C_24  and  N_26 
REMARK    7  A    between atoms: N_26  and  C_27 
ROOT
HETATM    1  C   UNL     1      43.407 -15.839   6.470  1.00  0.00    -0.020 A 
HETATM    2  C   UNL     1      42.732 -16.636   5.527  1.00  0.00     0.011 A 
HETATM    3  C   UNL     1      42.411 -16.140   4.264  1.00  0.00     0.017 A 
HETATM    4  C   UNL     1      42.767 -14.836   3.907  1.00  0.00     0.033 A 
HETATM    5  C   UNL     1      43.451 -14.035   4.831  1.00  0.00     0.030 A 
HETATM    6  C   UNL     1      43.794 -14.521   6.112  1.00  0.00    -0.017 A 
ENDROOT
BRANCH   6   7
HETATM    7  C   UNL     1      44.532 -13.641   7.036  1.00  0.00    -0.024 A 
HETATM    8  C   UNL     1      45.922 -13.477   6.938  1.00  0.00     0.012 A 
HETATM    9  C   UNL     1      46.603 -12.603   7.790  1.00  0.00     0.002 A 
HETATM   10  C   UNL     1      45.896 -11.852   8.729  1.00  0.00     0.017 A 
HETATM   11  C   UNL     1      44.508 -11.989   8.832  1.00  0.00     0.033 A 
HETATM   12  C   UNL     1      43.846 -12.922   8.026  1.00  0.00     0.029 A 
BRANCH  11  13
HETATM   13  C   UNL     1      43.765 -11.099   9.771  1.00  0.00     0.256 C 
HETATM   14  O   UNL     1      43.098 -10.188   9.297  1.00  0.00    -0.267 OA
HETATM   15  N   UNL     1      43.875 -11.445  11.108  1.00  0.00    -0.323 N 
HETATM   16  H   UNL     1      44.431 -12.264  11.333  1.00  0.00     0.169 HD
BRANCH  15  17
HETATM   17  C   UNL     1      43.235 -10.837  12.209  1.00  0.00     0.035 A 
HETATM   18  C   UNL     1      43.761  -9.760  12.924  1.00  0.00     0.029 A 
HETATM   19  C   UNL     1      43.050  -9.202  13.992  1.00  0.00     0.002 A 
HETATM   20  C   UNL     1      41.810  -9.721  14.357  1.00  0.00     0.000 A 
HETATM   21  C   UNL     1      41.279 -10.799  13.655  1.00  0.00     0.002 A 
HETATM   22  C   UNL     1      41.989 -11.354  12.586  1.00  0.00     0.029 A 
ENDBRANCH  15  17
ENDBRANCH  11  13
ENDBRANCH   6   7
BRANCH   1  23
HETATM   23  C   UNL     1      43.658 -16.431   7.843  1.00  0.00     0.306 C 
BRANCH  23  24
HETATM   24  N   UNL     1      43.100 -17.778   7.976  1.00  0.00     0.082 N 
HETATM   25  H   UNL     1      43.675 -18.412   7.420  1.00  0.00     0.313 HD
HETATM   26  H   UNL     1      43.223 -18.079   8.944  1.00  0.00     0.313 HD
ENDBRANCH  23  24
ENDBRANCH   1  23
BRANCH   4  27
HETATM   27  C   UNL     1      42.349 -14.341   2.562  1.00  0.00     0.256 C 
HETATM   28  O   UNL     1      42.833 -13.289   2.157  1.00  0.00    -0.267 OA
HETATM   29  N   UNL     1      41.422 -15.115   1.890  1.00  0.00    -0.320 N 
HETATM   30  H   UNL     1      41.009 -15.903   2.375  1.00  0.00     0.169 HD
BRANCH  29  31
HETATM   31  C   UNL     1      40.913 -14.897   0.586  1.00  0.00     0.076 A 
HETATM   32  C   UNL     1      41.416 -15.495  -0.566  1.00  0.00     0.052 A 
HETATM   33  C   UNL     1      40.816 -15.198  -1.784  1.00  0.00     0.118 A 
HETATM   34  N   UNL     1      39.762 -14.362  -1.926  1.00  0.00    -0.270 NA
HETATM   35  C   UNL     1      39.288 -13.796  -0.793  1.00  0.00     0.160 A 
HETATM   36  C   UNL     1      39.825 -14.033   0.459  1.00  0.00     0.160 A 
HETATM   37  F   UNL     1      39.301 -13.441   1.543  1.00  0.00    -0.202 F 
ENDBRANCH  29  31
ENDBRANCH   4  27
TORSDOF 7
ENDMDL
MODEL 4
REMARK VINA RESULT:      -9.4      4.300      8.704
REMARK  7 active torsions:
REMARK  status: ('A' for Active; 'I' for Inactive)
REMARK    1  A    between atoms: N_1  and  C_2 
REMARK    2  A    between atoms: C_2  and  C_3 
REMARK    3  A    between atoms: C_6  and  C_24 
REMARK    4  A    between atoms: C_8  and  C_9 
REMARK    5  A    between atoms: C_13  and  C_15 
REMARK       I    between atoms: C_15  and  N_17 
REMARK    6  A    between atoms: N_17  and  C_18 
REMARK       I    between atoms: C_24  and  N_26 
REMARK    7  A    between atoms: N_26  and  C_27 
ROOT
HETATM    1  C   UNL     1      41.564 -12.207   4.966  1.00  0.00    -0.020 A 
HETATM    2  C   UNL     1      40.820 -11.391   4.094  1.00  0.00     0.011 A 
HETATM    3  C   UNL     1      40.850 -11.599   2.715  1.00  0.00     0.017 A 
HETATM    4  C   UNL     1      41.616 -12.635   2.174  1.00  0.00     0.033 A 
HETATM    5  C   UNL     1      42.351 -13.464   3.032  1.00  0.00     0.030 A 
HETATM    6  C   UNL     1      42.328 -13.277   4.432  1.00  0.00    -0.017 A 
ENDROOT
BRANCH   6   7
HETATM    7  C   UNL     1      43.106 -14.192   5.287  1.00  0.00    -0.024 A 
HETATM    8  C   UNL     1      43.781 -13.732   6.428  1.00  0.00     0.012 A 
HETATM    9  C   UNL     1      44.475 -14.617   7.256  1.00  0.00     0.002 A 
HETATM   10  C   UNL     1      44.473 -15.983   6.975  1.00  0.00     0.017 A 
HETATM   11  C   UNL     1      43.793 -16.464   5.852  1.00  0.00     0.033 A 
HETATM   12  C   UNL     1      43.165 -15.561   4.987  1.00  0.00     0.029 A 
BRANCH  11  13
HETATM   13  C   UNL     1      43.719 -17.938   5.632  1.00  0.00     0.256 C 
HETATM   14  O   UNL     1      43.093 -18.612   6.440  1.00  0.00    -0.267 OA
HETATM   15  N   UNL     1      44.341 -18.385   4.477  1.00  0.00    -0.323 N 
HETATM   16  H   UNL     1      44.777 -17.687   3.884  1.00  0.00     0.169 HD
BRANCH  15  17
HETATM   17  C   UNL     1      44.377 -19.703   3.975  1.00  0.00     0.035 A 
HETATM   18  C   UNL     1      44.794 -20.812   4.713  1.00  0.00     0.029 A 
HETATM   19  C   UNL     1      44.778 -22.089   4.143  1.00  0.00     0.002 A 
HETATM   20  C   UNL     1      44.352 -22.268   2.829  1.00  0.00     0.000 A 
HETATM   21  C   UNL     1      43.941 -21.168   2.083  1.00  0.00     0.002 A 
HETATM   22  C   UNL     1      43.953 -19.892   2.653  1.00  0.00     0.029 A 
ENDBRANCH  15  17
ENDBRANCH  11  13
ENDBRANCH   6   7
BRANCH   1  23
HETATM   23  C   UNL     1      41.531 -11.873   6.445  1.00  0.00     0.306 C 
BRANCH  23  24
HETATM   24  N   UNL     1      40.222 -12.143   7.045  1.00  0.00     0.082 N 
HETATM   25  H   UNL     1      40.116 -13.155   7.122  1.00  0.00     0.313 HD
HETATM   26  H   UNL     1      40.235 -11.797   8.005  1.00  0.00     0.313 HD
ENDBRANCH  23  24
ENDBRANCH   1  23
BRANCH   4  27
HETATM   27  C   UNL     1      41.653 -12.775   0.687  1.00  0.00     0.256 C 
HETATM   28  O   UNL     1      42.495 -12.134   0.067  1.00  0.00    -0.267 OA
HETATM   29  N   UNL     1      40.706 -13.614   0.132  1.00  0.00    -0.320 N 
HETATM   30  H   UNL     1      39.990 -14.001   0.737  1.00  0.00     0.169 HD
BRANCH  29  31
HETATM   31  C   UNL     1      40.570 -13.961  -1.234  1.00  0.00     0.076 A 
HETATM   32  C   UNL     1      40.039 -13.122  -2.211  1.00  0.00     0.052 A 
HETATM   33  C   UNL     1      39.970 -13.588  -3.519  1.00  0.00     0.118 A 
HETATM   34  N   UNL     1      40.393 -14.810  -3.912  1.00  0.00    -0.270 NA
HETATM   35  C   UNL     1      40.908 -15.606  -2.948  1.00  0.00     0.160 A 
HETATM   36  C   UNL     1      41.012 -15.226  -1.622  1.00  0.00     0.160 A 
HETATM   37  F   UNL     1      41.539 -16.065  -0.717  1.00  0.00    -0.202 F 
ENDBRANCH  29  31
ENDBRANCH   4  27
TORSDOF 7
ENDMDL
MODEL 5
REMARK VINA RESULT:      -9.0      4.796      9.849
REMARK  7 active torsions:
REMARK  status: ('A' for Active; 'I' for Inactive)
REMARK    1  A    between atoms: N_1  and  C_2 
REMARK    2  A    between atoms: C_2  and  C_3 
REMARK    3  A    between atoms: C_6  and  C_24 
REMARK    4  A    between atoms: C_8  and  C_9 
REMARK    5  A    between atoms: C_13  and  C_15 
REMARK       I    between atoms: C_15  and  N_17 
REMARK    6  A    between atoms: N_17  and  C_18 
REMARK       I    between atoms: C_24  and  N_26 
REMARK    7  A    between atoms: N_26  and  C_27 
ROOT
HETATM    1  C   UNL     1      40.562 -13.388   4.559  1.00  0.00    -0.020 A 
HETATM    2  C   UNL     1      39.735 -12.650   3.692  1.00  0.00     0.011 A 
HETATM    3  C   UNL     1      40.231 -12.128   2.497  1.00  0.00     0.017 A 
HETATM    4  C   UNL     1      41.563 -12.340   2.133  1.00  0.00     0.033 A 
HETATM    5  C   UNL     1      42.395 -13.084   2.981  1.00  0.00     0.030 A 
HETATM    6  C   UNL     1      41.911 -13.629   4.190  1.00  0.00    -0.017 A 
ENDROOT
BRANCH   6   7
HETATM    7  C   UNL     1      42.827 -14.421   5.033  1.00  0.00    -0.024 A 
HETATM    8  C   UNL     1      43.591 -13.823   6.047  1.00  0.00     0.012 A 
HETATM    9  C   UNL     1      44.418 -14.592   6.869  1.00  0.00     0.002 A 
HETATM   10  C   UNL     1      44.466 -15.976   6.712  1.00  0.00     0.017 A 
HETATM   11  C   UNL     1      43.700 -16.594   5.718  1.00  0.00     0.033 A 
HETATM   12  C   UNL     1      42.933 -15.808   4.851  1.00  0.00     0.029 A 
BRANCH  11  13
HETATM   13  C   UNL     1      43.689 -18.084   5.640  1.00  0.00     0.256 C 
HETATM   14  O   UNL     1      43.058 -18.702   6.488  1.00  0.00    -0.267 OA
HETATM   15  N   UNL     1      44.369 -18.613   4.556  1.00  0.00    -0.323 N 
HETATM   16  H   UNL     1      44.802 -17.959   3.912  1.00  0.00     0.169 HD
BRANCH  15  17
HETATM   17  C   UNL     1      44.473 -19.971   4.185  1.00  0.00     0.035 A 
HETATM   18  C   UNL     1      44.778 -21.005   5.072  1.00  0.00     0.029 A 
HETATM   19  C   UNL     1      44.840 -22.328   4.624  1.00  0.00     0.002 A 
HETATM   20  C   UNL     1      44.604 -22.629   3.285  1.00  0.00     0.000 A 
HETATM   21  C   UNL     1      44.305 -21.605   2.391  1.00  0.00     0.002 A 
HETATM   22  C   UNL     1      44.240 -20.283   2.839  1.00  0.00     0.029 A 
ENDBRANCH  15  17
ENDBRANCH  11  13
ENDBRANCH   6   7
BRANCH   1  23
HETATM   23  C   UNL     1      39.965 -13.863   5.869  1.00  0.00     0.306 C 
BRANCH  23  24
HETATM   24  N   UNL     1      39.639 -15.290   5.845  1.00  0.00     0.082 N 
HETATM   25  H   UNL     1      39.427 -15.546   4.880  1.00  0.00     0.313 HD
HETATM   26  H   UNL     1      40.482 -15.813   6.085  1.00  0.00     0.313 HD
ENDBRANCH  23  24
ENDBRANCH   1  23
BRANCH   4  27
HETATM   27  C   UNL     1      42.052 -11.711   0.870  1.00  0.00     0.256 C 
HETATM   28  O   UNL     1      42.524 -12.441   0.005  1.00  0.00    -0.267 OA
HETATM   29  N   UNL     1      41.945 -10.335   0.796  1.00  0.00    -0.320 N 
HETATM   30  H   UNL     1      41.643  -9.829   1.621  1.00  0.00     0.169 HD
BRANCH  29  31
HETATM   31  C   UNL     1      42.278  -9.512  -0.307  1.00  0.00     0.076 A 
HETATM   32  C   UNL     1      43.515  -8.897  -0.487  1.00  0.00     0.052 A 
HETATM   33  C   UNL     1      43.710  -8.120  -1.623  1.00  0.00     0.118 A 
HETATM   34  N   UNL     1      42.773  -7.922  -2.577  1.00  0.00    -0.270 NA
HETATM   35  C   UNL     1      41.582  -8.532  -2.384  1.00  0.00     0.160 A 
HETATM   36  C   UNL     1      41.300  -9.321  -1.283  1.00  0.00     0.160 A 
HETATM   37  F   UNL     1      40.096  -9.901  -1.157  1.00  0.00    -0.202 F 
ENDBRANCH  29  31
ENDBRANCH   4  27
TORSDOF 7
ENDMDL
MODEL 6
REMARK VINA RESULT:      -8.9      2.487      3.845
REMARK  7 active torsions:
REMARK  status: ('A' for Active; 'I' for Inactive)
REMARK    1  A    between atoms: N_1  and  C_2 
REMARK    2  A    between atoms: C_2  and  C_3 
REMARK    3  A    between atoms: C_6  and  C_24 
REMARK    4  A    between atoms: C_8  and  C_9 
REMARK    5  A    between atoms: C_13  and  C_15 
REMARK       I    between atoms: C_15  and  N_17 
REMARK    6  A    between atoms: N_17  and  C_18 
REMARK       I    between atoms: C_24  and  N_26 
REMARK    7  A    between atoms: N_26  and  C_27 
ROOT
HETATM    1  C   UNL     1      41.795 -13.507   2.025  1.00  0.00    -0.020 A 
HETATM    2  C   UNL     1      42.338 -14.564   1.272  1.00  0.00     0.011 A 
HETATM    3  C   UNL     1      42.502 -15.833   1.829  1.00  0.00     0.017 A 
HETATM    4  C   UNL     1      42.116 -16.079   3.149  1.00  0.00     0.033 A 
HETATM    5  C   UNL     1      41.563 -15.038   3.907  1.00  0.00     0.030 A 
HETATM    6  C   UNL     1      41.380 -13.749   3.360  1.00  0.00    -0.017 A 
ENDROOT
BRANCH   6   7
HETATM    7  C   UNL     1      40.773 -12.698   4.198  1.00  0.00    -0.024 A 
HETATM    8  C   UNL     1      39.406 -12.392   4.113  1.00  0.00     0.012 A 
HETATM    9  C   UNL     1      38.835 -11.426   4.946  1.00  0.00     0.002 A 
HETATM   10  C   UNL     1      39.617 -10.778   5.901  1.00  0.00     0.017 A 
HETATM   11  C   UNL     1      40.978 -11.079   6.012  1.00  0.00     0.033 A 
HETATM   12  C   UNL     1      41.556 -11.992   5.124  1.00  0.00     0.029 A 
BRANCH  11  13
HETATM   13  C   UNL     1      41.767 -10.448   7.110  1.00  0.00     0.256 C 
HETATM   14  O   UNL     1      42.002  -9.248   7.037  1.00  0.00    -0.267 OA
HETATM   15  N   UNL     1      42.111 -11.305   8.143  1.00  0.00    -0.323 N 
HETATM   16  H   UNL     1      41.795 -12.267   8.075  1.00  0.00     0.169 HD
BRANCH  15  17
HETATM   17  C   UNL     1      42.790 -10.982   9.337  1.00  0.00     0.035 A 
HETATM   18  C   UNL     1      44.151 -11.209   9.550  1.00  0.00     0.029 A 
HETATM   19  C   UNL     1      44.750 -10.839  10.760  1.00  0.00     0.002 A 
HETATM   20  C   UNL     1      43.993 -10.244  11.767  1.00  0.00     0.000 A 
HETATM   21  C   UNL     1      42.634 -10.020  11.566  1.00  0.00     0.002 A 
HETATM   22  C   UNL     1      42.036 -10.387  10.358  1.00  0.00     0.029 A 
ENDBRANCH  15  17
ENDBRANCH  11  13
ENDBRANCH   6   7
BRANCH   1  23
HETATM   23  C   UNL     1      41.713 -12.143   1.368  1.00  0.00     0.306 C 
BRANCH  23  24
HETATM   24  N   UNL     1      40.459 -11.954   0.637  1.00  0.00     0.082 N 
HETATM   25  H   UNL     1      40.684 -11.873  -0.355  1.00  0.00     0.313 HD
HETATM   26  H   UNL     1      39.909 -12.810   0.721  1.00  0.00     0.313 HD
ENDBRANCH  23  24
ENDBRANCH   1  23
BRANCH   4  27
HETATM   27  C   UNL     1      42.367 -17.441   3.709  1.00  0.00     0.256 C 
HETATM   28  O   UNL     1      41.525 -17.921   4.461  1.00  0.00    -0.267 OA
HETATM   29  N   UNL     1      43.554 -18.041   3.338  1.00  0.00    -0.320 N 
HETATM   30  H   UNL     1      44.222 -17.499   2.801  1.00  0.00     0.169 HD
BRANCH  29  31
HETATM   31  C   UNL     1      43.996 -19.343   3.680  1.00  0.00     0.076 A 
HETATM   32  C   UNL     1      44.403 -19.727   4.955  1.00  0.00     0.052 A 
HETATM   33  C   UNL     1      44.806 -21.042   5.154  1.00  0.00     0.118 A 
HETATM   34  N   UNL     1      44.825 -21.985   4.185  1.00  0.00    -0.270 NA
HETATM   35  C   UNL     1      44.421 -21.590   2.956  1.00  0.00     0.160 A 
HETATM   36  C   UNL     1      44.007 -20.302   2.668  1.00  0.00     0.160 A 
HETATM   37  F   UNL     1      43.614 -19.981   1.425  1.00  0.00    -0.202 F 
ENDBRANCH  29  31
ENDBRANCH   4  27
TORSDOF 7
ENDMDL
MODEL 7
REMARK VINA RESULT:      -8.9      3.324     10.451
REMARK  7 active torsions:
REMARK  status: ('A' for Active; 'I' for Inactive)
REMARK    1  A    between atoms: N_1  and  C_2 
REMARK    2  A    between atoms: C_2  and  C_3 
REMARK    3  A    between atoms: C_6  and  C_24 
REMARK    4  A    between atoms: C_8  and  C_9 
REMARK    5  A    between atoms: C_13  and  C_15 
REMARK       I    between atoms: C_15  and  N_17 
REMARK    6  A    between atoms: N_17  and  C_18 
REMARK       I    between atoms: C_24  and  N_26 
REMARK    7  A    between atoms: N_26  and  C_27 
ROOT
HETATM    1  C   UNL     1      41.831 -12.462   4.086  1.00  0.00    -0.020 A 
HETATM    2  C   UNL     1      41.005 -11.346   3.857  1.00  0.00     0.011 A 
HETATM    3  C   UNL     1      40.335 -10.720   4.907  1.00  0.00     0.017 A 
HETATM    4  C   UNL     1      40.483 -11.187   6.216  1.00  0.00     0.033 A 
HETATM    5  C   UNL     1      41.312 -12.290   6.461  1.00  0.00     0.030 A 
HETATM    6  C   UNL     1      42.006 -12.933   5.413  1.00  0.00    -0.017 A 
ENDROOT
BRANCH   6   7
HETATM    7  C   UNL     1      42.881 -14.076   5.732  1.00  0.00    -0.024 A 
HETATM    8  C   UNL     1      43.901 -13.973   6.691  1.00  0.00     0.012 A 
HETATM    9  C   UNL     1      44.691 -15.078   7.018  1.00  0.00     0.002 A 
HETATM   10  C   UNL     1      44.449 -16.312   6.415  1.00  0.00     0.017 A 
HETATM   11  C   UNL     1      43.428 -16.439   5.468  1.00  0.00     0.033 A 
HETATM   12  C   UNL     1      42.692 -15.311   5.093  1.00  0.00     0.029 A 
BRANCH  11  13
HETATM   13  C   UNL     1      43.123 -17.792   4.917  1.00  0.00     0.256 C 
HETATM   14  O   UNL     1      41.957 -18.169   4.925  1.00  0.00    -0.267 OA
HETATM   15  N   UNL     1      44.215 -18.466   4.396  1.00  0.00    -0.323 N 
HETATM   16  H   UNL     1      45.111 -17.992   4.422  1.00  0.00     0.169 HD
BRANCH  15  17
HETATM   17  C   UNL     1      44.222 -19.722   3.752  1.00  0.00     0.035 A 
HETATM   18  C   UNL     1      43.792 -19.933   2.441  1.00  0.00     0.029 A 
HETATM   19  C   UNL     1      43.854 -21.209   1.871  1.00  0.00     0.002 A 
HETATM   20  C   UNL     1      44.340 -22.286   2.609  1.00  0.00     0.000 A 
HETATM   21  C   UNL     1      44.764 -22.088   3.919  1.00  0.00     0.002 A 
HETATM   22  C   UNL     1      44.707 -20.812   4.487  1.00  0.00     0.029 A 
ENDBRANCH  15  17
ENDBRANCH  11  13
ENDBRANCH   6   7
BRANCH   1  23
HETATM   23  C   UNL     1      42.469 -13.126   2.882  1.00  0.00     0.306 C 
BRANCH  23  24
HETATM   24  N   UNL     1      42.227 -12.381   1.644  1.00  0.00     0.082 N 
HETATM   25  H   UNL     1      42.783 -11.526   1.680  1.00  0.00     0.313 HD
HETATM   26  H   UNL     1      42.609 -12.921   0.867  1.00  0.00     0.313 HD
ENDBRANCH  23  24
ENDBRANCH   1  23
BRANCH   4  27
HETATM   27  C   UNL     1      39.698 -10.511   7.293  1.00  0.00     0.256 C 
HETATM   28  O   UNL     1      38.752  -9.804   6.962  1.00  0.00    -0.267 OA
HETATM   29  N   UNL     1      40.128 -10.732   8.587  1.00  0.00    -0.320 N 
HETATM   30  H   UNL     1      40.991 -11.245   8.729  1.00  0.00     0.169 HD
BRANCH  29  31
HETATM   31  C   UNL     1      39.524 -10.260   9.778  1.00  0.00     0.076 A 
HETATM   32  C   UNL     1      38.368  -9.485   9.823  1.00  0.00     0.052 A 
HETATM   33  C   UNL     1      37.878  -9.095  11.064  1.00  0.00     0.118 A 
HETATM   34  N   UNL     1      38.452  -9.424  12.243  1.00  0.00    -0.270 NA
HETATM   35  C   UNL     1      39.570 -10.181  12.176  1.00  0.00     0.160 A 
HETATM   36  C   UNL     1      40.128 -10.611  10.986  1.00  0.00     0.160 A 
HETATM   37  F   UNL     1      41.239 -11.364  10.993  1.00  0.00    -0.202 F 
ENDBRANCH  29  31
ENDBRANCH   4  27
TORSDOF 7
ENDMDL
MODEL 8
REMARK VINA RESULT:      -8.8      6.133     10.494
REMARK  7 active torsions:
REMARK  status: ('A' for Active; 'I' for Inactive)
REMARK    1  A    between atoms: N_1  and  C_2 
REMARK    2  A    between atoms: C_2  and  C_3 
REMARK    3  A    between atoms: C_6  and  C_24 
REMARK    4  A    between atoms: C_8  and  C_9 
REMARK    5  A    between atoms: C_13  and  C_15 
REMARK       I    between atoms: C_15  and  N_17 
REMARK    6  A    between atoms: N_17  and  C_18 
REMARK       I    between atoms: C_24  and  N_26 
REMARK    7  A    between atoms: N_26  and  C_27 
ROOT
HETATM    1  C   UNL     1      40.237 -13.987   1.626  1.00  0.00    -0.020 A 
HETATM    2  C   UNL     1      39.636 -13.515   0.445  1.00  0.00     0.011 A 
HETATM    3  C   UNL     1      40.309 -12.635  -0.402  1.00  0.00     0.017 A 
HETATM    4  C   UNL     1      41.606 -12.214  -0.096  1.00  0.00     0.033 A 
HETATM    5  C   UNL     1      42.222 -12.686   1.071  1.00  0.00     0.030 A 
HETATM    6  C   UNL     1      41.562 -13.584   1.938  1.00  0.00    -0.017 A 
ENDROOT
BRANCH   6   7
HETATM    7  C   UNL     1      42.266 -14.064   3.141  1.00  0.00    -0.024 A 
HETATM    8  C   UNL     1      42.521 -13.214   4.228  1.00  0.00     0.012 A 
HETATM    9  C   UNL     1      43.148 -13.693   5.381  1.00  0.00     0.002 A 
HETATM   10  C   UNL     1      43.497 -15.040   5.477  1.00  0.00     0.017 A 
HETATM   11  C   UNL     1      43.238 -15.907   4.411  1.00  0.00     0.033 A 
HETATM   12  C   UNL     1      42.678 -15.402   3.232  1.00  0.00     0.029 A 
BRANCH  11  13
HETATM   13  C   UNL     1      43.524 -17.362   4.580  1.00  0.00     0.256 C 
HETATM   14  O   UNL     1      43.456 -17.837   5.707  1.00  0.00    -0.267 OA
HETATM   15  N   UNL     1      43.793 -18.041   3.403  1.00  0.00    -0.323 N 
HETATM   16  H   UNL     1      43.763 -17.507   2.540  1.00  0.00     0.169 HD
BRANCH  15  17
HETATM   17  C   UNL     1      44.031 -19.422   3.243  1.00  0.00     0.035 A 
HETATM   18  C   UNL     1      44.656 -20.226   4.197  1.00  0.00     0.029 A 
HETATM   19  C   UNL     1      44.834 -21.594   3.965  1.00  0.00     0.002 A 
HETATM   20  C   UNL     1      44.393 -22.169   2.776  1.00  0.00     0.000 A 
HETATM   21  C   UNL     1      43.774 -21.375   1.815  1.00  0.00     0.002 A 
HETATM   22  C   UNL     1      43.594 -20.009   2.048  1.00  0.00     0.029 A 
ENDBRANCH  15  17
ENDBRANCH  11  13
ENDBRANCH   6   7
BRANCH   1  23
HETATM   23  C   UNL     1      39.413 -14.886   2.526  1.00  0.00     0.306 C 
BRANCH  23  24
HETATM   24  N   UNL     1      39.271 -16.237   1.981  1.00  0.00     0.082 N 
HETATM   25  H   UNL     1      39.520 -16.203   0.991  1.00  0.00     0.313 HD
HETATM   26  H   UNL     1      39.976 -16.833   2.417  1.00  0.00     0.313 HD
ENDBRANCH  23  24
ENDBRANCH   1  23
BRANCH   4  27
HETATM   27  C   UNL     1      42.256 -11.229  -1.011  1.00  0.00     0.256 C 
HETATM   28  O   UNL     1      43.412 -10.895  -0.774  1.00  0.00    -0.267 OA
HETATM   29  N   UNL     1      41.476 -10.759  -2.050  1.00  0.00    -0.320 N 
HETATM   30  H   UNL     1      40.497 -11.022  -2.077  1.00  0.00     0.169 HD
BRANCH  29  31
HETATM   31  C   UNL     1      41.873  -9.873  -3.081  1.00  0.00     0.076 A 
HETATM   32  C   UNL     1      41.982  -8.492  -2.936  1.00  0.00     0.052 A 
HETATM   33  C   UNL     1      42.391  -7.740  -4.031  1.00  0.00     0.118 A 
HETATM   34  N   UNL     1      42.698  -8.264  -5.239  1.00  0.00    -0.270 NA
HETATM   35  C   UNL     1      42.590  -9.607  -5.356  1.00  0.00     0.160 A 
HETATM   36  C   UNL     1      42.188 -10.431  -4.320  1.00  0.00     0.160 A 
HETATM   37  F   UNL     1      42.107 -11.758  -4.505  1.00  0.00    -0.202 F 
ENDBRANCH  29  31
ENDBRANCH   4  27
TORSDOF 7
ENDMDL
MODEL 9
REMARK VINA RESULT:      -8.8      3.496     10.358
REMARK  7 active torsions:
REMARK  status: ('A' for Active; 'I' for Inactive)
REMARK    1  A    between atoms: N_1  and  C_2 
REMARK    2  A    between atoms: C_2  and  C_3 
REMARK    3  A    between atoms: C_6  and  C_24 
REMARK    4  A    between atoms: C_8  and  C_9 
REMARK    5  A    between atoms: C_13  and  C_15 
REMARK       I    between atoms: C_15  and  N_17 
REMARK    6  A    between atoms: N_17  and  C_18 
REMARK       I    between atoms: C_24  and  N_26 
REMARK    7  A    between atoms: N_26  and  C_27 
ROOT
HETATM    1  C   UNL     1      39.704 -11.363   4.955  1.00  0.00    -0.020 A 
HETATM    2  C   UNL     1      39.357 -10.477   5.993  1.00  0.00     0.011 A 
HETATM    3  C   UNL     1      40.163 -10.344   7.123  1.00  0.00     0.017 A 
HETATM    4  C   UNL     1      41.343 -11.083   7.240  1.00  0.00     0.033 A 
HETATM    5  C   UNL     1      41.707 -11.960   6.208  1.00  0.00     0.030 A 
HETATM    6  C   UNL     1      40.910 -12.104   5.052  1.00  0.00    -0.017 A 
ENDROOT
BRANCH   6   7
HETATM    7  C   UNL     1      41.354 -13.026   3.989  1.00  0.00    -0.024 A 
HETATM    8  C   UNL     1      41.772 -12.552   2.736  1.00  0.00     0.012 A 
HETATM    9  C   UNL     1      42.234 -13.433   1.755  1.00  0.00     0.002 A 
HETATM   10  C   UNL     1      42.319 -14.798   2.027  1.00  0.00     0.017 A 
HETATM   11  C   UNL     1      41.922 -15.288   3.274  1.00  0.00     0.033 A 
HETATM   12  C   UNL     1      41.390 -14.408   4.223  1.00  0.00     0.029 A 
BRANCH  11  13
HETATM   13  C   UNL     1      42.121 -16.736   3.575  1.00  0.00     0.256 C 
HETATM   14  O   UNL     1      41.273 -17.308   4.249  1.00  0.00    -0.267 OA
HETATM   15  N   UNL     1      43.247 -17.299   2.998  1.00  0.00    -0.323 N 
HETATM   16  H   UNL     1      43.826 -16.696   2.423  1.00  0.00     0.169 HD
BRANCH  15  17
HETATM   17  C   UNL     1      43.655 -18.649   3.048  1.00  0.00     0.035 A 
HETATM   18  C   UNL     1      43.437 -19.572   2.024  1.00  0.00     0.029 A 
HETATM   19  C   UNL     1      43.894 -20.889   2.147  1.00  0.00     0.002 A 
HETATM   20  C   UNL     1      44.568 -21.294   3.296  1.00  0.00     0.000 A 
HETATM   21  C   UNL     1      44.786 -20.383   4.325  1.00  0.00     0.002 A 
HETATM   22  C   UNL     1      44.332 -19.067   4.201  1.00  0.00     0.029 A 
ENDBRANCH  15  17
ENDBRANCH  11  13
ENDBRANCH   6   7
BRANCH   1  23
HETATM   23  C   UNL     1      38.740 -11.500   3.794  1.00  0.00     0.306 C 
BRANCH  23  24
HETATM   24  N   UNL     1      37.674 -10.497   3.836  1.00  0.00     0.082 N 
HETATM   25  H   UNL     1      37.520 -10.164   2.884  1.00  0.00     0.313 HD
HETATM   26  H   UNL     1      36.807 -10.964   4.104  1.00  0.00     0.313 HD
ENDBRANCH  23  24
ENDBRANCH   1  23
BRANCH   4  27
HETATM   27  C   UNL     1      42.137 -10.939   8.496  1.00  0.00     0.256 C 
HETATM   28  O   UNL     1      43.361 -10.965   8.413  1.00  0.00    -0.267 OA
HETATM   29  N   UNL     1      41.410 -10.808   9.663  1.00  0.00    -0.320 N 
HETATM   30  H   UNL     1      40.402 -10.916   9.619  1.00  0.00     0.169 HD
BRANCH  29  31
HETATM   31  C   UNL     1      41.920 -10.599  10.968  1.00  0.00     0.076 A 
HETATM   32  C   UNL     1      43.108  -9.931  11.251  1.00  0.00     0.052 A 
HETATM   33  C   UNL     1      43.489  -9.790  12.581  1.00  0.00     0.118 A 
HETATM   34  N   UNL     1      42.773 -10.257  13.628  1.00  0.00    -0.270 NA
HETATM   35  C   UNL     1      41.620 -10.898  13.329  1.00  0.00     0.160 A 
HETATM   36  C   UNL     1      41.167 -11.087  12.036  1.00  0.00     0.160 A 
HETATM   37  F   UNL     1      40.010 -11.728  11.812  1.00  0.00    -0.202 F 
ENDBRANCH  29  31
ENDBRANCH   4  27
TORSDOF 7
ENDMDL
MODEL 10
REMARK VINA RESULT:      -8.7      5.021      8.492
REMARK  7 active torsions:
REMARK  status: ('A' for Active; 'I' for Inactive)
REMARK    1  A    between atoms: N_1  and  C_2 
REMARK    2  A    between atoms: C_2  and  C_3 
REMARK    3  A    between atoms: C_6  and  C_24 
REMARK    4  A    between atoms: C_8  and  C_9 
REMARK    5  A    between atoms: C_13  and  C_15 
REMARK       I    between atoms: C_15  and  N_17 
REMARK    6  A    between atoms: N_17  and  C_18 
REMARK       I    between atoms: C_24  and  N_26 
REMARK    7  A    between atoms: N_26  and  C_27 
ROOT
HETATM    1  C   UNL     1      42.528 -14.070   5.141  1.00  0.00    -0.020 A 
HETATM    2  C   UNL     1      43.298 -14.638   6.173  1.00  0.00     0.011 A 
HETATM    3  C   UNL     1      43.649 -15.987   6.149  1.00  0.00     0.017 A 
HETATM    4  C   UNL     1      43.249 -16.802   5.086  1.00  0.00     0.033 A 
HETATM    5  C   UNL     1      42.493 -16.247   4.045  1.00  0.00     0.030 A 
HETATM    6  C   UNL     1      42.134 -14.881   4.045  1.00  0.00    -0.017 A 
ENDROOT
BRANCH   6   7
HETATM    7  C   UNL     1      41.354 -14.348   2.913  1.00  0.00    -0.024 A 
HETATM    8  C   UNL     1      39.968 -14.547   2.819  1.00  0.00     0.012 A 
HETATM    9  C   UNL     1      39.235 -13.996   1.766  1.00  0.00     0.002 A 
HETATM   10  C   UNL     1      39.872 -13.206   0.810  1.00  0.00     0.017 A 
HETATM   11  C   UNL     1      41.250 -12.983   0.893  1.00  0.00     0.033 A 
HETATM   12  C   UNL     1      41.988 -13.600   1.909  1.00  0.00     0.029 A 
BRANCH  11  13
HETATM   13  C   UNL     1      41.888 -12.050  -0.081  1.00  0.00     0.256 C 
HETATM   14  O   UNL     1      42.939 -11.509   0.240  1.00  0.00    -0.267 OA
HETATM   15  N   UNL     1      41.229 -11.938  -1.294  1.00  0.00    -0.323 N 
HETATM   16  H   UNL     1      40.390 -12.494  -1.422  1.00  0.00     0.169 HD
BRANCH  15  17
HETATM   17  C   UNL     1      41.627 -11.192  -2.424  1.00  0.00     0.035 A 
HETATM   18  C   UNL     1      41.688  -9.798  -2.461  1.00  0.00     0.029 A 
HETATM   19  C   UNL     1      42.115  -9.138  -3.618  1.00  0.00     0.002 A 
HETATM   20  C   UNL     1      42.480  -9.865  -4.749  1.00  0.00     0.000 A 
HETATM   21  C   UNL     1      42.417 -11.254  -4.724  1.00  0.00     0.002 A 
HETATM   22  C   UNL     1      41.993 -11.915  -3.567  1.00  0.00     0.029 A 
ENDBRANCH  15  17
ENDBRANCH  11  13
ENDBRANCH   6   7
BRANCH   1  23
HETATM   23  C   UNL     1      42.131 -12.614   5.277  1.00  0.00     0.306 C 
BRANCH  23  24
HETATM   24  N   UNL     1      41.751 -12.267   6.648  1.00  0.00     0.082 N 
HETATM   25  H   UNL     1      40.758 -12.477   6.760  1.00  0.00     0.313 HD
HETATM   26  H   UNL     1      42.235 -12.903   7.283  1.00  0.00     0.313 HD
ENDBRANCH  23  24
ENDBRANCH   1  23
BRANCH   4  27
HETATM   27  C   UNL     1      43.608 -18.250   5.142  1.00  0.00     0.256 C 
HETATM   28  O   UNL     1      43.613 -18.803   6.237  1.00  0.00    -0.267 OA
HETATM   29  N   UNL     1      43.927 -18.844   3.935  1.00  0.00    -0.320 N 
HETATM   30  H   UNL     1      43.997 -18.256   3.112  1.00  0.00     0.169 HD
BRANCH  29  31
HETATM   31  C   UNL     1      44.239 -20.207   3.712  1.00  0.00     0.076 A 
HETATM   32  C   UNL     1      44.694 -21.083   4.694  1.00  0.00     0.052 A 
HETATM   33  C   UNL     1      44.957 -22.400   4.338  1.00  0.00     0.118 A 
HETATM   34  N   UNL     1      44.795 -22.895   3.090  1.00  0.00    -0.270 NA
HETATM   35  C   UNL     1      44.348 -22.028   2.154  1.00  0.00     0.160 A 
HETATM   36  C   UNL     1      44.065 -20.701   2.419  1.00  0.00     0.160 A 
HETATM   37  F   UNL     1      43.620 -19.896   1.441  1.00  0.00    -0.202 F 
ENDBRANCH  29  31
ENDBRANCH   4  27
TORSDOF 7
ENDMDL
