MODEL 1
REMARK VINA RESULT:      -7.9      0.000      0.000
REMARK  2 active torsions:
REMARK  status: ('A' for Active; 'I' for Inactive)
REMARK    1  A    between atoms: C_8  and  S_9 
REMARK    2  A    between atoms: S_9  and  C_10 
ROOT
HETATM    1  C   UNL     1      43.677 -21.528   1.741  1.00  0.00     0.002 A 
HETATM    2  C   UNL     1      43.279 -20.198   1.885  1.00  0.00     0.034 A 
HETATM    3  C   UNL     1      43.625 -19.459   3.009  1.00  0.00     0.087 A 
HETATM    4  C   UNL     1      44.400 -20.076   4.028  1.00  0.00     0.087 A 
HETATM    5  N   UNL     1      44.758 -19.406   5.141  1.00  0.00    -0.232 NA
HETATM    6  C   UNL     1      44.365 -18.120   5.221  1.00  0.00     0.164 A 
HETATM    7 CL   UNL     1      44.840 -17.330   6.667  1.00  0.00    -0.059 Cl
HETATM    8  C   UNL     1      43.608 -17.518   4.231  1.00  0.00     0.165 A 
HETATM    9  N   UNL     1      43.216 -18.178   3.116  1.00  0.00    -0.234 NA
HETATM   10  C   UNL     1      44.789 -21.400   3.873  1.00  0.00     0.034 A 
HETATM   11  C   UNL     1      44.435 -22.131   2.738  1.00  0.00     0.002 A 
ENDROOT
BRANCH   8  12
HETATM   12  S   UNL     1      43.042 -15.827   4.296  1.00  0.00     0.078 S 
HETATM   13  O   UNL     1      43.334 -15.155   2.981  1.00  0.00    -0.251 OA
BRANCH  12  14
HETATM   14  C   UNL     1      41.215 -16.075   4.324  1.00  0.00     0.112 C 
HETATM   15  C   UNL     1      40.793 -16.082   5.804  1.00  0.00     0.250 C 
HETATM   16  N   UNL     1      40.903 -14.697   6.377  1.00  0.00    -0.074 N 
HETATM   17  H   UNL     1      41.894 -14.384   6.269  1.00  0.00     0.277 HD
HETATM   18  H   UNL     1      40.728 -14.702   7.390  1.00  0.00     0.277 HD
HETATM   19  C   UNL     1      40.037 -13.690   5.704  1.00  0.00     0.232 C 
HETATM   20  C   UNL     1      40.384 -13.636   4.223  1.00  0.00     0.029 C 
HETATM   21  C   UNL     1      40.392 -15.021   3.568  1.00  0.00     0.021 C 
ENDBRANCH  12  14
ENDBRANCH   8  12
TORSDOF 2
ENDMDL
MODEL 2
REMARK VINA RESULT:      -7.5      1.999      2.100
REMARK  2 active torsions:
REMARK  status: ('A' for Active; 'I' for Inactive)
REMARK    1  A    between atoms: C_8  and  S_9 
REMARK    2  A    between atoms: S_9  and  C_10 
ROOT
HETATM    1  C   UNL     1      44.105 -21.920   2.000  1.00  0.00     0.002 A 
HETATM    2  C   UNL     1      43.565 -20.647   1.817  1.00  0.00     0.034 A 
HETATM    3  C   UNL     1      43.652 -19.677   2.807  1.00  0.00     0.087 A 
HETATM    4  C   UNL     1      44.306 -19.995   4.028  1.00  0.00     0.087 A 
HETATM    5  N   UNL     1      44.413 -19.093   5.024  1.00  0.00    -0.232 NA
HETATM    6  C   UNL     1      43.892 -17.873   4.787  1.00  0.00     0.164 A 
HETATM    7 CL   UNL     1      44.049 -16.777   6.098  1.00  0.00    -0.059 Cl
HETATM    8  C   UNL     1      43.253 -17.562   3.600  1.00  0.00     0.165 A 
HETATM    9  N   UNL     1      43.111 -18.459   2.596  1.00  0.00    -0.234 NA
HETATM   10  C   UNL     1      44.839 -21.266   4.198  1.00  0.00     0.034 A 
HETATM   11  C   UNL     1      44.744 -22.231   3.194  1.00  0.00     0.002 A 
ENDROOT
BRANCH   8  12
HETATM   12  S   UNL     1      42.526 -15.972   3.244  1.00  0.00     0.078 S 
HETATM   13  O   UNL     1      43.614 -15.001   2.872  1.00  0.00    -0.251 OA
BRANCH  12  14
HETATM   14  C   UNL     1      41.640 -16.341   1.670  1.00  0.00     0.112 C 
HETATM   15  C   UNL     1      40.211 -16.761   2.054  1.00  0.00     0.250 C 
HETATM   16  N   UNL     1      39.438 -15.569   2.545  1.00  0.00    -0.074 N 
HETATM   17  H   UNL     1      39.949 -15.174   3.367  1.00  0.00     0.277 HD
HETATM   18  H   UNL     1      38.518 -15.851   2.907  1.00  0.00     0.277 HD
HETATM   19  C   UNL     1      39.293 -14.483   1.538  1.00  0.00     0.232 C 
HETATM   20  C   UNL     1      40.672 -14.022   1.091  1.00  0.00     0.029 C 
HETATM   21  C   UNL     1      41.573 -15.185   0.661  1.00  0.00     0.021 C 
ENDBRANCH  12  14
ENDBRANCH   8  12
TORSDOF 2
ENDMDL
MODEL 3
REMARK VINA RESULT:      -7.3      1.676      2.249
REMARK  2 active torsions:
REMARK  status: ('A' for Active; 'I' for Inactive)
REMARK    1  A    between atoms: C_8  and  S_9 
REMARK    2  A    between atoms: S_9  and  C_10 
ROOT
HETATM    1  C   UNL     1      44.950 -22.160   4.811  1.00  0.00     0.002 A 
HETATM    2  C   UNL     1      44.671 -20.827   5.114  1.00  0.00     0.034 A 
HETATM    3  C   UNL     1      44.220 -19.946   4.141  1.00  0.00     0.087 A 
HETATM    4  C   UNL     1      44.040 -20.418   2.812  1.00  0.00     0.087 A 
HETATM    5  N   UNL     1      43.609 -19.603   1.829  1.00  0.00    -0.232 NA
HETATM    6  C   UNL     1      43.336 -18.331   2.180  1.00  0.00     0.164 A 
HETATM    7 CL   UNL     1      42.806 -17.344   0.880  1.00  0.00    -0.059 Cl
HETATM    8  C   UNL     1      43.513 -17.868   3.472  1.00  0.00     0.165 A 
HETATM    9  N   UNL     1      43.968 -18.662   4.470  1.00  0.00    -0.234 NA
HETATM   10  C   UNL     1      44.321 -21.746   2.524  1.00  0.00     0.034 A 
HETATM   11  C   UNL     1      44.774 -22.622   3.512  1.00  0.00     0.002 A 
ENDROOT
BRANCH   8  12
HETATM   12  S   UNL     1      43.188 -16.191   3.985  1.00  0.00     0.078 S 
HETATM   13  O   UNL     1      43.572 -15.249   2.875  1.00  0.00    -0.251 OA
BRANCH  12  14
HETATM   14  C   UNL     1      41.345 -16.188   4.015  1.00  0.00     0.112 C 
HETATM   15  C   UNL     1      40.926 -16.350   5.486  1.00  0.00     0.250 C 
HETATM   16  N   UNL     1      41.226 -15.091   6.249  1.00  0.00    -0.074 N 
HETATM   17  H   UNL     1      42.251 -14.904   6.167  1.00  0.00     0.277 HD
HETATM   18  H   UNL     1      41.053 -15.218   7.254  1.00  0.00     0.277 HD
HETATM   19  C   UNL     1      40.508 -13.889   5.744  1.00  0.00     0.232 C 
HETATM   20  C   UNL     1      40.858 -13.669   4.280  1.00  0.00     0.029 C 
HETATM   21  C   UNL     1      40.675 -14.934   3.433  1.00  0.00     0.021 C 
ENDBRANCH  12  14
ENDBRANCH   8  12
TORSDOF 2
ENDMDL
MODEL 4
REMARK VINA RESULT:      -7.0      2.006      2.325
REMARK  2 active torsions:
REMARK  status: ('A' for Active; 'I' for Inactive)
REMARK    1  A    between atoms: C_8  and  S_9 
REMARK    2  A    between atoms: S_9  and  C_10 
ROOT
HETATM    1  C   UNL     1      43.718 -20.771   1.855  1.00  0.00     0.002 A 
HETATM    2  C   UNL     1      42.950 -19.633   2.098  1.00  0.00     0.034 A 
HETATM    3  C   UNL     1      43.166 -18.843   3.220  1.00  0.00     0.087 A 
HETATM    4  C   UNL     1      44.192 -19.209   4.134  1.00  0.00     0.087 A 
HETATM    5  N   UNL     1      44.439 -18.481   5.241  1.00  0.00    -0.232 NA
HETATM    6  C   UNL     1      43.682 -17.381   5.418  1.00  0.00     0.164 A 
HETATM    7 CL   UNL     1      44.037 -16.509   6.852  1.00  0.00    -0.059 Cl
HETATM    8  C   UNL     1      42.681 -17.024   4.531  1.00  0.00     0.165 A 
HETATM    9  N   UNL     1      42.398 -17.753   3.426  1.00  0.00    -0.234 NA
HETATM   10  C   UNL     1      44.948 -20.345   3.880  1.00  0.00     0.034 A 
HETATM   11  C   UNL     1      44.721 -21.129   2.748  1.00  0.00     0.002 A 
ENDROOT
BRANCH   8  12
HETATM   12  S   UNL     1      41.635 -15.593   4.729  1.00  0.00     0.078 S 
HETATM   13  O   UNL     1      41.174 -15.509   6.159  1.00  0.00    -0.251 OA
BRANCH  12  14
HETATM   14  C   UNL     1      42.866 -14.235   4.532  1.00  0.00     0.112 C 
HETATM   15  C   UNL     1      43.491 -14.403   3.136  1.00  0.00     0.250 C 
HETATM   16  N   UNL     1      42.489 -14.038   2.077  1.00  0.00    -0.074 N 
HETATM   17  H   UNL     1      41.657 -14.659   2.195  1.00  0.00     0.277 HD
HETATM   18  H   UNL     1      42.852 -14.246   1.138  1.00  0.00     0.277 HD
HETATM   19  C   UNL     1      42.014 -12.629   2.150  1.00  0.00     0.232 C 
HETATM   20  C   UNL     1      41.395 -12.376   3.517  1.00  0.00     0.029 C 
HETATM   21  C   UNL     1      42.309 -12.810   4.669  1.00  0.00     0.021 C 
ENDBRANCH  12  14
ENDBRANCH   8  12
TORSDOF 2
ENDMDL
MODEL 5
REMARK VINA RESULT:      -6.8      2.581      3.282
REMARK  2 active torsions:
REMARK  status: ('A' for Active; 'I' for Inactive)
REMARK    1  A    between atoms: C_8  and  S_9 
REMARK    2  A    between atoms: S_9  and  C_10 
ROOT
HETATM    1  C   UNL     1      44.849 -20.460   4.025  1.00  0.00     0.002 A 
HETATM    2  C   UNL     1      44.232 -19.347   4.597  1.00  0.00     0.034 A 
HETATM    3  C   UNL     1      43.320 -18.582   3.881  1.00  0.00     0.087 A 
HETATM    4  C   UNL     1      43.015 -18.946   2.541  1.00  0.00     0.087 A 
HETATM    5  N   UNL     1      42.142 -18.234   1.801  1.00  0.00    -0.232 NA
HETATM    6  C   UNL     1      41.560 -17.181   2.407  1.00  0.00     0.164 A 
HETATM    7 CL   UNL     1      40.471 -16.310   1.407  1.00  0.00    -0.059 Cl
HETATM    8  C   UNL     1      41.857 -16.823   3.711  1.00  0.00     0.165 A 
HETATM    9  N   UNL     1      42.749 -17.508   4.465  1.00  0.00    -0.234 NA
HETATM   10  C   UNL     1      43.636 -20.056   1.985  1.00  0.00     0.034 A 
HETATM   11  C   UNL     1      44.551 -20.816   2.716  1.00  0.00     0.002 A 
ENDROOT
BRANCH   8  12
HETATM   12  S   UNL     1      41.134 -15.427   4.552  1.00  0.00     0.078 S 
HETATM   13  O   UNL     1      40.808 -15.815   5.969  1.00  0.00    -0.251 OA
BRANCH  12  14
HETATM   14  C   UNL     1      42.591 -14.304   4.676  1.00  0.00     0.112 C 
HETATM   15  C   UNL     1      42.618 -13.471   3.382  1.00  0.00     0.250 C 
HETATM   16  N   UNL     1      41.491 -12.478   3.386  1.00  0.00    -0.074 N 
HETATM   17  H   UNL     1      40.596 -13.010   3.472  1.00  0.00     0.277 HD
HETATM   18  H   UNL     1      41.429 -11.987   2.484  1.00  0.00     0.277 HD
HETATM   19  C   UNL     1      41.544 -11.501   4.508  1.00  0.00     0.232 C 
HETATM   20  C   UNL     1      41.538 -12.252   5.831  1.00  0.00     0.029 C 
HETATM   21  C   UNL     1      42.598 -13.359   5.887  1.00  0.00     0.021 C 
ENDBRANCH  12  14
ENDBRANCH   8  12
TORSDOF 2
ENDMDL
MODEL 6
REMARK VINA RESULT:      -6.8      2.140      2.997
REMARK  2 active torsions:
REMARK  status: ('A' for Active; 'I' for Inactive)
REMARK    1  A    between atoms: C_8  and  S_9 
REMARK    2  A    between atoms: S_9  and  C_10 
ROOT
HETATM    1  C   UNL     1      44.964 -21.631   4.358  1.00  0.00     0.002 A 
HETATM    2  C   UNL     1      44.751 -20.405   3.728  1.00  0.00     0.034 A 
HETATM    3  C   UNL     1      44.138 -19.350   4.392  1.00  0.00     0.087 A 
HETATM    4  C   UNL     1      43.723 -19.531   5.739  1.00  0.00     0.087 A 
HETATM    5  N   UNL     1      43.119 -18.542   6.428  1.00  0.00    -0.232 NA
HETATM    6  C   UNL     1      42.955 -17.372   5.779  1.00  0.00     0.164 A 
HETATM    7 CL   UNL     1      42.168 -16.162   6.705  1.00  0.00    -0.059 Cl
HETATM    8  C   UNL     1      43.355 -17.195   4.466  1.00  0.00     0.165 A 
HETATM    9  N   UNL     1      43.942 -18.181   3.747  1.00  0.00    -0.234 NA
HETATM   10  C   UNL     1      43.941 -20.756   6.354  1.00  0.00     0.034 A 
HETATM   11  C   UNL     1      44.559 -21.808   5.675  1.00  0.00     0.002 A 
ENDROOT
BRANCH   8  12
HETATM   12  S   UNL     1      43.142 -15.677   3.554  1.00  0.00     0.078 S 
HETATM   13  O   UNL     1      43.881 -15.775   2.247  1.00  0.00    -0.251 OA
BRANCH  12  14
HETATM   14  C   UNL     1      41.355 -15.785   3.116  1.00  0.00     0.112 C 
HETATM   15  C   UNL     1      41.041 -14.565   2.232  1.00  0.00     0.250 C 
HETATM   16  N   UNL     1      41.678 -14.731   0.881  1.00  0.00    -0.074 N 
HETATM   17  H   UNL     1      42.708 -14.839   1.024  1.00  0.00     0.277 HD
HETATM   18  H   UNL     1      41.570 -13.879   0.315  1.00  0.00     0.277 HD
HETATM   19  C   UNL     1      41.200 -15.922   0.127  1.00  0.00     0.232 C 
HETATM   20  C   UNL     1      41.460 -17.176   0.947  1.00  0.00     0.029 C 
HETATM   21  C   UNL     1      40.929 -17.065   2.381  1.00  0.00     0.021 C 
ENDBRANCH  12  14
ENDBRANCH   8  12
TORSDOF 2
ENDMDL
MODEL 7
REMARK VINA RESULT:      -6.7      2.182      2.938
REMARK  2 active torsions:
REMARK  status: ('A' for Active; 'I' for Inactive)
REMARK    1  A    between atoms: C_8  and  S_9 
REMARK    2  A    between atoms: S_9  and  C_10 
ROOT
HETATM    1  C   UNL     1      44.287 -21.400   6.307  1.00  0.00     0.002 A 
HETATM    2  C   UNL     1      43.832 -20.083   6.231  1.00  0.00     0.034 A 
HETATM    3  C   UNL     1      43.859 -19.380   5.034  1.00  0.00     0.087 A 
HETATM    4  C   UNL     1      44.362 -20.019   3.868  1.00  0.00     0.087 A 
HETATM    5  N   UNL     1      44.416 -19.380   2.683  1.00  0.00    -0.232 NA
HETATM    6  C   UNL     1      43.945 -18.117   2.660  1.00  0.00     0.164 A 
HETATM    7 CL   UNL     1      44.056 -17.356   1.127  1.00  0.00    -0.059 Cl
HETATM    8  C   UNL     1      43.458 -17.491   3.794  1.00  0.00     0.165 A 
HETATM    9  N   UNL     1      43.417 -18.105   5.000  1.00  0.00    -0.234 NA
HETATM   10  C   UNL     1      44.812 -21.329   3.958  1.00  0.00     0.034 A 
HETATM   11  C   UNL     1      44.778 -22.026   5.168  1.00  0.00     0.002 A 
ENDROOT
BRANCH   8  12
HETATM   12  S   UNL     1      42.846 -15.816   3.825  1.00  0.00     0.078 S 
HETATM   13  O   UNL     1      43.258 -15.113   2.560  1.00  0.00    -0.251 OA
BRANCH  12  14
HETATM   14  C   UNL     1      41.033 -16.107   3.654  1.00  0.00     0.112 C 
HETATM   15  C   UNL     1      40.357 -14.725   3.695  1.00  0.00     0.250 C 
HETATM   16  N   UNL     1      40.647 -13.973   2.426  1.00  0.00    -0.074 N 
HETATM   17  H   UNL     1      41.684 -13.883   2.338  1.00  0.00     0.277 HD
HETATM   18  H   UNL     1      40.294 -13.009   2.481  1.00  0.00     0.277 HD
HETATM   19  C   UNL     1      40.146 -14.643   1.195  1.00  0.00     0.232 C 
HETATM   20  C   UNL     1      40.759 -16.032   1.091  1.00  0.00     0.029 C 
HETATM   21  C   UNL     1      40.598 -16.846   2.380  1.00  0.00     0.021 C 
ENDBRANCH  12  14
ENDBRANCH   8  12
TORSDOF 2
ENDMDL
MODEL 8
REMARK VINA RESULT:      -6.6      3.406      5.662
REMARK  2 active torsions:
REMARK  status: ('A' for Active; 'I' for Inactive)
REMARK    1  A    between atoms: C_8  and  S_9 
REMARK    2  A    between atoms: S_9  and  C_10 
ROOT
HETATM    1  C   UNL     1      38.530 -14.258   1.030  1.00  0.00     0.002 A 
HETATM    2  C   UNL     1      39.002 -15.090   2.046  1.00  0.00     0.034 A 
HETATM    3  C   UNL     1      40.264 -15.666   1.979  1.00  0.00     0.087 A 
HETATM    4  C   UNL     1      41.086 -15.397   0.852  1.00  0.00     0.087 A 
HETATM    5  N   UNL     1      42.316 -15.934   0.735  1.00  0.00    -0.232 NA
HETATM    6  C   UNL     1      42.730 -16.714   1.752  1.00  0.00     0.164 A 
HETATM    7 CL   UNL     1      44.297 -17.378   1.535  1.00  0.00    -0.059 Cl
HETATM    8  C   UNL     1      41.931 -16.980   2.850  1.00  0.00     0.165 A 
HETATM    9  N   UNL     1      40.682 -16.471   2.978  1.00  0.00    -0.234 NA
HETATM   10  C   UNL     1      40.605 -14.568  -0.152  1.00  0.00     0.034 A 
HETATM   11  C   UNL     1      39.334 -13.996  -0.073  1.00  0.00     0.002 A 
ENDROOT
BRANCH   8  12
HETATM   12  S   UNL     1      42.420 -18.022   4.213  1.00  0.00     0.078 S 
HETATM   13  O   UNL     1      43.154 -19.222   3.681  1.00  0.00    -0.251 OA
BRANCH  12  14
HETATM   14  C   UNL     1      43.709 -16.971   5.007  1.00  0.00     0.112 C 
HETATM   15  C   UNL     1      42.968 -15.849   5.755  1.00  0.00     0.250 C 
HETATM   16  N   UNL     1      42.272 -16.410   6.964  1.00  0.00    -0.074 N 
HETATM   17  H   UNL     1      41.608 -17.148   6.636  1.00  0.00     0.277 HD
HETATM   18  H   UNL     1      41.684 -15.697   7.414  1.00  0.00     0.277 HD
HETATM   19  C   UNL     1      43.188 -17.035   7.957  1.00  0.00     0.232 C 
HETATM   20  C   UNL     1      43.975 -18.150   7.285  1.00  0.00     0.029 C 
HETATM   21  C   UNL     1      44.647 -17.697   5.984  1.00  0.00     0.021 C 
ENDBRANCH  12  14
ENDBRANCH   8  12
TORSDOF 2
ENDMDL
MODEL 9
REMARK VINA RESULT:      -6.6      3.004      3.759
REMARK  2 active torsions:
REMARK  status: ('A' for Active; 'I' for Inactive)
REMARK    1  A    between atoms: C_8  and  S_9 
REMARK    2  A    between atoms: S_9  and  C_10 
ROOT
HETATM    1  C   UNL     1      44.343 -20.801   2.589  1.00  0.00     0.002 A 
HETATM    2  C   UNL     1      43.370 -19.978   2.021  1.00  0.00     0.034 A 
HETATM    3  C   UNL     1      42.929 -18.831   2.667  1.00  0.00     0.087 A 
HETATM    4  C   UNL     1      43.484 -18.495   3.931  1.00  0.00     0.087 A 
HETATM    5  N   UNL     1      43.087 -17.396   4.603  1.00  0.00    -0.232 NA
HETATM    6  C   UNL     1      42.161 -16.625   4.001  1.00  0.00     0.164 A 
HETATM    7 CL   UNL     1      41.689 -15.252   4.914  1.00  0.00    -0.059 Cl
HETATM    8  C   UNL     1      41.617 -16.952   2.770  1.00  0.00     0.165 A 
HETATM    9  N   UNL     1      41.982 -18.063   2.089  1.00  0.00    -0.234 NA
HETATM   10  C   UNL     1      44.451 -19.322   4.486  1.00  0.00     0.034 A 
HETATM   11  C   UNL     1      44.885 -20.473   3.826  1.00  0.00     0.002 A 
ENDROOT
BRANCH   8  12
HETATM   12  S   UNL     1      40.373 -15.981   1.939  1.00  0.00     0.078 S 
HETATM   13  O   UNL     1      39.653 -15.128   2.949  1.00  0.00    -0.251 OA
BRANCH  12  14
HETATM   14  C   UNL     1      41.428 -14.816   0.977  1.00  0.00     0.112 C 
HETATM   15  C   UNL     1      41.461 -15.340  -0.469  1.00  0.00     0.250 C 
HETATM   16  N   UNL     1      40.126 -15.125  -1.125  1.00  0.00    -0.074 N 
HETATM   17  H   UNL     1      39.407 -15.628  -0.558  1.00  0.00     0.277 HD
HETATM   18  H   UNL     1      40.097 -15.565  -2.054  1.00  0.00     0.277 HD
HETATM   19  C   UNL     1      39.715 -13.697  -1.212  1.00  0.00     0.232 C 
HETATM   20  C   UNL     1      39.675 -13.098   0.186  1.00  0.00     0.029 C 
HETATM   21  C   UNL     1      40.966 -13.351   0.974  1.00  0.00     0.021 C 
ENDBRANCH  12  14
ENDBRANCH   8  12
TORSDOF 2
ENDMDL
MODEL 10
REMARK VINA RESULT:      -6.5      1.796      2.357
REMARK  2 active torsions:
REMARK  status: ('A' for Active; 'I' for Inactive)
REMARK    1  A    between atoms: C_8  and  S_9 
REMARK    2  A    between atoms: S_9  and  C_10 
ROOT
HETATM    1  C   UNL     1      43.984 -19.758   2.113  1.00  0.00     0.002 A 
HETATM    2  C   UNL     1      43.722 -18.390   2.047  1.00  0.00     0.034 A 
HETATM    3  C   UNL     1      43.711 -17.602   3.192  1.00  0.00     0.087 A 
HETATM    4  C   UNL     1      43.973 -18.209   4.450  1.00  0.00     0.087 A 
HETATM    5  N   UNL     1      43.968 -17.492   5.591  1.00  0.00    -0.232 NA
HETATM    6  C   UNL     1      43.729 -16.171   5.469  1.00  0.00     0.164 A 
HETATM    7 CL   UNL     1      43.723 -15.320   6.958  1.00  0.00    -0.059 Cl
HETATM    8  C   UNL     1      43.471 -15.578   4.245  1.00  0.00     0.165 A 
HETATM    9  N   UNL     1      43.446 -16.283   3.089  1.00  0.00    -0.234 NA
HETATM   10  C   UNL     1      44.232 -19.572   4.501  1.00  0.00     0.034 A 
HETATM   11  C   UNL     1      44.240 -20.352   3.343  1.00  0.00     0.002 A 
ENDROOT
BRANCH   8  12
HETATM   12  S   UNL     1      43.126 -13.842   4.030  1.00  0.00     0.078 S 
HETATM   13  O   UNL     1      42.989 -13.540   2.562  1.00  0.00    -0.251 OA
BRANCH  12  14
HETATM   14  C   UNL     1      41.416 -13.741   4.712  1.00  0.00     0.112 C 
HETATM   15  C   UNL     1      40.846 -12.380   4.278  1.00  0.00     0.250 C 
HETATM   16  N   UNL     1      40.565 -12.387   2.802  1.00  0.00    -0.074 N 
HETATM   17  H   UNL     1      41.462 -12.595   2.307  1.00  0.00     0.277 HD
HETATM   18  H   UNL     1      40.285 -11.453   2.476  1.00  0.00     0.277 HD
HETATM   19  C   UNL     1      39.568 -13.407   2.378  1.00  0.00     0.232 C 
HETATM   20  C   UNL     1      40.054 -14.789   2.789  1.00  0.00     0.029 C 
HETATM   21  C   UNL     1      40.459 -14.857   4.266  1.00  0.00     0.021 C 
ENDBRANCH  12  14
ENDBRANCH   8  12
TORSDOF 2
ENDMDL
