MODEL 1
REMARK VINA RESULT:      -8.2      0.000      0.000
REMARK  4 active torsions:
REMARK  status: ('A' for Active; 'I' for Inactive)
REMARK    1  A    between atoms: C_4  and  N_5 
REMARK       I    between atoms: N_5  and  C_6 
REMARK       I    between atoms: C_6  and  N_7 
REMARK    2  A    between atoms: N_7  and  C_8 
REMARK    3  A    between atoms: C_8  and  C_9 
REMARK    4  A    between atoms: C_12  and  C_13 
ROOT
HETATM    1  N   UNL     1      44.286 -18.467   4.926  1.00  0.00    -0.309 N 
HETATM    2  C   UNL     1      43.288 -17.547   4.898  1.00  0.00     0.321 C 
HETATM    3  N   UNL     1      42.220 -17.778   4.096  1.00  0.00    -0.335 N 
HETATM    4  O   UNL     1      43.402 -16.517   5.563  1.00  0.00    -0.247 OA
HETATM    5  H   UNL     1      45.092 -18.100   5.419  1.00  0.00     0.170 HD
HETATM    6  H   UNL     1      42.421 -18.294   3.250  1.00  0.00     0.164 HD
ENDROOT
BRANCH   3   7
HETATM    7  C   UNL     1      41.193 -16.761   3.982  1.00  0.00     0.213 C 
BRANCH   7   8
HETATM    8  C   UNL     1      41.424 -15.920   2.785  1.00  0.00     0.190 A 
HETATM    9  O   UNL     1      42.086 -14.748   2.996  1.00  0.00    -0.194 OA
HETATM   10  N   UNL     1      42.212 -14.134   1.757  1.00  0.00    -0.106 NA
HETATM   11  C   UNL     1      41.615 -14.989   0.908  1.00  0.00     0.189 A 
HETATM   12  N   UNL     1      41.116 -16.123   1.521  1.00  0.00    -0.202 NA
BRANCH  11  13
HETATM   13  C   UNL     1      41.505 -14.757  -0.529  1.00  0.00     0.014 A 
HETATM   14  C   UNL     1      41.082 -15.785  -1.384  1.00  0.00     0.015 A 
HETATM   15  C   UNL     1      40.975 -15.567  -2.761  1.00  0.00     0.001 A 
HETATM   16  C   UNL     1      41.291 -14.320  -3.297  1.00  0.00     0.000 A 
HETATM   17  C   UNL     1      41.713 -13.289  -2.461  1.00  0.00     0.001 A 
HETATM   18  C   UNL     1      41.819 -13.506  -1.084  1.00  0.00     0.015 A 
ENDBRANCH  11  13
ENDBRANCH   7   8
ENDBRANCH   3   7
BRANCH   1  19
HETATM   19  C   UNL     1      44.394 -19.793   4.471  1.00  0.00     0.036 A 
HETATM   20  C   UNL     1      44.258 -20.195   3.139  1.00  0.00     0.036 A 
HETATM   21  C   UNL     1      44.391 -21.546   2.777  1.00  0.00    -0.060 A 
HETATM   22  C   UNL     1      44.218 -21.969   1.347  1.00  0.00     0.048 C 
HETATM   23  C   UNL     1      44.614 -22.505   3.770  1.00  0.00     0.007 A 
HETATM   24  C   UNL     1      44.719 -22.120   5.103  1.00  0.00     0.003 A 
HETATM   25  C   UNL     1      44.607 -20.773   5.450  1.00  0.00     0.029 A 
ENDBRANCH   1  19
TORSDOF 4
ENDMDL
MODEL 2
REMARK VINA RESULT:      -8.2      5.632      9.541
REMARK  4 active torsions:
REMARK  status: ('A' for Active; 'I' for Inactive)
REMARK    1  A    between atoms: C_4  and  N_5 
REMARK       I    between atoms: N_5  and  C_6 
REMARK       I    between atoms: C_6  and  N_7 
REMARK    2  A    between atoms: N_7  and  C_8 
REMARK    3  A    between atoms: C_8  and  C_9 
REMARK    4  A    between atoms: C_12  and  C_13 
ROOT
HETATM    1  N   UNL     1      45.229 -12.483   8.906  1.00  0.00    -0.309 N 
HETATM    2  C   UNL     1      45.056 -13.135   7.728  1.00  0.00     0.321 C 
HETATM    3  N   UNL     1      43.818 -13.596   7.422  1.00  0.00    -0.335 N 
HETATM    4  O   UNL     1      46.028 -13.327   6.999  1.00  0.00    -0.247 OA
HETATM    5  H   UNL     1      46.216 -12.348   9.094  1.00  0.00     0.170 HD
HETATM    6  H   UNL     1      43.255 -13.877   8.214  1.00  0.00     0.164 HD
ENDROOT
BRANCH   3   7
HETATM    7  C   UNL     1      43.636 -14.376   6.214  1.00  0.00     0.213 C 
BRANCH   7   8
HETATM    8  C   UNL     1      43.728 -15.824   6.512  1.00  0.00     0.190 A 
HETATM    9  O   UNL     1      43.431 -16.192   7.790  1.00  0.00    -0.194 OA
HETATM   10  N   UNL     1      43.559 -17.574   7.845  1.00  0.00    -0.106 NA
HETATM   11  C   UNL     1      43.920 -17.917   6.597  1.00  0.00     0.189 A 
HETATM   12  N   UNL     1      44.029 -16.843   5.734  1.00  0.00    -0.202 NA
BRANCH  11  13
HETATM   13  C   UNL     1      44.171 -19.293   6.178  1.00  0.00     0.014 A 
HETATM   14  C   UNL     1      44.829 -19.558   4.968  1.00  0.00     0.015 A 
HETATM   15  C   UNL     1      45.070 -20.874   4.562  1.00  0.00     0.001 A 
HETATM   16  C   UNL     1      44.656 -21.938   5.361  1.00  0.00     0.000 A 
HETATM   17  C   UNL     1      44.001 -21.691   6.565  1.00  0.00     0.001 A 
HETATM   18  C   UNL     1      43.760 -20.376   6.971  1.00  0.00     0.015 A 
ENDBRANCH  11  13
ENDBRANCH   7   8
ENDBRANCH   3   7
BRANCH   1  19
HETATM   19  C   UNL     1      44.343 -11.934   9.850  1.00  0.00     0.036 A 
HETATM   20  C   UNL     1      43.478 -10.864   9.606  1.00  0.00     0.036 A 
HETATM   21  C   UNL     1      42.621 -10.386  10.612  1.00  0.00    -0.060 A 
HETATM   22  C   UNL     1      41.714  -9.220  10.345  1.00  0.00     0.048 C 
HETATM   23  C   UNL     1      42.670 -10.961  11.886  1.00  0.00     0.007 A 
HETATM   24  C   UNL     1      43.549 -12.005  12.149  1.00  0.00     0.003 A 
HETATM   25  C   UNL     1      44.382 -12.486  11.137  1.00  0.00     0.029 A 
ENDBRANCH   1  19
TORSDOF 4
ENDMDL
MODEL 3
REMARK VINA RESULT:      -8.2      1.330      1.794
REMARK  4 active torsions:
REMARK  status: ('A' for Active; 'I' for Inactive)
REMARK    1  A    between atoms: C_4  and  N_5 
REMARK       I    between atoms: N_5  and  C_6 
REMARK       I    between atoms: C_6  and  N_7 
REMARK    2  A    between atoms: N_7  and  C_8 
REMARK    3  A    between atoms: C_8  and  C_9 
REMARK    4  A    between atoms: C_12  and  C_13 
ROOT
HETATM    1  N   UNL     1      44.677 -18.663   5.106  1.00  0.00    -0.309 N 
HETATM    2  C   UNL     1      43.730 -17.803   5.560  1.00  0.00     0.321 C 
HETATM    3  N   UNL     1      42.433 -18.052   5.254  1.00  0.00    -0.335 N 
HETATM    4  O   UNL     1      44.076 -16.806   6.193  1.00  0.00    -0.247 OA
HETATM    5  H   UNL     1      45.603 -18.276   5.250  1.00  0.00     0.170 HD
HETATM    6  H   UNL     1      42.281 -18.508   4.364  1.00  0.00     0.164 HD
ENDROOT
BRANCH   3   7
HETATM    7  C   UNL     1      41.420 -17.094   5.648  1.00  0.00     0.213 C 
BRANCH   7   8
HETATM    8  C   UNL     1      40.978 -16.294   4.482  1.00  0.00     0.190 A 
HETATM    9  O   UNL     1      40.265 -15.168   4.765  1.00  0.00    -0.194 OA
HETATM   10  N   UNL     1      39.972 -14.567   3.548  1.00  0.00    -0.106 NA
HETATM   11  C   UNL     1      40.534 -15.382   2.639  1.00  0.00     0.189 A 
HETATM   12  N   UNL     1      41.178 -16.472   3.193  1.00  0.00    -0.202 NA
BRANCH  11  13
HETATM   13  C   UNL     1      40.482 -15.147   1.199  1.00  0.00     0.014 A 
HETATM   14  C   UNL     1      39.648 -14.149   0.672  1.00  0.00     0.015 A 
HETATM   15  C   UNL     1      39.594 -13.921  -0.706  1.00  0.00     0.001 A 
HETATM   16  C   UNL     1      40.372 -14.687  -1.572  1.00  0.00     0.000 A 
HETATM   17  C   UNL     1      41.204 -15.682  -1.064  1.00  0.00     0.001 A 
HETATM   18  C   UNL     1      41.259 -15.910   0.314  1.00  0.00     0.015 A 
ENDBRANCH  11  13
ENDBRANCH   7   8
ENDBRANCH   3   7
BRANCH   1  19
HETATM   19  C   UNL     1      44.629 -19.953   4.550  1.00  0.00     0.036 A 
HETATM   20  C   UNL     1      44.394 -20.233   3.201  1.00  0.00     0.036 A 
HETATM   21  C   UNL     1      44.370 -21.558   2.733  1.00  0.00    -0.060 A 
HETATM   22  C   UNL     1      44.092 -21.848   1.287  1.00  0.00     0.048 C 
HETATM   23  C   UNL     1      44.538 -22.610   3.640  1.00  0.00     0.007 A 
HETATM   24  C   UNL     1      44.741 -22.343   4.990  1.00  0.00     0.003 A 
HETATM   25  C   UNL     1      44.783 -21.023   5.441  1.00  0.00     0.029 A 
ENDBRANCH   1  19
TORSDOF 4
ENDMDL
MODEL 4
REMARK VINA RESULT:      -8.2      1.905      7.889
REMARK  4 active torsions:
REMARK  status: ('A' for Active; 'I' for Inactive)
REMARK    1  A    between atoms: C_4  and  N_5 
REMARK       I    between atoms: N_5  and  C_6 
REMARK       I    between atoms: C_6  and  N_7 
REMARK    2  A    between atoms: N_7  and  C_8 
REMARK    3  A    between atoms: C_8  and  C_9 
REMARK    4  A    between atoms: C_12  and  C_13 
ROOT
HETATM    1  N   UNL     1      40.633 -13.824  -0.793  1.00  0.00    -0.309 N 
HETATM    2  C   UNL     1      40.848 -14.141   0.509  1.00  0.00     0.321 C 
HETATM    3  N   UNL     1      40.188 -15.203   1.032  1.00  0.00    -0.335 N 
HETATM    4  O   UNL     1      41.597 -13.435   1.183  1.00  0.00    -0.247 OA
HETATM    5  H   UNL     1      41.042 -12.923  -1.010  1.00  0.00     0.170 HD
HETATM    6  H   UNL     1      39.271 -15.374   0.642  1.00  0.00     0.164 HD
ENDROOT
BRANCH   3   7
HETATM    7  C   UNL     1      40.333 -15.496   2.444  1.00  0.00     0.213 C 
BRANCH   7   8
HETATM    8  C   UNL     1      41.473 -16.414   2.671  1.00  0.00     0.190 A 
HETATM    9  O   UNL     1      42.615 -15.844   3.146  1.00  0.00    -0.194 OA
HETATM   10  N   UNL     1      43.537 -16.870   3.303  1.00  0.00    -0.106 NA
HETATM   11  C   UNL     1      42.870 -17.969   2.910  1.00  0.00     0.189 A 
HETATM   12  N   UNL     1      41.570 -17.718   2.513  1.00  0.00    -0.202 NA
BRANCH  11  13
HETATM   13  C   UNL     1      43.450 -19.309   2.903  1.00  0.00     0.014 A 
HETATM   14  C   UNL     1      44.250 -19.741   3.971  1.00  0.00     0.015 A 
HETATM   15  C   UNL     1      44.810 -21.023   3.969  1.00  0.00     0.001 A 
HETATM   16  C   UNL     1      44.574 -21.885   2.900  1.00  0.00     0.000 A 
HETATM   17  C   UNL     1      43.782 -21.470   1.832  1.00  0.00     0.001 A 
HETATM   18  C   UNL     1      43.223 -20.189   1.834  1.00  0.00     0.015 A 
ENDBRANCH  11  13
ENDBRANCH   7   8
ENDBRANCH   3   7
BRANCH   1  19
HETATM   19  C   UNL     1      40.026 -14.499  -1.868  1.00  0.00     0.036 A 
HETATM   20  C   UNL     1      38.755 -14.215  -2.374  1.00  0.00     0.036 A 
HETATM   21  C   UNL     1      38.232 -14.940  -3.459  1.00  0.00    -0.060 A 
HETATM   22  C   UNL     1      36.856 -14.643  -3.978  1.00  0.00     0.048 C 
HETATM   23  C   UNL     1      38.978 -15.990  -4.006  1.00  0.00     0.007 A 
HETATM   24  C   UNL     1      40.231 -16.302  -3.489  1.00  0.00     0.003 A 
HETATM   25  C   UNL     1      40.749 -15.562  -2.425  1.00  0.00     0.029 A 
ENDBRANCH   1  19
TORSDOF 4
ENDMDL
MODEL 5
REMARK VINA RESULT:      -8.1      2.631      2.847
REMARK  4 active torsions:
REMARK  status: ('A' for Active; 'I' for Inactive)
REMARK    1  A    between atoms: C_4  and  N_5 
REMARK       I    between atoms: N_5  and  C_6 
REMARK       I    between atoms: C_6  and  N_7 
REMARK    2  A    between atoms: N_7  and  C_8 
REMARK    3  A    between atoms: C_8  and  C_9 
REMARK    4  A    between atoms: C_12  and  C_13 
ROOT
HETATM    1  N   UNL     1      44.861 -18.725   5.144  1.00  0.00    -0.309 N 
HETATM    2  C   UNL     1      43.963 -17.805   5.579  1.00  0.00     0.321 C 
HETATM    3  N   UNL     1      42.658 -17.972   5.252  1.00  0.00    -0.335 N 
HETATM    4  O   UNL     1      44.362 -16.830   6.216  1.00  0.00    -0.247 OA
HETATM    5  H   UNL     1      45.807 -18.398   5.301  1.00  0.00     0.170 HD
HETATM    6  H   UNL     1      42.492 -18.421   4.361  1.00  0.00     0.164 HD
ENDROOT
BRANCH   3   7
HETATM    7  C   UNL     1      41.702 -16.949   5.627  1.00  0.00     0.213 C 
BRANCH   7   8
HETATM    8  C   UNL     1      41.087 -16.344   4.423  1.00  0.00     0.190 A 
HETATM    9  O   UNL     1      41.328 -16.983   3.244  1.00  0.00    -0.194 OA
HETATM   10  N   UNL     1      40.653 -16.271   2.261  1.00  0.00    -0.106 NA
HETATM   11  C   UNL     1      40.064 -15.267   2.934  1.00  0.00     0.189 A 
HETATM   12  N   UNL     1      40.312 -15.288   4.293  1.00  0.00    -0.202 NA
BRANCH  11  13
HETATM   13  C   UNL     1      39.233 -14.247   2.300  1.00  0.00     0.014 A 
HETATM   14  C   UNL     1      38.297 -14.603   1.318  1.00  0.00     0.015 A 
HETATM   15  C   UNL     1      37.500 -13.630   0.708  1.00  0.00     0.001 A 
HETATM   16  C   UNL     1      37.631 -12.291   1.073  1.00  0.00     0.000 A 
HETATM   17  C   UNL     1      38.556 -11.922   2.046  1.00  0.00     0.001 A 
HETATM   18  C   UNL     1      39.353 -12.895   2.657  1.00  0.00     0.015 A 
ENDBRANCH  11  13
ENDBRANCH   7   8
ENDBRANCH   3   7
BRANCH   1  19
HETATM   19  C   UNL     1      44.739 -20.012   4.589  1.00  0.00     0.036 A 
HETATM   20  C   UNL     1      44.492 -20.280   3.240  1.00  0.00     0.036 A 
HETATM   21  C   UNL     1      44.393 -21.603   2.775  1.00  0.00    -0.060 A 
HETATM   22  C   UNL     1      44.103 -21.879   1.328  1.00  0.00     0.048 C 
HETATM   23  C   UNL     1      44.497 -22.660   3.685  1.00  0.00     0.007 A 
HETATM   24  C   UNL     1      44.711 -22.403   5.035  1.00  0.00     0.003 A 
HETATM   25  C   UNL     1      44.829 -21.087   5.483  1.00  0.00     0.029 A 
ENDBRANCH   1  19
TORSDOF 4
ENDMDL
MODEL 6
REMARK VINA RESULT:      -8.0      1.228      7.684
REMARK  4 active torsions:
REMARK  status: ('A' for Active; 'I' for Inactive)
REMARK    1  A    between atoms: C_4  and  N_5 
REMARK       I    between atoms: N_5  and  C_6 
REMARK       I    between atoms: C_6  and  N_7 
REMARK    2  A    between atoms: N_7  and  C_8 
REMARK    3  A    between atoms: C_8  and  C_9 
REMARK    4  A    between atoms: C_12  and  C_13 
ROOT
HETATM    1  N   UNL     1      40.102 -15.096   0.351  1.00  0.00    -0.309 N 
HETATM    2  C   UNL     1      40.396 -15.137   1.675  1.00  0.00     0.321 C 
HETATM    3  N   UNL     1      41.666 -14.863   2.062  1.00  0.00    -0.335 N 
HETATM    4  O   UNL     1      39.520 -15.462   2.476  1.00  0.00    -0.247 OA
HETATM    5  H   UNL     1      39.182 -15.485   0.181  1.00  0.00     0.170 HD
HETATM    6  H   UNL     1      42.384 -15.130   1.402  1.00  0.00     0.164 HD
ENDROOT
BRANCH   3   7
HETATM    7  C   UNL     1      42.020 -14.996   3.462  1.00  0.00     0.213 C 
BRANCH   7   8
HETATM    8  C   UNL     1      42.714 -16.282   3.703  1.00  0.00     0.190 A 
HETATM    9  O   UNL     1      43.437 -16.364   4.855  1.00  0.00    -0.194 OA
HETATM   10  N   UNL     1      43.981 -17.641   4.893  1.00  0.00    -0.106 NA
HETATM   11  C   UNL     1      43.537 -18.217   3.761  1.00  0.00     0.189 A 
HETATM   12  N   UNL     1      42.734 -17.392   2.996  1.00  0.00    -0.202 NA
BRANCH  11  13
HETATM   13  C   UNL     1      43.860 -19.586   3.370  1.00  0.00     0.014 A 
HETATM   14  C   UNL     1      43.498 -20.067   2.104  1.00  0.00     0.015 A 
HETATM   15  C   UNL     1      43.804 -21.378   1.726  1.00  0.00     0.001 A 
HETATM   16  C   UNL     1      44.477 -22.220   2.609  1.00  0.00     0.000 A 
HETATM   17  C   UNL     1      44.843 -21.757   3.870  1.00  0.00     0.001 A 
HETATM   18  C   UNL     1      44.537 -20.447   4.249  1.00  0.00     0.015 A 
ENDBRANCH  11  13
ENDBRANCH   7   8
ENDBRANCH   3   7
BRANCH   1  19
HETATM   19  C   UNL     1      40.773 -14.590  -0.777  1.00  0.00     0.036 A 
HETATM   20  C   UNL     1      41.455 -13.371  -0.820  1.00  0.00     0.036 A 
HETATM   21  C   UNL     1      42.105 -12.951  -1.993  1.00  0.00    -0.060 A 
HETATM   22  C   UNL     1      42.814 -11.628  -2.036  1.00  0.00     0.048 C 
HETATM   23  C   UNL     1      42.026 -13.742  -3.144  1.00  0.00     0.007 A 
HETATM   24  C   UNL     1      41.323 -14.942  -3.121  1.00  0.00     0.003 A 
HETATM   25  C   UNL     1      40.699 -15.361  -1.945  1.00  0.00     0.029 A 
ENDBRANCH   1  19
TORSDOF 4
ENDMDL
MODEL 7
REMARK VINA RESULT:      -8.0      7.042      9.653
REMARK  4 active torsions:
REMARK  status: ('A' for Active; 'I' for Inactive)
REMARK    1  A    between atoms: C_4  and  N_5 
REMARK       I    between atoms: N_5  and  C_6 
REMARK       I    between atoms: C_6  and  N_7 
REMARK    2  A    between atoms: N_7  and  C_8 
REMARK    3  A    between atoms: C_8  and  C_9 
REMARK    4  A    between atoms: C_12  and  C_13 
ROOT
HETATM    1  N   UNL     1      42.775 -15.180   6.388  1.00  0.00    -0.309 N 
HETATM    2  C   UNL     1      43.363 -13.983   6.640  1.00  0.00     0.321 C 
HETATM    3  N   UNL     1      44.549 -13.974   7.297  1.00  0.00    -0.335 N 
HETATM    4  O   UNL     1      42.787 -12.948   6.308  1.00  0.00    -0.247 OA
HETATM    5  H   UNL     1      41.827 -15.045   6.055  1.00  0.00     0.170 HD
HETATM    6  H   UNL     1      44.677 -14.722   7.965  1.00  0.00     0.164 HD
ENDROOT
BRANCH   3   7
HETATM    7  C   UNL     1      45.143 -12.702   7.659  1.00  0.00     0.213 C 
BRANCH   7   8
HETATM    8  C   UNL     1      44.849 -12.374   9.074  1.00  0.00     0.190 A 
HETATM    9  O   UNL     1      45.731 -12.854   9.994  1.00  0.00    -0.194 OA
HETATM   10  N   UNL     1      45.285 -12.421  11.236  1.00  0.00    -0.106 NA
HETATM   11  C   UNL     1      44.175 -11.717  10.955  1.00  0.00     0.189 A 
HETATM   12  N   UNL     1      43.877 -11.663   9.606  1.00  0.00    -0.202 NA
BRANCH  11  13
HETATM   13  C   UNL     1      43.355 -11.061  11.969  1.00  0.00     0.014 A 
HETATM   14  C   UNL     1      42.085 -11.563  12.289  1.00  0.00     0.015 A 
HETATM   15  C   UNL     1      41.296 -10.937  13.259  1.00  0.00     0.001 A 
HETATM   16  C   UNL     1      41.769  -9.804  13.919  1.00  0.00     0.000 A 
HETATM   17  C   UNL     1      43.028  -9.294  13.612  1.00  0.00     0.001 A 
HETATM   18  C   UNL     1      43.817  -9.919  12.643  1.00  0.00     0.015 A 
ENDBRANCH  11  13
ENDBRANCH   7   8
ENDBRANCH   3   7
BRANCH   1  19
HETATM   19  C   UNL     1      43.223 -16.512   6.443  1.00  0.00     0.036 A 
HETATM   20  C   UNL     1      43.589 -17.279   5.333  1.00  0.00     0.036 A 
HETATM   21  C   UNL     1      44.033 -18.603   5.487  1.00  0.00    -0.060 A 
HETATM   22  C   UNL     1      44.400 -19.425   4.286  1.00  0.00     0.048 C 
HETATM   23  C   UNL     1      44.063 -19.174   6.764  1.00  0.00     0.007 A 
HETATM   24  C   UNL     1      43.671 -18.430   7.872  1.00  0.00     0.003 A 
HETATM   25  C   UNL     1      43.251 -17.109   7.711  1.00  0.00     0.029 A 
ENDBRANCH   1  19
TORSDOF 4
ENDMDL
MODEL 8
REMARK VINA RESULT:      -7.9      1.873      7.450
REMARK  4 active torsions:
REMARK  status: ('A' for Active; 'I' for Inactive)
REMARK    1  A    between atoms: C_4  and  N_5 
REMARK       I    between atoms: N_5  and  C_6 
REMARK       I    between atoms: C_6  and  N_7 
REMARK    2  A    between atoms: N_7  and  C_8 
REMARK    3  A    between atoms: C_8  and  C_9 
REMARK    4  A    between atoms: C_12  and  C_13 
ROOT
HETATM    1  N   UNL     1      39.768 -14.913   3.751  1.00  0.00    -0.309 N 
HETATM    2  C   UNL     1      40.697 -15.066   4.728  1.00  0.00     0.321 C 
HETATM    3  N   UNL     1      42.008 -14.998   4.388  1.00  0.00    -0.335 N 
HETATM    4  O   UNL     1      40.328 -15.303   5.878  1.00  0.00    -0.247 OA
HETATM    5  H   UNL     1      38.847 -15.157   4.098  1.00  0.00     0.170 HD
HETATM    6  H   UNL     1      42.229 -15.330   3.459  1.00  0.00     0.164 HD
ENDROOT
BRANCH   3   7
HETATM    7  C   UNL     1      43.013 -15.253   5.401  1.00  0.00     0.213 C 
BRANCH   7   8
HETATM    8  C   UNL     1      43.561 -16.622   5.257  1.00  0.00     0.190 A 
HETATM    9  O   UNL     1      44.383 -17.045   6.257  1.00  0.00    -0.194 OA
HETATM   10  N   UNL     1      44.763 -18.342   5.937  1.00  0.00    -0.106 NA
HETATM   11  C   UNL     1      44.136 -18.587   4.774  1.00  0.00     0.189 A 
HETATM   12  N   UNL     1      43.369 -17.529   4.323  1.00  0.00    -0.202 NA
BRANCH  11  13
HETATM   13  C   UNL     1      44.242 -19.849   4.048  1.00  0.00     0.014 A 
HETATM   14  C   UNL     1      43.855 -19.929   2.702  1.00  0.00     0.015 A 
HETATM   15  C   UNL     1      43.954 -21.137   2.003  1.00  0.00     0.001 A 
HETATM   16  C   UNL     1      44.442 -22.275   2.642  1.00  0.00     0.000 A 
HETATM   17  C   UNL     1      44.830 -22.211   3.978  1.00  0.00     0.001 A 
HETATM   18  C   UNL     1      44.731 -21.005   4.677  1.00  0.00     0.015 A 
ENDBRANCH  11  13
ENDBRANCH   7   8
ENDBRANCH   3   7
BRANCH   1  19
HETATM   19  C   UNL     1      39.822 -14.451   2.424  1.00  0.00     0.036 A 
HETATM   20  C   UNL     1      40.393 -15.151   1.357  1.00  0.00     0.036 A 
HETATM   21  C   UNL     1      40.394 -14.611   0.060  1.00  0.00    -0.060 A 
HETATM   22  C   UNL     1      41.031 -15.361  -1.074  1.00  0.00     0.048 C 
HETATM   23  C   UNL     1      39.861 -13.335  -0.154  1.00  0.00     0.007 A 
HETATM   24  C   UNL     1      39.320 -12.617   0.907  1.00  0.00     0.003 A 
HETATM   25  C   UNL     1      39.304 -13.171   2.188  1.00  0.00     0.029 A 
ENDBRANCH   1  19
TORSDOF 4
ENDMDL
MODEL 9
REMARK VINA RESULT:      -7.9      7.967     10.711
REMARK  4 active torsions:
REMARK  status: ('A' for Active; 'I' for Inactive)
REMARK    1  A    between atoms: C_4  and  N_5 
REMARK       I    between atoms: N_5  and  C_6 
REMARK       I    between atoms: C_6  and  N_7 
REMARK    2  A    between atoms: N_7  and  C_8 
REMARK    3  A    between atoms: C_8  and  C_9 
REMARK    4  A    between atoms: C_12  and  C_13 
ROOT
HETATM    1  N   UNL     1      44.656 -14.173   5.929  1.00  0.00    -0.309 N 
HETATM    2  C   UNL     1      45.452 -13.520   6.814  1.00  0.00     0.321 C 
HETATM    3  N   UNL     1      44.923 -13.150   8.006  1.00  0.00    -0.335 N 
HETATM    4  O   UNL     1      46.609 -13.246   6.494  1.00  0.00    -0.247 OA
HETATM    5  H   UNL     1      45.110 -14.236   5.025  1.00  0.00     0.170 HD
HETATM    6  H   UNL     1      43.938 -12.922   7.987  1.00  0.00     0.164 HD
ENDROOT
BRANCH   3   7
HETATM    7  C   UNL     1      45.731 -12.369   8.922  1.00  0.00     0.213 C 
BRANCH   7   8
HETATM    8  C   UNL     1      44.911 -11.888  10.058  1.00  0.00     0.190 A 
HETATM    9  O   UNL     1      44.396 -12.850  10.874  1.00  0.00    -0.194 OA
HETATM   10  N   UNL     1      43.688 -12.190  11.870  1.00  0.00    -0.106 NA
HETATM   11  C   UNL     1      43.839 -10.889  11.567  1.00  0.00     0.189 A 
HETATM   12  N   UNL     1      44.607 -10.665  10.440  1.00  0.00    -0.202 NA
BRANCH  11  13
HETATM   13  C   UNL     1      43.258  -9.804  12.352  1.00  0.00     0.014 A 
HETATM   14  C   UNL     1      43.166  -9.907  13.748  1.00  0.00     0.015 A 
HETATM   15  C   UNL     1      42.608  -8.871  14.504  1.00  0.00     0.001 A 
HETATM   16  C   UNL     1      42.138  -7.721  13.872  1.00  0.00     0.000 A 
HETATM   17  C   UNL     1      42.222  -7.604  12.486  1.00  0.00     0.001 A 
HETATM   18  C   UNL     1      42.779  -8.640  11.731  1.00  0.00     0.015 A 
ENDBRANCH  11  13
ENDBRANCH   7   8
ENDBRANCH   3   7
BRANCH   1  19
HETATM   19  C   UNL     1      43.402 -14.799   6.032  1.00  0.00     0.036 A 
HETATM   20  C   UNL     1      42.191 -14.236   5.620  1.00  0.00     0.036 A 
HETATM   21  C   UNL     1      40.984 -14.942   5.757  1.00  0.00    -0.060 A 
HETATM   22  C   UNL     1      39.686 -14.317   5.334  1.00  0.00     0.048 C 
HETATM   23  C   UNL     1      40.991 -16.206   6.357  1.00  0.00     0.007 A 
HETATM   24  C   UNL     1      42.187 -16.763   6.799  1.00  0.00     0.003 A 
HETATM   25  C   UNL     1      43.383 -16.062   6.640  1.00  0.00     0.029 A 
ENDBRANCH   1  19
TORSDOF 4
ENDMDL
MODEL 10
REMARK VINA RESULT:      -7.8      6.602      9.413
REMARK  4 active torsions:
REMARK  status: ('A' for Active; 'I' for Inactive)
REMARK    1  A    between atoms: C_4  and  N_5 
REMARK       I    between atoms: N_5  and  C_6 
REMARK       I    between atoms: C_6  and  N_7 
REMARK    2  A    between atoms: N_7  and  C_8 
REMARK    3  A    between atoms: C_8  and  C_9 
REMARK    4  A    between atoms: C_12  and  C_13 
ROOT
HETATM    1  N   UNL     1      44.084 -10.538  10.492  1.00  0.00    -0.309 N 
HETATM    2  C   UNL     1      44.863 -11.160   9.571  1.00  0.00     0.321 C 
HETATM    3  N   UNL     1      44.435 -12.338   9.054  1.00  0.00    -0.335 N 
HETATM    4  O   UNL     1      45.948 -10.664   9.268  1.00  0.00    -0.247 OA
HETATM    5  H   UNL     1      44.588  -9.772  10.923  1.00  0.00     0.170 HD
HETATM    6  H   UNL     1      43.884 -12.909   9.681  1.00  0.00     0.164 HD
ENDROOT
BRANCH   3   7
HETATM    7  C   UNL     1      45.299 -13.063   8.143  1.00  0.00     0.213 C 
BRANCH   7   8
HETATM    8  C   UNL     1      44.496 -13.857   7.184  1.00  0.00     0.190 A 
HETATM    9  O   UNL     1      43.387 -13.245   6.683  1.00  0.00    -0.194 OA
HETATM   10  N   UNL     1      42.801 -14.145   5.802  1.00  0.00    -0.106 NA
HETATM   11  C   UNL     1      43.608 -15.219   5.850  1.00  0.00     0.189 A 
HETATM   12  N   UNL     1      44.685 -15.068   6.703  1.00  0.00    -0.202 NA
BRANCH  11  13
HETATM   13  C   UNL     1      43.383 -16.435   5.074  1.00  0.00     0.014 A 
HETATM   14  C   UNL     1      44.008 -17.636   5.438  1.00  0.00     0.015 A 
HETATM   15  C   UNL     1      43.797 -18.803   4.696  1.00  0.00     0.001 A 
HETATM   16  C   UNL     1      42.958 -18.780   3.584  1.00  0.00     0.000 A 
HETATM   17  C   UNL     1      42.330 -17.595   3.210  1.00  0.00     0.001 A 
HETATM   18  C   UNL     1      42.541 -16.428   3.950  1.00  0.00     0.015 A 
ENDBRANCH  11  13
ENDBRANCH   7   8
ENDBRANCH   3   7
BRANCH   1  19
HETATM   19  C   UNL     1      42.751 -10.707  10.907  1.00  0.00     0.036 A 
HETATM   20  C   UNL     1      41.628 -10.397  10.135  1.00  0.00     0.036 A 
HETATM   21  C   UNL     1      40.330 -10.607  10.632  1.00  0.00    -0.060 A 
HETATM   22  C   UNL     1      39.132 -10.247   9.803  1.00  0.00     0.048 C 
HETATM   23  C   UNL     1      40.164 -11.089  11.935  1.00  0.00     0.007 A 
HETATM   24  C   UNL     1      41.275 -11.371  12.724  1.00  0.00     0.003 A 
HETATM   25  C   UNL     1      42.559 -11.178  12.213  1.00  0.00     0.029 A 
ENDBRANCH   1  19
TORSDOF 4
ENDMDL
