MODEL 1
REMARK VINA RESULT:      -8.9      0.000      0.000
REMARK  6 active torsions:
REMARK  status: ('A' for Active; 'I' for Inactive)
REMARK    1  A    between atoms: C_4  and  N_5 
REMARK       I    between atoms: N_5  and  C_6 
REMARK       I    between atoms: C_6  and  N_7 
REMARK    2  A    between atoms: N_7  and  C_8 
REMARK    3  A    between atoms: N_11  and  C_13 
REMARK    4  A    between atoms: C_13  and  C_14 
REMARK       I    between atoms: C_14  and  N_15 
REMARK    5  A    between atoms: N_15  and  C_16 
REMARK    6  A    between atoms: C_16  and  C_17 
ROOT
HETATM    1  C   UNL     1      43.536 -14.155   6.422  1.00  0.00     0.090 C 
HETATM    2  C   UNL     1      42.323 -13.486   5.756  1.00  0.00     0.058 C 
HETATM    3  C   UNL     1      41.432 -14.413   4.921  1.00  0.00     0.191 C 
HETATM    4  N   UNL     1      42.197 -15.621   4.457  1.00  0.00    -0.054 N 
HETATM    5  H   UNL     1      41.526 -16.159   3.874  1.00  0.00     0.281 HD
HETATM    6  C   UNL     1      42.396 -16.387   5.729  1.00  0.00     0.191 C 
HETATM    7  C   UNL     1      43.405 -15.678   6.632  1.00  0.00     0.058 C 
HETATM    8  C   UNL     1      40.349 -15.068   5.788  1.00  0.00     0.035 C 
HETATM    9  C   UNL     1      40.984 -16.351   6.326  1.00  0.00     0.035 C 
ENDROOT
BRANCH   1  10
HETATM   10  N   UNL     1      43.928 -13.443   7.637  1.00  0.00    -0.338 N 
HETATM   11  C   UNL     1      45.231 -13.067   7.821  1.00  0.00     0.321 C 
HETATM   12  N   UNL     1      45.517 -12.260   8.873  1.00  0.00    -0.309 N 
HETATM   13  O   UNL     1      46.120 -13.379   7.032  1.00  0.00    -0.247 OA
HETATM   14  H   UNL     1      46.461 -11.895   8.800  1.00  0.00     0.170 HD
HETATM   15  H   UNL     1      43.305 -12.707   7.949  1.00  0.00     0.164 HD
BRANCH  12  16
HETATM   16  C   UNL     1      44.798 -11.863  10.016  1.00  0.00     0.036 A 
HETATM   17  C   UNL     1      44.335 -12.732  11.006  1.00  0.00     0.029 A 
HETATM   18  C   UNL     1      43.628 -12.236  12.107  1.00  0.00     0.002 A 
HETATM   19  C   UNL     1      43.392 -10.868  12.236  1.00  0.00     0.000 A 
HETATM   20  C   UNL     1      43.876  -9.992  11.270  1.00  0.00     0.002 A 
HETATM   21  C   UNL     1      44.580 -10.487  10.170  1.00  0.00     0.029 A 
ENDBRANCH  12  16
ENDBRANCH   1  10
BRANCH   4  22
HETATM   22  C   UNL     1      43.352 -15.445   3.489  1.00  0.00     0.338 C 
BRANCH  22  23
HETATM   23  C   UNL     1      43.227 -16.458   2.349  1.00  0.00     0.243 C 
HETATM   24  N   UNL     1      43.680 -17.716   2.617  1.00  0.00    -0.354 N 
HETATM   25  H   UNL     1      44.099 -17.968   3.508  1.00  0.00     0.162 HD
HETATM   26  O   UNL     1      42.773 -16.097   1.264  1.00  0.00    -0.272 OA
BRANCH  24  27
HETATM   27  C   UNL     1      43.705 -18.753   1.604  1.00  0.00     0.187 C 
BRANCH  27  28
HETATM   28  C   UNL     1      44.012 -20.058   2.243  1.00  0.00     0.070 A 
HETATM   29  O   UNL     1      44.543 -20.029   3.505  1.00  0.00    -0.325 OA
HETATM   30  C   UNL     1      44.751 -21.318   3.878  1.00  0.00     0.142 A 
HETATM   31  C   UNL     1      44.360 -22.176   2.878  1.00  0.00     0.027 A 
HETATM   32  C   UNL     1      43.883 -21.365   1.822  1.00  0.00     0.036 A 
ENDBRANCH  27  28
ENDBRANCH  24  27
ENDBRANCH  22  23
ENDBRANCH   4  22
TORSDOF 6
ENDMDL
MODEL 2
REMARK VINA RESULT:      -8.2      2.939      4.148
REMARK  6 active torsions:
REMARK  status: ('A' for Active; 'I' for Inactive)
REMARK    1  A    between atoms: C_4  and  N_5 
REMARK       I    between atoms: N_5  and  C_6 
REMARK       I    between atoms: C_6  and  N_7 
REMARK    2  A    between atoms: N_7  and  C_8 
REMARK    3  A    between atoms: N_11  and  C_13 
REMARK    4  A    between atoms: C_13  and  C_14 
REMARK       I    between atoms: C_14  and  N_15 
REMARK    5  A    between atoms: N_15  and  C_16 
REMARK    6  A    between atoms: C_16  and  C_17 
ROOT
HETATM    1  C   UNL     1      43.581 -13.941   6.426  1.00  0.00     0.090 C 
HETATM    2  C   UNL     1      42.235 -13.412   5.903  1.00  0.00     0.058 C 
HETATM    3  C   UNL     1      41.430 -14.392   5.042  1.00  0.00     0.191 C 
HETATM    4  N   UNL     1      42.327 -15.425   4.420  1.00  0.00    -0.054 N 
HETATM    5  H   UNL     1      41.700 -16.010   3.832  1.00  0.00     0.281 HD
HETATM    6  C   UNL     1      42.732 -16.256   5.599  1.00  0.00     0.191 C 
HETATM    7  C   UNL     1      43.691 -15.477   6.500  1.00  0.00     0.058 C 
HETATM    8  C   UNL     1      40.524 -15.275   5.909  1.00  0.00     0.035 C 
HETATM    9  C   UNL     1      41.380 -16.486   6.283  1.00  0.00     0.035 C 
ENDROOT
BRANCH   1  10
HETATM   10  N   UNL     1      43.955 -13.280   7.676  1.00  0.00    -0.338 N 
HETATM   11  C   UNL     1      45.264 -12.967   7.920  1.00  0.00     0.321 C 
HETATM   12  N   UNL     1      45.543 -12.203   9.006  1.00  0.00    -0.309 N 
HETATM   13  O   UNL     1      46.170 -13.296   7.157  1.00  0.00    -0.247 OA
HETATM   14  H   UNL     1      46.503 -11.878   8.980  1.00  0.00     0.170 HD
HETATM   15  H   UNL     1      43.352 -12.527   7.986  1.00  0.00     0.164 HD
BRANCH  12  16
HETATM   16  C   UNL     1      44.797 -11.807  10.132  1.00  0.00     0.036 A 
HETATM   17  C   UNL     1      44.345 -12.671  11.131  1.00  0.00     0.029 A 
HETATM   18  C   UNL     1      43.609 -12.177  12.214  1.00  0.00     0.002 A 
HETATM   19  C   UNL     1      43.332 -10.815  12.315  1.00  0.00     0.000 A 
HETATM   20  C   UNL     1      43.804  -9.942  11.340  1.00  0.00     0.002 A 
HETATM   21  C   UNL     1      44.538 -10.436  10.259  1.00  0.00     0.029 A 
ENDBRANCH  12  16
ENDBRANCH   1  10
BRANCH   4  22
HETATM   22  C   UNL     1      43.367 -14.994   3.402  1.00  0.00     0.338 C 
BRANCH  22  23
HETATM   23  C   UNL     1      42.677 -14.321   2.214  1.00  0.00     0.243 C 
HETATM   24  N   UNL     1      42.033 -15.155   1.348  1.00  0.00    -0.354 N 
HETATM   25  H   UNL     1      42.029 -16.164   1.462  1.00  0.00     0.162 HD
HETATM   26  O   UNL     1      42.760 -13.101   2.076  1.00  0.00    -0.272 OA
BRANCH  24  27
HETATM   27  C   UNL     1      41.412 -14.665   0.133  1.00  0.00     0.187 C 
BRANCH  27  28
HETATM   28  C   UNL     1      39.966 -14.431   0.379  1.00  0.00     0.070 A 
HETATM   29  O   UNL     1      39.284 -13.688  -0.547  1.00  0.00    -0.325 OA
HETATM   30  C   UNL     1      38.000 -13.596  -0.114  1.00  0.00     0.142 A 
HETATM   31  C   UNL     1      37.844 -14.269   1.074  1.00  0.00     0.027 A 
HETATM   32  C   UNL     1      39.113 -14.809   1.394  1.00  0.00     0.036 A 
ENDBRANCH  27  28
ENDBRANCH  24  27
ENDBRANCH  22  23
ENDBRANCH   4  22
TORSDOF 6
ENDMDL
MODEL 3
REMARK VINA RESULT:      -8.1      2.294      9.057
REMARK  6 active torsions:
REMARK  status: ('A' for Active; 'I' for Inactive)
REMARK    1  A    between atoms: C_4  and  N_5 
REMARK       I    between atoms: N_5  and  C_6 
REMARK       I    between atoms: C_6  and  N_7 
REMARK    2  A    between atoms: N_7  and  C_8 
REMARK    3  A    between atoms: N_11  and  C_13 
REMARK    4  A    between atoms: C_13  and  C_14 
REMARK       I    between atoms: C_14  and  N_15 
REMARK    5  A    between atoms: N_15  and  C_16 
REMARK    6  A    between atoms: C_16  and  C_17 
ROOT
HETATM    1  C   UNL     1      42.464 -15.916   4.618  1.00  0.00     0.090 C 
HETATM    2  C   UNL     1      41.067 -15.847   3.981  1.00  0.00     0.058 C 
HETATM    3  C   UNL     1      40.593 -14.445   3.577  1.00  0.00     0.191 C 
HETATM    4  N   UNL     1      41.305 -13.386   4.372  1.00  0.00    -0.054 N 
HETATM    5  H   UNL     1      40.891 -12.487   4.057  1.00  0.00     0.281 HD
HETATM    6  C   UNL     1      42.698 -13.451   3.823  1.00  0.00     0.191 C 
HETATM    7  C   UNL     1      43.394 -14.734   4.274  1.00  0.00     0.058 C 
HETATM    8  C   UNL     1      41.046 -14.097   2.154  1.00  0.00     0.035 C 
HETATM    9  C   UNL     1      42.426 -13.459   2.314  1.00  0.00     0.035 C 
ENDROOT
BRANCH   1  10
HETATM   10  N   UNL     1      43.085 -17.218   4.383  1.00  0.00    -0.338 N 
HETATM   11  C   UNL     1      43.997 -17.714   5.274  1.00  0.00     0.321 C 
HETATM   12  N   UNL     1      44.415 -18.994   5.111  1.00  0.00    -0.309 N 
HETATM   13  O   UNL     1      44.387 -17.064   6.241  1.00  0.00    -0.247 OA
HETATM   14  H   UNL     1      44.931 -19.311   5.924  1.00  0.00     0.170 HD
HETATM   15  H   UNL     1      42.471 -17.959   4.063  1.00  0.00     0.164 HD
BRANCH  12  16
HETATM   16  C   UNL     1      44.298 -19.927   4.063  1.00  0.00     0.036 A 
HETATM   17  C   UNL     1      43.846 -19.626   2.777  1.00  0.00     0.029 A 
HETATM   18  C   UNL     1      43.768 -20.628   1.803  1.00  0.00     0.002 A 
HETATM   19  C   UNL     1      44.154 -21.934   2.102  1.00  0.00     0.000 A 
HETATM   20  C   UNL     1      44.634 -22.237   3.371  1.00  0.00     0.002 A 
HETATM   21  C   UNL     1      44.711 -21.237   4.344  1.00  0.00     0.029 A 
ENDBRANCH  12  16
ENDBRANCH   1  10
BRANCH   4  22
HETATM   22  C   UNL     1      41.084 -13.303   5.871  1.00  0.00     0.338 C 
BRANCH  22  23
HETATM   23  C   UNL     1      41.292 -11.863   6.342  1.00  0.00     0.243 C 
HETATM   24  N   UNL     1      41.889 -11.714   7.560  1.00  0.00    -0.354 N 
HETATM   25  H   UNL     1      42.158 -12.506   8.136  1.00  0.00     0.162 HD
HETATM   26  O   UNL     1      40.892 -10.932   5.644  1.00  0.00    -0.272 OA
BRANCH  24  27
HETATM   27  C   UNL     1      42.067 -10.411   8.170  1.00  0.00     0.187 C 
BRANCH  27  28
HETATM   28  C   UNL     1      42.976 -10.536   9.339  1.00  0.00     0.070 A 
HETATM   29  O   UNL     1      44.309 -10.716   9.080  1.00  0.00    -0.325 OA
HETATM   30  C   UNL     1      44.936 -10.816  10.281  1.00  0.00     0.142 A 
HETATM   31  C   UNL     1      44.029 -10.701  11.308  1.00  0.00     0.027 A 
HETATM   32  C   UNL     1      42.763 -10.520  10.701  1.00  0.00     0.036 A 
ENDBRANCH  27  28
ENDBRANCH  24  27
ENDBRANCH  22  23
ENDBRANCH   4  22
TORSDOF 6
ENDMDL
MODEL 4
REMARK VINA RESULT:      -7.9      1.476      2.197
REMARK  6 active torsions:
REMARK  status: ('A' for Active; 'I' for Inactive)
REMARK    1  A    between atoms: C_4  and  N_5 
REMARK       I    between atoms: N_5  and  C_6 
REMARK       I    between atoms: C_6  and  N_7 
REMARK    2  A    between atoms: N_7  and  C_8 
REMARK    3  A    between atoms: N_11  and  C_13 
REMARK    4  A    between atoms: C_13  and  C_14 
REMARK       I    between atoms: C_14  and  N_15 
REMARK    5  A    between atoms: N_15  and  C_16 
REMARK    6  A    between atoms: C_16  and  C_17 
ROOT
HETATM    1  C   UNL     1      42.332 -14.431   5.553  1.00  0.00     0.090 C 
HETATM    2  C   UNL     1      43.094 -14.288   4.225  1.00  0.00     0.058 C 
HETATM    3  C   UNL     1      42.228 -14.323   2.960  1.00  0.00     0.191 C 
HETATM    4  N   UNL     1      40.932 -15.040   3.214  1.00  0.00    -0.054 N 
HETATM    5  H   UNL     1      40.441 -15.045   2.298  1.00  0.00     0.281 HD
HETATM    6  C   UNL     1      40.201 -14.081   4.104  1.00  0.00     0.191 C 
HETATM    7  C   UNL     1      40.840 -14.043   5.492  1.00  0.00     0.058 C 
HETATM    8  C   UNL     1      41.722 -12.922   2.596  1.00  0.00     0.035 C 
HETATM    9  C   UNL     1      40.404 -12.760   3.354  1.00  0.00     0.035 C 
ENDROOT
BRANCH   1  10
HETATM   10  N   UNL     1      43.049 -13.774   6.644  1.00  0.00    -0.338 N 
HETATM   11  C   UNL     1      44.258 -14.261   7.061  1.00  0.00     0.321 C 
HETATM   12  N   UNL     1      44.967 -13.523   7.952  1.00  0.00    -0.309 N 
HETATM   13  O   UNL     1      44.739 -15.295   6.606  1.00  0.00    -0.247 OA
HETATM   14  H   UNL     1      45.913 -13.877   8.040  1.00  0.00     0.170 HD
HETATM   15  H   UNL     1      43.068 -12.760   6.625  1.00  0.00     0.164 HD
BRANCH  12  16
HETATM   16  C   UNL     1      44.653 -12.418   8.766  1.00  0.00     0.036 A 
HETATM   17  C   UNL     1      43.469 -11.682   8.685  1.00  0.00     0.029 A 
HETATM   18  C   UNL     1      43.251 -10.598   9.544  1.00  0.00     0.002 A 
HETATM   19  C   UNL     1      44.206 -10.251  10.497  1.00  0.00     0.000 A 
HETATM   20  C   UNL     1      45.375 -10.997  10.606  1.00  0.00     0.002 A 
HETATM   21  C   UNL     1      45.593 -12.079   9.748  1.00  0.00     0.029 A 
ENDBRANCH  12  16
ENDBRANCH   1  10
BRANCH   4  22
HETATM   22  C   UNL     1      40.950 -16.520   3.546  1.00  0.00     0.338 C 
BRANCH  22  23
HETATM   23  C   UNL     1      41.558 -17.302   2.380  1.00  0.00     0.243 C 
HETATM   24  N   UNL     1      42.631 -18.088   2.683  1.00  0.00    -0.354 N 
HETATM   25  H   UNL     1      43.024 -18.138   3.618  1.00  0.00     0.162 HD
HETATM   26  O   UNL     1      41.092 -17.164   1.249  1.00  0.00    -0.272 OA
BRANCH  24  27
HETATM   27  C   UNL     1      43.360 -18.814   1.662  1.00  0.00     0.187 C 
BRANCH  27  28
HETATM   28  C   UNL     1      43.835 -20.105   2.222  1.00  0.00     0.070 A 
HETATM   29  O   UNL     1      44.457 -20.069   3.441  1.00  0.00    -0.325 OA
HETATM   30  C   UNL     1      44.812 -21.345   3.744  1.00  0.00     0.142 A 
HETATM   31  C   UNL     1      44.425 -22.201   2.740  1.00  0.00     0.027 A 
HETATM   32  C   UNL     1      43.795 -21.403   1.757  1.00  0.00     0.036 A 
ENDBRANCH  27  28
ENDBRANCH  24  27
ENDBRANCH  22  23
ENDBRANCH   4  22
TORSDOF 6
ENDMDL
MODEL 5
REMARK VINA RESULT:      -7.9      4.286      8.086
REMARK  6 active torsions:
REMARK  status: ('A' for Active; 'I' for Inactive)
REMARK    1  A    between atoms: C_4  and  N_5 
REMARK       I    between atoms: N_5  and  C_6 
REMARK       I    between atoms: C_6  and  N_7 
REMARK    2  A    between atoms: N_7  and  C_8 
REMARK    3  A    between atoms: N_11  and  C_13 
REMARK    4  A    between atoms: C_13  and  C_14 
REMARK       I    between atoms: C_14  and  N_15 
REMARK    5  A    between atoms: N_15  and  C_16 
REMARK    6  A    between atoms: C_16  and  C_17 
ROOT
HETATM    1  C   UNL     1      41.753 -16.669   3.237  1.00  0.00     0.090 C 
HETATM    2  C   UNL     1      42.499 -15.553   2.487  1.00  0.00     0.058 C 
HETATM    3  C   UNL     1      41.930 -14.141   2.668  1.00  0.00     0.191 C 
HETATM    4  N   UNL     1      40.479 -14.190   3.055  1.00  0.00    -0.054 N 
HETATM    5  H   UNL     1      40.180 -13.196   3.114  1.00  0.00     0.281 HD
HETATM    6  C   UNL     1      40.534 -14.721   4.455  1.00  0.00     0.191 C 
HETATM    7  C   UNL     1      40.931 -16.197   4.454  1.00  0.00     0.058 C 
HETATM    8  C   UNL     1      42.538 -13.453   3.897  1.00  0.00     0.035 C 
HETATM    9  C   UNL     1      41.633 -13.843   5.066  1.00  0.00     0.035 C 
ENDROOT
BRANCH   1  10
HETATM   10  N   UNL     1      42.648 -17.782   3.549  1.00  0.00    -0.338 N 
HETATM   11  C   UNL     1      43.625 -17.632   4.494  1.00  0.00     0.321 C 
HETATM   12  N   UNL     1      44.316 -18.736   4.875  1.00  0.00    -0.309 N 
HETATM   13  O   UNL     1      43.842 -16.556   5.047  1.00  0.00    -0.247 OA
HETATM   14  H   UNL     1      44.869 -18.545   5.703  1.00  0.00     0.170 HD
HETATM   15  H   UNL     1      42.218 -18.696   3.633  1.00  0.00     0.164 HD
BRANCH  12  16
HETATM   16  C   UNL     1      44.429 -20.038   4.353  1.00  0.00     0.036 A 
HETATM   17  C   UNL     1      44.396 -20.355   2.994  1.00  0.00     0.029 A 
HETATM   18  C   UNL     1      44.519 -21.685   2.575  1.00  0.00     0.002 A 
HETATM   19  C   UNL     1      44.692 -22.705   3.509  1.00  0.00     0.000 A 
HETATM   20  C   UNL     1      44.758 -22.395   4.864  1.00  0.00     0.002 A 
HETATM   21  C   UNL     1      44.634 -21.068   5.281  1.00  0.00     0.029 A 
ENDBRANCH  12  16
ENDBRANCH   1  10
BRANCH   4  22
HETATM   22  C   UNL     1      39.463 -14.744   2.073  1.00  0.00     0.338 C 
BRANCH  22  23
HETATM   23  C   UNL     1      39.632 -14.058   0.716  1.00  0.00     0.243 C 
HETATM   24  N   UNL     1      40.222 -14.806  -0.260  1.00  0.00    -0.354 N 
HETATM   25  H   UNL     1      40.555 -15.751  -0.098  1.00  0.00     0.162 HD
HETATM   26  O   UNL     1      39.274 -12.889   0.579  1.00  0.00    -0.272 OA
BRANCH  24  27
HETATM   27  C   UNL     1      40.526 -14.255  -1.567  1.00  0.00     0.187 C 
BRANCH  27  28
HETATM   28  C   UNL     1      39.656 -14.898  -2.585  1.00  0.00     0.070 A 
HETATM   29  O   UNL     1      38.337 -14.529  -2.606  1.00  0.00    -0.325 OA
HETATM   30  C   UNL     1      37.741 -15.244  -3.595  1.00  0.00     0.142 A 
HETATM   31  C   UNL     1      38.654 -16.065  -4.212  1.00  0.00     0.027 A 
HETATM   32  C   UNL     1      39.891 -15.843  -3.561  1.00  0.00     0.036 A 
ENDBRANCH  27  28
ENDBRANCH  24  27
ENDBRANCH  22  23
ENDBRANCH   4  22
TORSDOF 6
ENDMDL
MODEL 6
REMARK VINA RESULT:      -7.8      4.116      8.084
REMARK  6 active torsions:
REMARK  status: ('A' for Active; 'I' for Inactive)
REMARK    1  A    between atoms: C_4  and  N_5 
REMARK       I    between atoms: N_5  and  C_6 
REMARK       I    between atoms: C_6  and  N_7 
REMARK    2  A    between atoms: N_7  and  C_8 
REMARK    3  A    between atoms: N_11  and  C_13 
REMARK    4  A    between atoms: C_13  and  C_14 
REMARK       I    between atoms: C_14  and  N_15 
REMARK    5  A    between atoms: N_15  and  C_16 
REMARK    6  A    between atoms: C_16  and  C_17 
ROOT
HETATM    1  C   UNL     1      42.786 -16.152   3.059  1.00  0.00     0.090 C 
HETATM    2  C   UNL     1      43.415 -15.320   4.189  1.00  0.00     0.058 C 
HETATM    3  C   UNL     1      42.563 -14.154   4.704  1.00  0.00     0.191 C 
HETATM    4  N   UNL     1      41.574 -13.708   3.662  1.00  0.00    -0.054 N 
HETATM    5  H   UNL     1      41.079 -12.899   4.087  1.00  0.00     0.281 HD
HETATM    6  C   UNL     1      40.606 -14.852   3.625  1.00  0.00     0.191 C 
HETATM    7  C   UNL     1      41.247 -16.078   2.976  1.00  0.00     0.058 C 
HETATM    8  C   UNL     1      41.622 -14.608   5.826  1.00  0.00     0.035 C 
HETATM    9  C   UNL     1      40.348 -15.076   5.120  1.00  0.00     0.035 C 
ENDROOT
BRANCH   1  10
HETATM   10  N   UNL     1      43.292 -17.523   3.072  1.00  0.00    -0.338 N 
HETATM   11  C   UNL     1      43.730 -18.103   1.912  1.00  0.00     0.321 C 
HETATM   12  N   UNL     1      44.351 -19.306   1.998  1.00  0.00    -0.309 N 
HETATM   13  O   UNL     1      43.640 -17.539   0.824  1.00  0.00    -0.247 OA
HETATM   14  H   UNL     1      44.796 -19.544   1.119  1.00  0.00     0.170 HD
HETATM   15  H   UNL     1      43.906 -17.770   3.840  1.00  0.00     0.164 HD
BRANCH  12  16
HETATM   16  C   UNL     1      44.473 -20.264   3.022  1.00  0.00     0.036 A 
HETATM   17  C   UNL     1      44.582 -19.966   4.382  1.00  0.00     0.029 A 
HETATM   18  C   UNL     1      44.698 -20.995   5.324  1.00  0.00     0.002 A 
HETATM   19  C   UNL     1      44.690 -22.327   4.917  1.00  0.00     0.000 A 
HETATM   20  C   UNL     1      44.551 -22.635   3.568  1.00  0.00     0.002 A 
HETATM   21  C   UNL     1      44.436 -21.608   2.627  1.00  0.00     0.029 A 
ENDBRANCH  12  16
ENDBRANCH   1  10
BRANCH   4  22
HETATM   22  C   UNL     1      42.078 -13.099   2.367  1.00  0.00     0.338 C 
BRANCH  22  23
HETATM   23  C   UNL     1      40.892 -12.779   1.454  1.00  0.00     0.243 C 
HETATM   24  N   UNL     1      40.764 -13.564   0.347  1.00  0.00    -0.354 N 
HETATM   25  H   UNL     1      41.424 -14.303   0.121  1.00  0.00     0.162 HD
HETATM   26  O   UNL     1      40.153 -11.834   1.729  1.00  0.00    -0.272 OA
BRANCH  24  27
HETATM   27  C   UNL     1      39.741 -13.318  -0.651  1.00  0.00     0.187 C 
BRANCH  27  28
HETATM   28  C   UNL     1      39.881 -14.306  -1.752  1.00  0.00     0.070 A 
HETATM   29  O   UNL     1      38.925 -14.291  -2.733  1.00  0.00    -0.325 OA
HETATM   30  C   UNL     1      39.246 -15.273  -3.614  1.00  0.00     0.142 A 
HETATM   31  C   UNL     1      40.393 -15.918  -3.218  1.00  0.00     0.027 A 
HETATM   32  C   UNL     1      40.804 -15.295  -2.016  1.00  0.00     0.036 A 
ENDBRANCH  27  28
ENDBRANCH  24  27
ENDBRANCH  22  23
ENDBRANCH   4  22
TORSDOF 6
ENDMDL
MODEL 7
REMARK VINA RESULT:      -7.7      2.526      3.126
REMARK  6 active torsions:
REMARK  status: ('A' for Active; 'I' for Inactive)
REMARK    1  A    between atoms: C_4  and  N_5 
REMARK       I    between atoms: N_5  and  C_6 
REMARK       I    between atoms: C_6  and  N_7 
REMARK    2  A    between atoms: N_7  and  C_8 
REMARK    3  A    between atoms: N_11  and  C_13 
REMARK    4  A    between atoms: C_13  and  C_14 
REMARK       I    between atoms: C_14  and  N_15 
REMARK    5  A    between atoms: N_15  and  C_16 
REMARK    6  A    between atoms: C_16  and  C_17 
ROOT
HETATM    1  C   UNL     1      42.316 -13.950   5.668  1.00  0.00     0.090 C 
HETATM    2  C   UNL     1      41.194 -14.993   5.533  1.00  0.00     0.058 C 
HETATM    3  C   UNL     1      41.658 -16.449   5.403  1.00  0.00     0.191 C 
HETATM    4  N   UNL     1      43.062 -16.521   4.871  1.00  0.00    -0.054 N 
HETATM    5  H   UNL     1      43.266 -17.537   4.782  1.00  0.00     0.281 HD
HETATM    6  C   UNL     1      43.871 -16.004   6.021  1.00  0.00     0.191 C 
HETATM    7  C   UNL     1      43.656 -14.501   6.197  1.00  0.00     0.058 C 
HETATM    8  C   UNL     1      41.832 -17.099   6.780  1.00  0.00     0.035 C 
HETATM    9  C   UNL     1      43.274 -16.798   7.189  1.00  0.00     0.035 C 
ENDROOT
BRANCH   1  10
HETATM   10  N   UNL     1      41.854 -12.772   6.399  1.00  0.00    -0.338 N 
HETATM   11  C   UNL     1      41.541 -11.624   5.724  1.00  0.00     0.321 C 
HETATM   12  N   UNL     1      40.953 -10.618   6.418  1.00  0.00    -0.309 N 
HETATM   13  O   UNL     1      41.712 -11.510   4.512  1.00  0.00    -0.247 OA
HETATM   14  H   UNL     1      40.596  -9.908   5.789  1.00  0.00     0.170 HD
HETATM   15  H   UNL     1      41.180 -12.937   7.139  1.00  0.00     0.164 HD
BRANCH  12  16
HETATM   16  C   UNL     1      40.768 -10.364   7.791  1.00  0.00     0.036 A 
HETATM   17  C   UNL     1      41.793 -10.060   8.688  1.00  0.00     0.029 A 
HETATM   18  C   UNL     1      41.505  -9.822  10.037  1.00  0.00     0.002 A 
HETATM   19  C   UNL     1      40.190  -9.871  10.496  1.00  0.00     0.000 A 
HETATM   20  C   UNL     1      39.158 -10.144   9.603  1.00  0.00     0.002 A 
HETATM   21  C   UNL     1      39.447 -10.383   8.257  1.00  0.00     0.029 A 
ENDBRANCH  12  16
ENDBRANCH   1  10
BRANCH   4  22
HETATM   22  C   UNL     1      43.352 -16.039   3.462  1.00  0.00     0.338 C 
BRANCH  22  23
HETATM   23  C   UNL     1      43.816 -17.215   2.601  1.00  0.00     0.243 C 
HETATM   24  N   UNL     1      43.777 -18.442   3.196  1.00  0.00    -0.354 N 
HETATM   25  H   UNL     1      43.485 -18.572   4.160  1.00  0.00     0.162 HD
HETATM   26  O   UNL     1      44.224 -17.008   1.459  1.00  0.00    -0.272 OA
BRANCH  24  27
HETATM   27  C   UNL     1      44.270 -19.632   2.530  1.00  0.00     0.187 C 
BRANCH  27  28
HETATM   28  C   UNL     1      44.511 -20.696   3.538  1.00  0.00     0.070 A 
HETATM   29  O   UNL     1      44.511 -21.992   3.095  1.00  0.00    -0.325 OA
HETATM   30  C   UNL     1      44.736 -22.781   4.177  1.00  0.00     0.142 A 
HETATM   31  C   UNL     1      44.883 -22.015   5.309  1.00  0.00     0.027 A 
HETATM   32  C   UNL     1      44.738 -20.668   4.898  1.00  0.00     0.036 A 
ENDBRANCH  27  28
ENDBRANCH  24  27
ENDBRANCH  22  23
ENDBRANCH   4  22
TORSDOF 6
ENDMDL
MODEL 8
REMARK VINA RESULT:      -7.6      3.558      9.557
REMARK  6 active torsions:
REMARK  status: ('A' for Active; 'I' for Inactive)
REMARK    1  A    between atoms: C_4  and  N_5 
REMARK       I    between atoms: N_5  and  C_6 
REMARK       I    between atoms: C_6  and  N_7 
REMARK    2  A    between atoms: N_7  and  C_8 
REMARK    3  A    between atoms: N_11  and  C_13 
REMARK    4  A    between atoms: C_13  and  C_14 
REMARK       I    between atoms: C_14  and  N_15 
REMARK    5  A    between atoms: N_15  and  C_16 
REMARK    6  A    between atoms: C_16  and  C_17 
ROOT
HETATM    1  C   UNL     1      41.687 -14.855   2.477  1.00  0.00     0.090 C 
HETATM    2  C   UNL     1      43.103 -15.407   2.708  1.00  0.00     0.058 C 
HETATM    3  C   UNL     1      43.328 -16.106   4.054  1.00  0.00     0.191 C 
HETATM    4  N   UNL     1      42.339 -15.629   5.081  1.00  0.00    -0.054 N 
HETATM    5  H   UNL     1      42.597 -16.125   5.957  1.00  0.00     0.281 HD
HETATM    6  C   UNL     1      41.054 -16.227   4.594  1.00  0.00     0.191 C 
HETATM    7  C   UNL     1      40.583 -15.523   3.321  1.00  0.00     0.058 C 
HETATM    8  C   UNL     1      42.970 -17.595   3.972  1.00  0.00     0.035 C 
HETATM    9  C   UNL     1      41.481 -17.672   4.312  1.00  0.00     0.035 C 
ENDROOT
BRANCH   1  10
HETATM   10  N   UNL     1      41.367 -14.807   1.052  1.00  0.00    -0.338 N 
HETATM   11  C   UNL     1      41.220 -15.968   0.343  1.00  0.00     0.321 C 
HETATM   12  N   UNL     1      40.754 -15.882  -0.928  1.00  0.00    -0.309 N 
HETATM   13  O   UNL     1      41.430 -17.071   0.843  1.00  0.00    -0.247 OA
HETATM   14  H   UNL     1      40.507 -16.799  -1.283  1.00  0.00     0.170 HD
HETATM   15  H   UNL     1      40.663 -14.134   0.770  1.00  0.00     0.164 HD
BRANCH  12  16
HETATM   16  C   UNL     1      40.576 -14.814  -1.827  1.00  0.00     0.036 A 
HETATM   17  C   UNL     1      41.541 -14.367  -2.732  1.00  0.00     0.029 A 
HETATM   18  C   UNL     1      41.264 -13.293  -3.587  1.00  0.00     0.002 A 
HETATM   19  C   UNL     1      40.019 -12.669  -3.554  1.00  0.00     0.000 A 
HETATM   20  C   UNL     1      39.041 -13.127  -2.677  1.00  0.00     0.002 A 
HETATM   21  C   UNL     1      39.318 -14.197  -1.823  1.00  0.00     0.029 A 
ENDBRANCH  12  16
ENDBRANCH   1  10
BRANCH   4  22
HETATM   22  C   UNL     1      42.377 -14.183   5.539  1.00  0.00     0.338 C 
BRANCH  22  23
HETATM   23  C   UNL     1      43.808 -13.805   5.927  1.00  0.00     0.243 C 
HETATM   24  N   UNL     1      44.057 -13.706   7.265  1.00  0.00    -0.354 N 
HETATM   25  H   UNL     1      43.337 -13.848   7.966  1.00  0.00     0.162 HD
HETATM   26  O   UNL     1      44.636 -13.577   5.045  1.00  0.00    -0.272 OA
BRANCH  24  27
HETATM   27  C   UNL     1      45.343 -13.269   7.773  1.00  0.00     0.187 C 
BRANCH  27  28
HETATM   28  C   UNL     1      45.139 -12.500   9.028  1.00  0.00     0.070 A 
HETATM   29  O   UNL     1      44.359 -13.075   9.996  1.00  0.00    -0.325 OA
HETATM   30  C   UNL     1      44.304 -12.199  11.033  1.00  0.00     0.142 A 
HETATM   31  C   UNL     1      45.037 -11.072  10.748  1.00  0.00     0.027 A 
HETATM   32  C   UNL     1      45.577 -11.265   9.455  1.00  0.00     0.036 A 
ENDBRANCH  27  28
ENDBRANCH  24  27
ENDBRANCH  22  23
ENDBRANCH   4  22
TORSDOF 6
ENDMDL
MODEL 9
REMARK VINA RESULT:      -7.4      3.982      8.639
REMARK  6 active torsions:
REMARK  status: ('A' for Active; 'I' for Inactive)
REMARK    1  A    between atoms: C_4  and  N_5 
REMARK       I    between atoms: N_5  and  C_6 
REMARK       I    between atoms: C_6  and  N_7 
REMARK    2  A    between atoms: N_7  and  C_8 
REMARK    3  A    between atoms: N_11  and  C_13 
REMARK    4  A    between atoms: C_13  and  C_14 
REMARK       I    between atoms: C_14  and  N_15 
REMARK    5  A    between atoms: N_15  and  C_16 
REMARK    6  A    between atoms: C_16  and  C_17 
ROOT
HETATM    1  C   UNL     1      42.326 -16.020   2.925  1.00  0.00     0.090 C 
HETATM    2  C   UNL     1      43.414 -14.935   2.947  1.00  0.00     0.058 C 
HETATM    3  C   UNL     1      43.011 -13.608   3.601  1.00  0.00     0.191 C 
HETATM    4  N   UNL     1      41.519 -13.426   3.576  1.00  0.00    -0.054 N 
HETATM    5  H   UNL     1      41.352 -12.492   4.000  1.00  0.00     0.281 HD
HETATM    6  C   UNL     1      41.051 -14.453   4.563  1.00  0.00     0.191 C 
HETATM    7  C   UNL     1      41.228 -15.861   3.997  1.00  0.00     0.058 C 
HETATM    8  C   UNL     1      43.278 -13.632   5.111  1.00  0.00     0.035 C 
HETATM    9  C   UNL     1      42.002 -14.196   5.738  1.00  0.00     0.035 C 
ENDROOT
BRANCH   1  10
HETATM   10  N   UNL     1      42.917 -17.357   2.906  1.00  0.00    -0.338 N 
HETATM   11  C   UNL     1      43.302 -17.920   1.720  1.00  0.00     0.321 C 
HETATM   12  N   UNL     1      44.002 -19.081   1.765  1.00  0.00    -0.309 N 
HETATM   13  O   UNL     1      43.095 -17.374   0.639  1.00  0.00    -0.247 OA
HETATM   14  H   UNL     1      44.394 -19.300   0.856  1.00  0.00     0.170 HD
HETATM   15  H   UNL     1      43.601 -17.558   3.627  1.00  0.00     0.164 HD
BRANCH  12  16
HETATM   16  C   UNL     1      44.261 -20.020   2.782  1.00  0.00     0.036 A 
HETATM   17  C   UNL     1      44.481 -19.699   4.123  1.00  0.00     0.029 A 
HETATM   18  C   UNL     1      44.729 -20.709   5.059  1.00  0.00     0.002 A 
HETATM   19  C   UNL     1      44.745 -22.046   4.667  1.00  0.00     0.000 A 
HETATM   20  C   UNL     1      44.496 -22.378   3.339  1.00  0.00     0.002 A 
HETATM   21  C   UNL     1      44.249 -21.369   2.404  1.00  0.00     0.029 A 
ENDBRANCH  12  16
ENDBRANCH   1  10
BRANCH   4  22
HETATM   22  C   UNL     1      40.808 -13.275   2.244  1.00  0.00     0.338 C 
BRANCH  22  23
HETATM   23  C   UNL     1      41.253 -11.977   1.568  1.00  0.00     0.243 C 
HETATM   24  N   UNL     1      41.984 -12.120   0.425  1.00  0.00    -0.354 N 
HETATM   25  H   UNL     1      42.243 -13.029   0.053  1.00  0.00     0.162 HD
HETATM   26  O   UNL     1      40.974 -10.896   2.086  1.00  0.00    -0.272 OA
BRANCH  24  27
HETATM   27  C   UNL     1      42.547 -10.980  -0.271  1.00  0.00     0.187 C 
BRANCH  27  28
HETATM   28  C   UNL     1      42.397 -11.176  -1.736  1.00  0.00     0.070 A 
HETATM   29  O   UNL     1      41.809 -12.339  -2.156  1.00  0.00    -0.325 OA
HETATM   30  C   UNL     1      41.789 -12.306  -3.514  1.00  0.00     0.142 A 
HETATM   31  C   UNL     1      42.353 -11.140  -3.974  1.00  0.00     0.027 A 
HETATM   32  C   UNL     1      42.746 -10.409  -2.828  1.00  0.00     0.036 A 
ENDBRANCH  27  28
ENDBRANCH  24  27
ENDBRANCH  22  23
ENDBRANCH   4  22
TORSDOF 6
ENDMDL
MODEL 10
REMARK VINA RESULT:      -7.2      3.307      4.982
REMARK  6 active torsions:
REMARK  status: ('A' for Active; 'I' for Inactive)
REMARK    1  A    between atoms: C_4  and  N_5 
REMARK       I    between atoms: N_5  and  C_6 
REMARK       I    between atoms: C_6  and  N_7 
REMARK    2  A    between atoms: N_7  and  C_8 
REMARK    3  A    between atoms: N_11  and  C_13 
REMARK    4  A    between atoms: C_13  and  C_14 
REMARK       I    between atoms: C_14  and  N_15 
REMARK    5  A    between atoms: N_15  and  C_16 
REMARK    6  A    between atoms: C_16  and  C_17 
ROOT
HETATM    1  C   UNL     1      42.104 -14.283   5.422  1.00  0.00     0.090 C 
HETATM    2  C   UNL     1      41.169 -15.347   6.019  1.00  0.00     0.058 C 
HETATM    3  C   UNL     1      41.148 -16.695   5.288  1.00  0.00     0.191 C 
HETATM    4  N   UNL     1      41.582 -16.537   3.857  1.00  0.00    -0.054 N 
HETATM    5  H   UNL     1      41.496 -17.486   3.442  1.00  0.00     0.281 HD
HETATM    6  C   UNL     1      43.045 -16.241   3.992  1.00  0.00     0.191 C 
HETATM    7  C   UNL     1      43.259 -14.840   4.564  1.00  0.00     0.058 C 
HETATM    8  C   UNL     1      42.238 -17.632   5.822  1.00  0.00     0.035 C 
HETATM    9  C   UNL     1      43.480 -17.326   4.984  1.00  0.00     0.035 C 
ENDROOT
BRANCH   1  10
HETATM   10  N   UNL     1      42.556 -13.345   6.448  1.00  0.00    -0.338 N 
HETATM   11  C   UNL     1      41.931 -12.137   6.595  1.00  0.00     0.321 C 
HETATM   12  N   UNL     1      42.266 -11.374   7.666  1.00  0.00    -0.309 N 
HETATM   13  O   UNL     1      41.041 -11.763   5.835  1.00  0.00    -0.247 OA
HETATM   14  H   UNL     1      41.614 -10.606   7.778  1.00  0.00     0.170 HD
HETATM   15  H   UNL     1      42.773 -13.740   7.356  1.00  0.00     0.164 HD
BRANCH  12  16
HETATM   16  C   UNL     1      43.315 -11.424   8.603  1.00  0.00     0.036 A 
HETATM   17  C   UNL     1      44.469 -12.198   8.465  1.00  0.00     0.029 A 
HETATM   18  C   UNL     1      45.457 -12.176   9.456  1.00  0.00     0.002 A 
HETATM   19  C   UNL     1      45.307 -11.372  10.584  1.00  0.00     0.000 A 
HETATM   20  C   UNL     1      44.175 -10.574  10.716  1.00  0.00     0.002 A 
HETATM   21  C   UNL     1      43.188 -10.596   9.727  1.00  0.00     0.029 A 
ENDBRANCH  12  16
ENDBRANCH   1  10
BRANCH   4  22
HETATM   22  C   UNL     1      40.728 -15.721   2.904  1.00  0.00     0.338 C 
BRANCH  22  23
HETATM   23  C   UNL     1      40.868 -16.275   1.485  1.00  0.00     0.243 C 
HETATM   24  N   UNL     1      41.122 -15.356   0.509  1.00  0.00    -0.354 N 
HETATM   25  H   UNL     1      41.191 -14.361   0.700  1.00  0.00     0.162 HD
HETATM   26  O   UNL     1      40.714 -17.479   1.285  1.00  0.00    -0.272 OA
BRANCH  24  27
HETATM   27  C   UNL     1      41.191 -15.727  -0.891  1.00  0.00     0.187 C 
BRANCH  27  28
HETATM   28  C   UNL     1      40.467 -14.716  -1.703  1.00  0.00     0.070 A 
HETATM   29  O   UNL     1      40.992 -14.402  -2.929  1.00  0.00    -0.325 OA
HETATM   30  C   UNL     1      40.182 -13.460  -3.479  1.00  0.00     0.142 A 
HETATM   31  C   UNL     1      39.143 -13.165  -2.628  1.00  0.00     0.027 A 
HETATM   32  C   UNL     1      39.325 -13.974  -1.482  1.00  0.00     0.036 A 
ENDBRANCH  27  28
ENDBRANCH  24  27
ENDBRANCH  22  23
ENDBRANCH   4  22
TORSDOF 6
ENDMDL
