MODEL 1
REMARK VINA RESULT:      -8.3      0.000      0.000
REMARK  3 active torsions:
REMARK  status: ('A' for Active; 'I' for Inactive)
REMARK    1  A    between atoms: C_5  and  N_6 
REMARK       I    between atoms: N_6  and  C_7 
REMARK    2  A    between atoms: C_7  and  C_8 
REMARK    3  A    between atoms: C_11  and  N_12 
ROOT
HETATM    1  C   UNL     1      44.559 -21.225   2.833  1.00  0.00     0.001 A 
HETATM    2  C   UNL     1      44.781 -20.279   3.835  1.00  0.00     0.008 A 
HETATM    3  C   UNL     1      44.049 -19.100   3.808  1.00  0.00    -0.043 A 
HETATM    4  C   UNL     1      43.123 -18.852   2.794  1.00  0.00    -0.028 A 
HETATM    5  C   UNL     1      42.440 -17.530   2.971  1.00  0.00     0.125 C 
HETATM    6  C   UNL     1      43.214 -16.893   4.157  1.00  0.00     0.049 C 
HETATM    7  C   UNL     1      44.132 -17.969   4.784  1.00  0.00     0.053 C 
HETATM    8  C   UNL     1      42.282 -16.462   5.278  1.00  0.00     0.239 C 
HETATM    9  N   UNL     1      42.184 -17.675   6.151  1.00  0.00    -0.074 N 
HETATM   10  H   UNL     1      41.860 -17.434   7.098  1.00  0.00     0.277 HD
HETATM   11  H   UNL     1      41.499 -18.339   5.763  1.00  0.00     0.277 HD
HETATM   12  C   UNL     1      43.549 -18.289   6.158  1.00  0.00     0.242 C 
HETATM   13  C   UNL     1      42.886 -19.798   1.805  1.00  0.00     0.010 A 
HETATM   14  C   UNL     1      43.615 -20.987   1.826  1.00  0.00     0.001 A 
ENDROOT
BRANCH   5  15
HETATM   15  N   UNL     1      42.488 -16.711   1.781  1.00  0.00    -0.348 N 
HETATM   16  C   UNL     1      41.358 -16.030   1.373  1.00  0.00     0.252 C 
HETATM   17  O   UNL     1      40.350 -15.989   2.074  1.00  0.00    -0.268 OA
HETATM   18  H   UNL     1      43.219 -16.895   1.106  1.00  0.00     0.163 HD
BRANCH  16  19
HETATM   19  C   UNL     1      41.392 -15.372   0.036  1.00  0.00     0.032 A 
HETATM   20  C   UNL     1      41.760 -14.034  -0.141  1.00  0.00     0.019 A 
HETATM   21  C   UNL     1      41.797 -13.483  -1.428  1.00  0.00     0.024 A 
HETATM   22  C   UNL     1      41.418 -14.234  -2.543  1.00  0.00     0.005 A 
HETATM   23  C   UNL     1      41.089 -15.579  -2.363  1.00  0.00     0.024 A 
HETATM   24  C   UNL     1      41.050 -16.140  -1.083  1.00  0.00     0.019 A 
BRANCH  22  25
HETATM   25  N   UNL     1      41.594 -13.720  -3.830  1.00  0.00    -0.303 NA
HETATM   26  H   UNL     1      42.533 -13.821  -4.202  1.00  0.00     0.124 HD
HETATM   27  H   UNL     1      41.233 -12.780  -3.960  1.00  0.00     0.124 HD
ENDBRANCH  22  25
ENDBRANCH  16  19
ENDBRANCH   5  15
TORSDOF 3
ENDMDL
MODEL 2
REMARK VINA RESULT:      -7.9      2.524      6.591
REMARK  3 active torsions:
REMARK  status: ('A' for Active; 'I' for Inactive)
REMARK    1  A    between atoms: C_5  and  N_6 
REMARK       I    between atoms: N_6  and  C_7 
REMARK    2  A    between atoms: C_7  and  C_8 
REMARK    3  A    between atoms: C_11  and  N_12 
ROOT
HETATM    1  C   UNL     1      39.724 -14.201  -1.129  1.00  0.00     0.001 A 
HETATM    2  C   UNL     1      39.158 -14.010   0.132  1.00  0.00     0.008 A 
HETATM    3  C   UNL     1      39.846 -14.473   1.246  1.00  0.00    -0.043 A 
HETATM    4  C   UNL     1      41.069 -15.131   1.112  1.00  0.00    -0.028 A 
HETATM    5  C   UNL     1      41.639 -15.528   2.440  1.00  0.00     0.125 C 
HETATM    6  C   UNL     1      40.492 -15.182   3.429  1.00  0.00     0.049 C 
HETATM    7  C   UNL     1      39.418 -14.364   2.675  1.00  0.00     0.053 C 
HETATM    8  C   UNL     1      40.967 -14.276   4.554  1.00  0.00     0.239 C 
HETATM    9  N   UNL     1      40.756 -12.895   4.017  1.00  0.00    -0.074 N 
HETATM   10  H   UNL     1      40.724 -12.196   4.772  1.00  0.00     0.277 HD
HETATM   11  H   UNL     1      41.538 -12.629   3.401  1.00  0.00     0.277 HD
HETATM   12  C   UNL     1      39.480 -12.946   3.237  1.00  0.00     0.242 C 
HETATM   13  C   UNL     1      41.645 -15.308  -0.139  1.00  0.00     0.010 A 
HETATM   14  C   UNL     1      40.961 -14.843  -1.264  1.00  0.00     0.001 A 
ENDROOT
BRANCH   5  15
HETATM   15  N   UNL     1      42.010 -16.923   2.495  1.00  0.00    -0.348 N 
HETATM   16  C   UNL     1      43.059 -17.321   3.301  1.00  0.00     0.252 C 
HETATM   17  O   UNL     1      43.595 -16.539   4.082  1.00  0.00    -0.268 OA
HETATM   18  H   UNL     1      41.726 -17.522   1.730  1.00  0.00     0.163 HD
BRANCH  16  19
HETATM   19  C   UNL     1      43.539 -18.726   3.168  1.00  0.00     0.032 A 
HETATM   20  C   UNL     1      44.310 -19.359   4.148  1.00  0.00     0.019 A 
HETATM   21  C   UNL     1      44.708 -20.691   3.974  1.00  0.00     0.024 A 
HETATM   22  C   UNL     1      44.393 -21.388   2.806  1.00  0.00     0.005 A 
HETATM   23  C   UNL     1      43.592 -20.762   1.849  1.00  0.00     0.024 A 
HETATM   24  C   UNL     1      43.187 -19.434   2.013  1.00  0.00     0.019 A 
BRANCH  22  25
HETATM   25  N   UNL     1      44.673 -22.753   2.704  1.00  0.00    -0.303 NA
HETATM   26  H   UNL     1      44.788 -23.228   3.594  1.00  0.00     0.124 HD
HETATM   27  H   UNL     1      45.416 -22.982   2.052  1.00  0.00     0.124 HD
ENDBRANCH  22  25
ENDBRANCH  16  19
ENDBRANCH   5  15
TORSDOF 3
ENDMDL
MODEL 3
REMARK VINA RESULT:      -7.9      1.380      1.956
REMARK  3 active torsions:
REMARK  status: ('A' for Active; 'I' for Inactive)
REMARK    1  A    between atoms: C_5  and  N_6 
REMARK       I    between atoms: N_6  and  C_7 
REMARK    2  A    between atoms: C_7  and  C_8 
REMARK    3  A    between atoms: C_11  and  N_12 
ROOT
HETATM    1  C   UNL     1      44.591 -21.026   2.851  1.00  0.00     0.001 A 
HETATM    2  C   UNL     1      44.982 -20.401   4.036  1.00  0.00     0.008 A 
HETATM    3  C   UNL     1      44.377 -19.201   4.384  1.00  0.00    -0.043 A 
HETATM    4  C   UNL     1      43.409 -18.620   3.564  1.00  0.00    -0.028 A 
HETATM    5  C   UNL     1      42.881 -17.341   4.140  1.00  0.00     0.125 C 
HETATM    6  C   UNL     1      43.802 -17.105   5.368  1.00  0.00     0.049 C 
HETATM    7  C   UNL     1      44.647 -18.379   5.605  1.00  0.00     0.053 C 
HETATM    8  C   UNL     1      43.004 -16.914   6.648  1.00  0.00     0.239 C 
HETATM    9  N   UNL     1      42.846 -18.302   7.185  1.00  0.00    -0.074 N 
HETATM   10  H   UNL     1      42.618 -18.295   8.189  1.00  0.00     0.277 HD
HETATM   11  H   UNL     1      42.069 -18.782   6.709  1.00  0.00     0.277 HD
HETATM   12  C   UNL     1      44.136 -19.004   6.901  1.00  0.00     0.242 C 
HETATM   13  C   UNL     1      43.003 -19.248   2.393  1.00  0.00     0.010 A 
HETATM   14  C   UNL     1      43.605 -20.455   2.037  1.00  0.00     0.001 A 
ENDROOT
BRANCH   5  15
HETATM   15  N   UNL     1      42.926 -16.244   3.202  1.00  0.00    -0.348 N 
HETATM   16  C   UNL     1      41.753 -15.627   2.813  1.00  0.00     0.252 C 
HETATM   17  O   UNL     1      40.682 -15.895   3.353  1.00  0.00    -0.268 OA
HETATM   18  H   UNL     1      43.745 -16.153   2.613  1.00  0.00     0.163 HD
BRANCH  16  19
HETATM   19  C   UNL     1      41.824 -14.647   1.693  1.00  0.00     0.032 A 
HETATM   20  C   UNL     1      41.669 -15.016   0.352  1.00  0.00     0.019 A 
HETATM   21  C   UNL     1      41.721 -14.041  -0.652  1.00  0.00     0.024 A 
HETATM   22  C   UNL     1      41.981 -12.704  -0.344  1.00  0.00     0.005 A 
HETATM   23  C   UNL     1      42.096 -12.337   0.998  1.00  0.00     0.024 A 
HETATM   24  C   UNL     1      42.044 -13.301   2.009  1.00  0.00     0.019 A 
BRANCH  22  25
HETATM   25  N   UNL     1      41.891 -11.723  -1.335  1.00  0.00    -0.303 NA
HETATM   26  H   UNL     1      41.901 -10.769  -0.988  1.00  0.00     0.124 HD
HETATM   27  H   UNL     1      41.147 -11.874  -2.009  1.00  0.00     0.124 HD
ENDBRANCH  22  25
ENDBRANCH  16  19
ENDBRANCH   5  15
TORSDOF 3
ENDMDL
MODEL 4
REMARK VINA RESULT:      -7.7      1.615      2.092
REMARK  3 active torsions:
REMARK  status: ('A' for Active; 'I' for Inactive)
REMARK    1  A    between atoms: C_5  and  N_6 
REMARK       I    between atoms: N_6  and  C_7 
REMARK    2  A    between atoms: C_7  and  C_8 
REMARK    3  A    between atoms: C_11  and  N_12 
ROOT
HETATM    1  C   UNL     1      44.028 -19.299   3.521  1.00  0.00     0.001 A 
HETATM    2  C   UNL     1      43.833 -18.319   4.496  1.00  0.00     0.008 A 
HETATM    3  C   UNL     1      42.844 -17.366   4.292  1.00  0.00    -0.043 A 
HETATM    4  C   UNL     1      42.070 -17.372   3.131  1.00  0.00    -0.028 A 
HETATM    5  C   UNL     1      41.057 -16.267   3.128  1.00  0.00     0.125 C 
HETATM    6  C   UNL     1      41.436 -15.444   4.390  1.00  0.00     0.049 C 
HETATM    7  C   UNL     1      42.475 -16.244   5.210  1.00  0.00     0.053 C 
HETATM    8  C   UNL     1      40.250 -15.257   5.323  1.00  0.00     0.239 C 
HETATM    9  N   UNL     1      40.314 -16.447   6.229  1.00  0.00    -0.074 N 
HETATM   10  H   UNL     1      39.785 -16.290   7.098  1.00  0.00     0.277 HD
HETATM   11  H   UNL     1      39.893 -17.268   5.771  1.00  0.00     0.277 HD
HETATM   12  C   UNL     1      41.768 -16.691   6.486  1.00  0.00     0.242 C 
HETATM   13  C   UNL     1      42.247 -18.355   2.166  1.00  0.00     0.010 A 
HETATM   14  C   UNL     1      43.237 -19.319   2.365  1.00  0.00     0.001 A 
ENDROOT
BRANCH   5  15
HETATM   15  N   UNL     1      41.097 -15.474   1.922  1.00  0.00    -0.348 N 
HETATM   16  C   UNL     1      39.918 -15.080   1.321  1.00  0.00     0.252 C 
HETATM   17  O   UNL     1      38.832 -15.268   1.865  1.00  0.00    -0.268 OA
HETATM   18  H   UNL     1      41.946 -15.489   1.370  1.00  0.00     0.163 HD
BRANCH  16  19
HETATM   19  C   UNL     1      40.004 -14.448  -0.025  1.00  0.00     0.032 A 
HETATM   20  C   UNL     1      41.170 -14.466  -0.797  1.00  0.00     0.019 A 
HETATM   21  C   UNL     1      41.178 -13.876  -2.068  1.00  0.00     0.024 A 
HETATM   22  C   UNL     1      40.050 -13.216  -2.561  1.00  0.00     0.005 A 
HETATM   23  C   UNL     1      38.879 -13.235  -1.801  1.00  0.00     0.024 A 
HETATM   24  C   UNL     1      38.859 -13.823  -0.533  1.00  0.00     0.019 A 
BRANCH  22  25
HETATM   25  N   UNL     1      40.025 -12.756  -3.880  1.00  0.00    -0.303 NA
HETATM   26  H   UNL     1      39.626 -11.830  -3.996  1.00  0.00     0.124 HD
HETATM   27  H   UNL     1      39.647 -13.419  -4.549  1.00  0.00     0.124 HD
ENDBRANCH  22  25
ENDBRANCH  16  19
ENDBRANCH   5  15
TORSDOF 3
ENDMDL
MODEL 5
REMARK VINA RESULT:      -7.5      1.629      7.582
REMARK  3 active torsions:
REMARK  status: ('A' for Active; 'I' for Inactive)
REMARK    1  A    between atoms: C_5  and  N_6 
REMARK       I    between atoms: N_6  and  C_7 
REMARK    2  A    between atoms: C_7  and  C_8 
REMARK    3  A    between atoms: C_11  and  N_12 
ROOT
HETATM    1  C   UNL     1      42.462 -11.236  -0.506  1.00  0.00     0.001 A 
HETATM    2  C   UNL     1      42.342 -11.887  -1.734  1.00  0.00     0.008 A 
HETATM    3  C   UNL     1      41.911 -13.207  -1.747  1.00  0.00    -0.043 A 
HETATM    4  C   UNL     1      41.620 -13.879  -0.559  1.00  0.00    -0.028 A 
HETATM    5  C   UNL     1      41.160 -15.283  -0.808  1.00  0.00     0.125 C 
HETATM    6  C   UNL     1      41.383 -15.458  -2.335  1.00  0.00     0.049 C 
HETATM    7  C   UNL     1      41.712 -14.076  -2.948  1.00  0.00     0.053 C 
HETATM    8  C   UNL     1      40.119 -15.917  -3.045  1.00  0.00     0.239 C 
HETATM    9  N   UNL     1      39.429 -14.641  -3.414  1.00  0.00    -0.074 N 
HETATM   10  H   UNL     1      38.744 -14.786  -4.169  1.00  0.00     0.277 HD
HETATM   11  H   UNL     1      38.906 -14.272  -2.607  1.00  0.00     0.277 HD
HETATM   12  C   UNL     1      40.511 -13.685  -3.806  1.00  0.00     0.242 C 
HETATM   13  C   UNL     1      41.721 -13.230   0.665  1.00  0.00     0.010 A 
HETATM   14  C   UNL     1      42.151 -11.902   0.686  1.00  0.00     0.001 A 
ENDROOT
BRANCH   5  15
HETATM   15  N   UNL     1      41.890 -16.258  -0.031  1.00  0.00    -0.348 N 
HETATM   16  C   UNL     1      41.373 -16.703   1.170  1.00  0.00     0.252 C 
HETATM   17  O   UNL     1      40.239 -16.397   1.528  1.00  0.00    -0.268 OA
HETATM   18  H   UNL     1      42.883 -16.358  -0.204  1.00  0.00     0.163 HD
BRANCH  16  19
HETATM   19  C   UNL     1      42.252 -17.543   2.032  1.00  0.00     0.032 A 
HETATM   20  C   UNL     1      42.052 -17.682   3.409  1.00  0.00     0.019 A 
HETATM   21  C   UNL     1      42.898 -18.509   4.159  1.00  0.00     0.024 A 
HETATM   22  C   UNL     1      43.981 -19.159   3.564  1.00  0.00     0.005 A 
HETATM   23  C   UNL     1      44.152 -19.046   2.183  1.00  0.00     0.024 A 
HETATM   24  C   UNL     1      43.312 -18.225   1.424  1.00  0.00     0.019 A 
BRANCH  22  25
HETATM   25  N   UNL     1      44.730 -20.088   4.291  1.00  0.00    -0.303 NA
HETATM   26  H   UNL     1      44.211 -20.907   4.591  1.00  0.00     0.124 HD
HETATM   27  H   UNL     1      45.278 -19.687   5.045  1.00  0.00     0.124 HD
ENDBRANCH  22  25
ENDBRANCH  16  19
ENDBRANCH   5  15
TORSDOF 3
ENDMDL
MODEL 6
REMARK VINA RESULT:      -7.4      3.779      5.019
REMARK  3 active torsions:
REMARK  status: ('A' for Active; 'I' for Inactive)
REMARK    1  A    between atoms: C_5  and  N_6 
REMARK       I    between atoms: N_6  and  C_7 
REMARK    2  A    between atoms: C_7  and  C_8 
REMARK    3  A    between atoms: C_11  and  N_12 
ROOT
HETATM    1  C   UNL     1      43.628 -19.520   1.533  1.00  0.00     0.001 A 
HETATM    2  C   UNL     1      44.429 -19.785   2.645  1.00  0.00     0.008 A 
HETATM    3  C   UNL     1      44.063 -19.242   3.870  1.00  0.00    -0.043 A 
HETATM    4  C   UNL     1      42.932 -18.434   3.989  1.00  0.00    -0.028 A 
HETATM    5  C   UNL     1      42.720 -17.972   5.399  1.00  0.00     0.125 C 
HETATM    6  C   UNL     1      44.003 -18.462   6.123  1.00  0.00     0.049 C 
HETATM    7  C   UNL     1      44.776 -19.408   5.175  1.00  0.00     0.053 C 
HETATM    8  C   UNL     1      43.677 -19.304   7.347  1.00  0.00     0.239 C 
HETATM    9  N   UNL     1      43.593 -20.699   6.811  1.00  0.00    -0.074 N 
HETATM   10  H   UNL     1      43.702 -21.399   7.559  1.00  0.00     0.277 HD
HETATM   11  H   UNL     1      42.669 -20.863   6.386  1.00  0.00     0.277 HD
HETATM   12  C   UNL     1      44.663 -20.808   5.772  1.00  0.00     0.242 C 
HETATM   13  C   UNL     1      42.122 -18.182   2.888  1.00  0.00     0.010 A 
HETATM   14  C   UNL     1      42.481 -18.727   1.654  1.00  0.00     0.001 A 
ENDROOT
BRANCH   5  15
HETATM   15  N   UNL     1      42.545 -16.541   5.498  1.00  0.00    -0.348 N 
HETATM   16  C   UNL     1      41.331 -16.026   5.910  1.00  0.00     0.252 C 
HETATM   17  O   UNL     1      40.438 -16.758   6.329  1.00  0.00    -0.268 OA
HETATM   18  H   UNL     1      43.177 -15.946   4.977  1.00  0.00     0.163 HD
BRANCH  16  19
HETATM   19  C   UNL     1      41.130 -14.554   5.797  1.00  0.00     0.032 A 
HETATM   20  C   UNL     1      39.862 -13.966   5.734  1.00  0.00     0.019 A 
HETATM   21  C   UNL     1      39.741 -12.572   5.656  1.00  0.00     0.024 A 
HETATM   22  C   UNL     1      40.871 -11.755   5.584  1.00  0.00     0.005 A 
HETATM   23  C   UNL     1      42.132 -12.346   5.685  1.00  0.00     0.024 A 
HETATM   24  C   UNL     1      42.265 -13.736   5.766  1.00  0.00     0.019 A 
BRANCH  22  25
HETATM   25  N   UNL     1      40.740 -10.365   5.648  1.00  0.00    -0.303 NA
HETATM   26  H   UNL     1      41.027  -9.954   6.531  1.00  0.00     0.124 HD
HETATM   27  H   UNL     1      39.839 -10.014   5.339  1.00  0.00     0.124 HD
ENDBRANCH  22  25
ENDBRANCH  16  19
ENDBRANCH   5  15
TORSDOF 3
ENDMDL
MODEL 7
REMARK VINA RESULT:      -7.1      2.580      7.096
REMARK  3 active torsions:
REMARK  status: ('A' for Active; 'I' for Inactive)
REMARK    1  A    between atoms: C_5  and  N_6 
REMARK       I    between atoms: N_6  and  C_7 
REMARK    2  A    between atoms: C_7  and  C_8 
REMARK    3  A    between atoms: C_11  and  N_12 
ROOT
HETATM    1  C   UNL     1      40.275 -12.644   5.318  1.00  0.00     0.001 A 
HETATM    2  C   UNL     1      40.860 -12.314   4.095  1.00  0.00     0.008 A 
HETATM    3  C   UNL     1      41.249 -13.342   3.246  1.00  0.00    -0.043 A 
HETATM    4  C   UNL     1      41.076 -14.678   3.610  1.00  0.00    -0.028 A 
HETATM    5  C   UNL     1      41.550 -15.615   2.540  1.00  0.00     0.125 C 
HETATM    6  C   UNL     1      42.223 -14.662   1.515  1.00  0.00     0.049 C 
HETATM    7  C   UNL     1      41.884 -13.203   1.899  1.00  0.00     0.053 C 
HETATM    8  C   UNL     1      41.661 -14.846   0.114  1.00  0.00     0.239 C 
HETATM    9  N   UNL     1      40.509 -13.893   0.061  1.00  0.00    -0.074 N 
HETATM   10  H   UNL     1      40.243 -13.674  -0.910  1.00  0.00     0.277 HD
HETATM   11  H   UNL     1      39.679 -14.311   0.507  1.00  0.00     0.277 HD
HETATM   12  C   UNL     1      40.943 -12.678   0.818  1.00  0.00     0.242 C 
HETATM   13  C   UNL     1      40.478 -15.012   4.818  1.00  0.00     0.010 A 
HETATM   14  C   UNL     1      40.082 -13.984   5.676  1.00  0.00     0.001 A 
ENDROOT
BRANCH   5  15
HETATM   15  N   UNL     1      42.462 -16.618   3.039  1.00  0.00    -0.348 N 
HETATM   16  C   UNL     1      42.481 -17.873   2.463  1.00  0.00     0.252 C 
HETATM   17  O   UNL     1      41.840 -18.116   1.443  1.00  0.00    -0.268 OA
HETATM   18  H   UNL     1      42.831 -16.504   3.975  1.00  0.00     0.163 HD
BRANCH  16  19
HETATM   19  C   UNL     1      43.280 -18.933   3.140  1.00  0.00     0.032 A 
HETATM   20  C   UNL     1      43.613 -18.880   4.497  1.00  0.00     0.019 A 
HETATM   21  C   UNL     1      44.345 -19.923   5.079  1.00  0.00     0.024 A 
HETATM   22  C   UNL     1      44.799 -20.998   4.313  1.00  0.00     0.005 A 
HETATM   23  C   UNL     1      44.431 -21.064   2.968  1.00  0.00     0.024 A 
HETATM   24  C   UNL     1      43.699 -20.029   2.376  1.00  0.00     0.019 A 
BRANCH  22  25
HETATM   25  N   UNL     1      45.404 -22.097   4.929  1.00  0.00    -0.303 NA
HETATM   26  H   UNL     1      45.567 -22.889   4.315  1.00  0.00     0.124 HD
HETATM   27  H   UNL     1      44.974 -22.376   5.805  1.00  0.00     0.124 HD
ENDBRANCH  22  25
ENDBRANCH  16  19
ENDBRANCH   5  15
TORSDOF 3
ENDMDL
MODEL 8
REMARK VINA RESULT:      -7.0      3.255      6.443
REMARK  3 active torsions:
REMARK  status: ('A' for Active; 'I' for Inactive)
REMARK    1  A    between atoms: C_5  and  N_6 
REMARK       I    between atoms: N_6  and  C_7 
REMARK    2  A    between atoms: C_7  and  C_8 
REMARK    3  A    between atoms: C_11  and  N_12 
ROOT
HETATM    1  C   UNL     1      44.345 -14.044   7.632  1.00  0.00     0.001 A 
HETATM    2  C   UNL     1      44.009 -13.268   6.522  1.00  0.00     0.008 A 
HETATM    3  C   UNL     1      43.323 -13.870   5.475  1.00  0.00    -0.043 A 
HETATM    4  C   UNL     1      42.991 -15.225   5.519  1.00  0.00    -0.028 A 
HETATM    5  C   UNL     1      42.242 -15.657   4.295  1.00  0.00     0.125 C 
HETATM    6  C   UNL     1      42.315 -14.404   3.380  1.00  0.00     0.049 C 
HETATM    7  C   UNL     1      42.868 -13.220   4.208  1.00  0.00     0.053 C 
HETATM    8  C   UNL     1      40.937 -13.958   2.918  1.00  0.00     0.239 C 
HETATM    9  N   UNL     1      40.491 -13.005   3.983  1.00  0.00    -0.074 N 
HETATM   10  H   UNL     1      39.738 -12.388   3.648  1.00  0.00     0.277 HD
HETATM   11  H   UNL     1      40.112 -13.523   4.789  1.00  0.00     0.277 HD
HETATM   12  C   UNL     1      41.711 -12.241   4.391  1.00  0.00     0.242 C 
HETATM   13  C   UNL     1      43.308 -15.996   6.630  1.00  0.00     0.010 A 
HETATM   14  C   UNL     1      43.994 -15.398   7.688  1.00  0.00     0.001 A 
ENDROOT
BRANCH   5  15
HETATM   15  N   UNL     1      42.817 -16.826   3.671  1.00  0.00    -0.348 N 
HETATM   16  C   UNL     1      42.387 -18.084   4.045  1.00  0.00     0.252 C 
HETATM   17  O   UNL     1      41.426 -18.232   4.796  1.00  0.00    -0.268 OA
HETATM   18  H   UNL     1      43.720 -16.731   3.222  1.00  0.00     0.163 HD
BRANCH  16  19
HETATM   19  C   UNL     1      43.150 -19.258   3.533  1.00  0.00     0.032 A 
HETATM   20  C   UNL     1      44.065 -19.968   4.317  1.00  0.00     0.019 A 
HETATM   21  C   UNL     1      44.730 -21.079   3.783  1.00  0.00     0.024 A 
HETATM   22  C   UNL     1      44.537 -21.463   2.455  1.00  0.00     0.005 A 
HETATM   23  C   UNL     1      43.594 -20.773   1.690  1.00  0.00     0.024 A 
HETATM   24  C   UNL     1      42.923 -19.663   2.213  1.00  0.00     0.019 A 
BRANCH  22  25
HETATM   25  N   UNL     1      45.096 -22.651   1.977  1.00  0.00    -0.303 NA
HETATM   26  H   UNL     1      45.734 -22.533   1.196  1.00  0.00     0.124 HD
HETATM   27  H   UNL     1      44.424 -23.394   1.811  1.00  0.00     0.124 HD
ENDBRANCH  22  25
ENDBRANCH  16  19
ENDBRANCH   5  15
TORSDOF 3
ENDMDL
MODEL 9
REMARK VINA RESULT:      -6.9      2.291      3.133
REMARK  3 active torsions:
REMARK  status: ('A' for Active; 'I' for Inactive)
REMARK    1  A    between atoms: C_5  and  N_6 
REMARK       I    between atoms: N_6  and  C_7 
REMARK    2  A    between atoms: C_7  and  C_8 
REMARK    3  A    between atoms: C_11  and  N_12 
ROOT
HETATM    1  C   UNL     1      43.423 -18.217   5.213  1.00  0.00     0.001 A 
HETATM    2  C   UNL     1      43.898 -16.924   5.439  1.00  0.00     0.008 A 
HETATM    3  C   UNL     1      43.266 -15.865   4.802  1.00  0.00    -0.043 A 
HETATM    4  C   UNL     1      42.191 -16.082   3.940  1.00  0.00    -0.028 A 
HETATM    5  C   UNL     1      41.655 -14.800   3.378  1.00  0.00     0.125 C 
HETATM    6  C   UNL     1      42.681 -13.746   3.875  1.00  0.00     0.049 C 
HETATM    7  C   UNL     1      43.613 -14.414   4.914  1.00  0.00     0.053 C 
HETATM    8  C   UNL     1      42.007 -12.605   4.621  1.00  0.00     0.239 C 
HETATM    9  N   UNL     1      41.979 -13.071   6.043  1.00  0.00    -0.074 N 
HETATM   10  H   UNL     1      41.854 -12.286   6.697  1.00  0.00     0.277 HD
HETATM   11  H   UNL     1      41.185 -13.710   6.194  1.00  0.00     0.277 HD
HETATM   12  C   UNL     1      43.270 -13.794   6.266  1.00  0.00     0.242 C 
HETATM   13  C   UNL     1      41.704 -17.365   3.726  1.00  0.00     0.010 A 
HETATM   14  C   UNL     1      42.331 -18.436   4.364  1.00  0.00     0.001 A 
ENDROOT
BRANCH   5  15
HETATM   15  N   UNL     1      41.545 -14.823   1.938  1.00  0.00    -0.348 N 
HETATM   16  C   UNL     1      40.420 -14.304   1.328  1.00  0.00     0.252 C 
HETATM   17  O   UNL     1      39.570 -13.695   1.973  1.00  0.00    -0.268 OA
HETATM   18  H   UNL     1      42.118 -15.484   1.427  1.00  0.00     0.163 HD
BRANCH  16  19
HETATM   19  C   UNL     1      40.255 -14.537  -0.134  1.00  0.00     0.032 A 
HETATM   20  C   UNL     1      41.124 -15.346  -0.875  1.00  0.00     0.019 A 
HETATM   21  C   UNL     1      40.898 -15.546  -2.243  1.00  0.00     0.024 A 
HETATM   22  C   UNL     1      39.846 -14.905  -2.899  1.00  0.00     0.005 A 
HETATM   23  C   UNL     1      38.961 -14.130  -2.147  1.00  0.00     0.024 A 
HETATM   24  C   UNL     1      39.175 -13.925  -0.780  1.00  0.00     0.019 A 
BRANCH  22  25
HETATM   25  N   UNL     1      39.547 -15.221  -4.228  1.00  0.00    -0.303 NA
HETATM   26  H   UNL     1      39.350 -16.203  -4.394  1.00  0.00     0.124 HD
HETATM   27  H   UNL     1      40.202 -14.844  -4.906  1.00  0.00     0.124 HD
ENDBRANCH  22  25
ENDBRANCH  16  19
ENDBRANCH   5  15
TORSDOF 3
ENDMDL
MODEL 10
REMARK VINA RESULT:      -6.5      3.632      4.485
REMARK  3 active torsions:
REMARK  status: ('A' for Active; 'I' for Inactive)
REMARK    1  A    between atoms: C_5  and  N_6 
REMARK       I    between atoms: N_6  and  C_7 
REMARK    2  A    between atoms: C_7  and  C_8 
REMARK    3  A    between atoms: C_11  and  N_12 
ROOT
HETATM    1  C   UNL     1      43.888 -18.948   2.210  1.00  0.00     0.001 A 
HETATM    2  C   UNL     1      44.489 -18.514   3.392  1.00  0.00     0.008 A 
HETATM    3  C   UNL     1      43.683 -17.990   4.394  1.00  0.00    -0.043 A 
HETATM    4  C   UNL     1      42.302 -17.881   4.221  1.00  0.00    -0.028 A 
HETATM    5  C   UNL     1      41.631 -17.305   5.431  1.00  0.00     0.125 C 
HETATM    6  C   UNL     1      42.827 -16.890   6.330  1.00  0.00     0.049 C 
HETATM    7  C   UNL     1      44.125 -17.477   5.728  1.00  0.00     0.053 C 
HETATM    8  C   UNL     1      42.727 -17.493   7.722  1.00  0.00     0.239 C 
HETATM    9  N   UNL     1      43.432 -18.807   7.598  1.00  0.00    -0.074 N 
HETATM   10  H   UNL     1      43.724 -19.169   8.517  1.00  0.00     0.277 HD
HETATM   11  H   UNL     1      42.803 -19.512   7.189  1.00  0.00     0.277 HD
HETATM   12  C   UNL     1      44.595 -18.566   6.688  1.00  0.00     0.242 C 
HETATM   13  C   UNL     1      41.697 -18.329   3.054  1.00  0.00     0.010 A 
HETATM   14  C   UNL     1      42.500 -18.860   2.043  1.00  0.00     0.001 A 
ENDROOT
BRANCH   5  15
HETATM   15  N   UNL     1      40.769 -16.189   5.114  1.00  0.00    -0.348 N 
HETATM   16  C   UNL     1      41.310 -15.035   4.582  1.00  0.00     0.252 C 
HETATM   17  O   UNL     1      42.488 -14.983   4.238  1.00  0.00    -0.268 OA
HETATM   18  H   UNL     1      39.865 -16.142   5.568  1.00  0.00     0.163 HD
BRANCH  16  19
HETATM   19  C   UNL     1      40.422 -13.844   4.468  1.00  0.00     0.032 A 
HETATM   20  C   UNL     1      40.063 -13.281   3.239  1.00  0.00     0.019 A 
HETATM   21  C   UNL     1      39.203 -12.176   3.200  1.00  0.00     0.024 A 
HETATM   22  C   UNL     1      38.736 -11.586   4.376  1.00  0.00     0.005 A 
HETATM   23  C   UNL     1      39.067 -12.177   5.597  1.00  0.00     0.024 A 
HETATM   24  C   UNL     1      39.923 -13.281   5.648  1.00  0.00     0.019 A 
BRANCH  22  25
HETATM   25  N   UNL     1      37.770 -10.577   4.322  1.00  0.00    -0.303 NA
HETATM   26  H   UNL     1      37.767 -10.041   3.460  1.00  0.00     0.124 HD
HETATM   27  H   UNL     1      37.742  -9.979   5.142  1.00  0.00     0.124 HD
ENDBRANCH  22  25
ENDBRANCH  16  19
ENDBRANCH   5  15
TORSDOF 3
ENDMDL
