MODEL 1
REMARK VINA RESULT:      -8.7      0.000      0.000
REMARK  7 active torsions:
REMARK  status: ('A' for Active; 'I' for Inactive)
REMARK    1  A    between atoms: C_4  and  C_5 
REMARK    2  A    between atoms: C_5  and  C_6 
REMARK    3  A    between atoms: C_6  and  C_7 
REMARK    4  A    between atoms: C_7  and  N_8 
REMARK    5  A    between atoms: C_12  and  O_13 
REMARK    6  A    between atoms: C_12  and  C_14 
REMARK    7  A    between atoms: C_19  and  C_20 
REMARK       I    between atoms: C_20  and  N_21 
ROOT
HETATM    1  C   UNL     1      43.204 -15.531   5.919  1.00  0.00    -0.023 A 
HETATM    2  C   UNL     1      41.949 -15.782   5.316  1.00  0.00     0.024 A 
HETATM    3  C   UNL     1      41.462 -14.928   4.307  1.00  0.00     0.001 A 
HETATM    4  C   UNL     1      42.262 -13.882   3.877  1.00  0.00     0.086 A 
HETATM    5  O   UNL     1      41.615 -13.142   2.935  1.00  0.00    -0.304 OA
HETATM    6  C   UNL     1      40.377 -13.706   2.755  1.00  0.00     0.144 A 
HETATM    7  C   UNL     1      40.273 -14.839   3.543  1.00  0.00     0.057 A 
HETATM    8  C   UNL     1      43.545 -13.650   4.355  1.00  0.00     0.039 A 
HETATM    9  C   UNL     1      44.001 -14.502   5.375  1.00  0.00     0.013 A 
ENDROOT
BRANCH   1  10
HETATM   10  C   UNL     1      43.684 -16.377   7.112  1.00  0.00     0.088 C 
HETATM   11  C   UNL     1      45.044 -17.066   6.895  1.00  0.00     0.071 C 
HETATM   12  C   UNL     1      44.987 -18.095   5.779  1.00  0.00     0.238 C 
HETATM   13  N   UNL     1      43.926 -19.140   6.044  1.00  0.00    -0.071 N 
HETATM   14  H   UNL     1      44.256 -19.728   6.826  1.00  0.00     0.279 HD
HETATM   15  C   UNL     1      42.584 -18.565   6.459  1.00  0.00     0.238 C 
HETATM   16  C   UNL     1      42.731 -17.508   7.538  1.00  0.00     0.071 C 
BRANCH  13  17
HETATM   17  C   UNL     1      43.709 -20.072   4.852  1.00  0.00     0.235 C 
BRANCH  17  18
HETATM   18  C   UNL     1      44.974 -20.252   4.015  1.00  0.00     0.038 C 
BRANCH  18  19
HETATM   19  C   UNL     1      44.679 -20.126   2.504  1.00  0.00     0.040 C 
HETATM   20  C   UNL     1      43.949 -21.370   1.997  1.00  0.00     0.017 C 
BRANCH  19  21
HETATM   21  C   UNL     1      43.902 -18.897   2.168  1.00  0.00     0.057 A 
HETATM   22  O   UNL     1      42.567 -19.052   1.943  1.00  0.00    -0.319 OA
HETATM   23  C   UNL     1      42.068 -17.822   1.634  1.00  0.00     0.049 A 
HETATM   24  C   UNL     1      40.630 -17.749   1.302  1.00  0.00     0.076 C 
HETATM   25  C   UNL     1      43.070 -16.878   1.685  1.00  0.00     0.035 A 
HETATM   26  C   UNL     1      44.254 -17.571   2.031  1.00  0.00     0.035 A 
ENDBRANCH  19  21
ENDBRANCH  18  19
ENDBRANCH  17  18
ENDBRANCH  13  17
BRANCH  10  27
HETATM   27  O   UNL     1      43.832 -15.516   8.239  1.00  0.00    -0.385 OA
HETATM   28  H   UNL     1      44.300 -15.980   8.958  1.00  0.00     0.211 HD
ENDBRANCH  10  27
ENDBRANCH   1  10
BRANCH   6  29
HETATM   29  C   UNL     1      39.430 -13.163   1.797  1.00  0.00     0.277 C 
HETATM   30  N   UNL     1      39.717 -13.196   0.416  1.00  0.00    -0.345 N 
HETATM   31  C   UNL     1      38.676 -12.729  -0.506  1.00  0.00     0.154 C 
HETATM   32  C   UNL     1      40.984 -13.633  -0.168  1.00  0.00     0.128 C 
HETATM   33  C   UNL     1      38.217 -13.797  -1.512  1.00  0.00     0.254 C 
HETATM   34  N   UNL     1      39.310 -14.076  -2.539  1.00  0.00    -0.073 N 
HETATM   35  H   UNL     1      39.827 -13.199  -2.681  1.00  0.00     0.279 HD
HETATM   36  C   UNL     1      38.714 -14.390  -3.895  1.00  0.00     0.269 C 
HETATM   37  C   UNL     1      40.311 -15.137  -2.149  1.00  0.00     0.236 C 
HETATM   38  C   UNL     1      40.850 -15.042  -0.724  1.00  0.00     0.048 C 
HETATM   39  O   UNL     1      38.382 -12.648   2.186  1.00  0.00    -0.265 OA
ENDBRANCH   6  29
TORSDOF 7
ENDMDL
MODEL 2
REMARK VINA RESULT:      -8.7      1.631      2.027
REMARK  7 active torsions:
REMARK  status: ('A' for Active; 'I' for Inactive)
REMARK    1  A    between atoms: C_4  and  C_5 
REMARK    2  A    between atoms: C_5  and  C_6 
REMARK    3  A    between atoms: C_6  and  C_7 
REMARK    4  A    between atoms: C_7  and  N_8 
REMARK    5  A    between atoms: C_12  and  O_13 
REMARK    6  A    between atoms: C_12  and  C_14 
REMARK    7  A    between atoms: C_19  and  C_20 
REMARK       I    between atoms: C_20  and  N_21 
ROOT
HETATM    1  C   UNL     1      41.947 -15.219   4.723  1.00  0.00    -0.023 A 
HETATM    2  C   UNL     1      40.911 -14.803   3.853  1.00  0.00     0.024 A 
HETATM    3  C   UNL     1      41.184 -13.909   2.799  1.00  0.00     0.001 A 
HETATM    4  C   UNL     1      42.493 -13.501   2.594  1.00  0.00     0.086 A 
HETATM    5  O   UNL     1      42.560 -12.611   1.567  1.00  0.00    -0.304 OA
HETATM    6  C   UNL     1      41.282 -12.430   1.101  1.00  0.00     0.144 A 
HETATM    7  C   UNL     1      40.420 -13.257   1.801  1.00  0.00     0.057 A 
HETATM    8  C   UNL     1      43.566 -13.959   3.347  1.00  0.00     0.039 A 
HETATM    9  C   UNL     1      43.266 -14.833   4.405  1.00  0.00     0.013 A 
ENDROOT
BRANCH   1  10
HETATM   10  C   UNL     1      41.635 -16.086   5.955  1.00  0.00     0.088 C 
HETATM   11  C   UNL     1      42.812 -16.243   6.936  1.00  0.00     0.071 C 
HETATM   12  C   UNL     1      43.977 -16.989   6.309  1.00  0.00     0.238 C 
HETATM   13  N   UNL     1      43.556 -18.350   5.804  1.00  0.00    -0.071 N 
HETATM   14  H   UNL     1      43.371 -18.945   6.628  1.00  0.00     0.279 HD
HETATM   15  C   UNL     1      42.283 -18.334   4.978  1.00  0.00     0.238 C 
HETATM   16  C   UNL     1      41.185 -17.526   5.645  1.00  0.00     0.071 C 
BRANCH  13  17
HETATM   17  C   UNL     1      44.653 -19.042   4.996  1.00  0.00     0.235 C 
BRANCH  17  18
HETATM   18  C   UNL     1      44.118 -20.206   4.163  1.00  0.00     0.038 C 
BRANCH  18  19
HETATM   19  C   UNL     1      44.447 -20.030   2.665  1.00  0.00     0.040 C 
HETATM   20  C   UNL     1      44.027 -21.271   1.876  1.00  0.00     0.017 C 
BRANCH  19  21
HETATM   21  C   UNL     1      43.824 -18.808   2.076  1.00  0.00     0.057 A 
HETATM   22  O   UNL     1      42.466 -18.799   1.964  1.00  0.00    -0.319 OA
HETATM   23  C   UNL     1      42.119 -17.614   1.387  1.00  0.00     0.049 A 
HETATM   24  C   UNL     1      40.682 -17.395   1.122  1.00  0.00     0.076 C 
HETATM   25  C   UNL     1      43.245 -16.855   1.153  1.00  0.00     0.035 A 
HETATM   26  C   UNL     1      44.346 -17.625   1.598  1.00  0.00     0.035 A 
ENDBRANCH  19  21
ENDBRANCH  18  19
ENDBRANCH  17  18
ENDBRANCH  13  17
BRANCH  10  27
HETATM   27  O   UNL     1      40.572 -15.469   6.678  1.00  0.00    -0.385 OA
HETATM   28  H   UNL     1      40.885 -15.181   7.555  1.00  0.00     0.211 HD
ENDBRANCH  10  27
ENDBRANCH   1  10
BRANCH   6  29
HETATM   29  C   UNL     1      41.002 -11.545  -0.016  1.00  0.00     0.277 C 
HETATM   30  N   UNL     1      40.402 -12.047  -1.189  1.00  0.00    -0.345 N 
HETATM   31  C   UNL     1      40.049 -11.085  -2.238  1.00  0.00     0.154 C 
HETATM   32  C   UNL     1      40.129 -13.459  -1.455  1.00  0.00     0.128 C 
HETATM   33  C   UNL     1      38.550 -11.066  -2.581  1.00  0.00     0.254 C 
HETATM   34  N   UNL     1      38.148 -12.344  -3.312  1.00  0.00    -0.073 N 
HETATM   35  H   UNL     1      38.960 -12.646  -3.866  1.00  0.00     0.279 HD
HETATM   36  C   UNL     1      37.070 -12.066  -4.338  1.00  0.00     0.269 C 
HETATM   37  C   UNL     1      37.744 -13.498  -2.427  1.00  0.00     0.236 C 
HETATM   38  C   UNL     1      38.657 -13.763  -1.233  1.00  0.00     0.048 C 
HETATM   39  O   UNL     1      41.309 -10.354   0.046  1.00  0.00    -0.265 OA
ENDBRANCH   6  29
TORSDOF 7
ENDMDL
MODEL 3
REMARK VINA RESULT:      -8.7      1.963      2.880
REMARK  7 active torsions:
REMARK  status: ('A' for Active; 'I' for Inactive)
REMARK    1  A    between atoms: C_4  and  C_5 
REMARK    2  A    between atoms: C_5  and  C_6 
REMARK    3  A    between atoms: C_6  and  C_7 
REMARK    4  A    between atoms: C_7  and  N_8 
REMARK    5  A    between atoms: C_12  and  O_13 
REMARK    6  A    between atoms: C_12  and  C_14 
REMARK    7  A    between atoms: C_19  and  C_20 
REMARK       I    between atoms: C_20  and  N_21 
ROOT
HETATM    1  C   UNL     1      41.984 -15.340   4.603  1.00  0.00    -0.023 A 
HETATM    2  C   UNL     1      41.102 -15.894   3.645  1.00  0.00     0.024 A 
HETATM    3  C   UNL     1      41.191 -15.512   2.292  1.00  0.00     0.001 A 
HETATM    4  C   UNL     1      42.196 -14.637   1.912  1.00  0.00     0.086 A 
HETATM    5  O   UNL     1      42.101 -14.348   0.585  1.00  0.00    -0.304 OA
HETATM    6  C   UNL     1      41.019 -15.036   0.096  1.00  0.00     0.144 A 
HETATM    7  C   UNL     1      40.471 -15.805   1.108  1.00  0.00     0.057 A 
HETATM    8  C   UNL     1      43.156 -14.144   2.787  1.00  0.00     0.039 A 
HETATM    9  C   UNL     1      43.034 -14.523   4.134  1.00  0.00     0.013 A 
ENDROOT
BRANCH   1  10
HETATM   10  C   UNL     1      41.809 -15.648   6.100  1.00  0.00     0.088 C 
HETATM   11  C   UNL     1      43.067 -15.394   6.952  1.00  0.00     0.071 C 
HETATM   12  C   UNL     1      44.207 -16.322   6.569  1.00  0.00     0.238 C 
HETATM   13  N   UNL     1      43.803 -17.774   6.684  1.00  0.00    -0.071 N 
HETATM   14  H   UNL     1      43.710 -17.993   7.689  1.00  0.00     0.279 HD
HETATM   15  C   UNL     1      42.467 -18.095   6.038  1.00  0.00     0.238 C 
HETATM   16  C   UNL     1      41.395 -17.094   6.428  1.00  0.00     0.071 C 
BRANCH  13  17
HETATM   17  C   UNL     1      44.858 -18.724   6.119  1.00  0.00     0.235 C 
BRANCH  17  18
HETATM   18  C   UNL     1      44.330 -20.148   5.951  1.00  0.00     0.038 C 
BRANCH  18  19
HETATM   19  C   UNL     1      45.076 -20.901   4.828  1.00  0.00     0.040 C 
HETATM   20  C   UNL     1      45.097 -22.403   5.114  1.00  0.00     0.017 C 
BRANCH  19  21
HETATM   21  C   UNL     1      44.500 -20.640   3.476  1.00  0.00     0.057 A 
HETATM   22  O   UNL     1      44.393 -19.337   3.092  1.00  0.00    -0.319 OA
HETATM   23  C   UNL     1      43.827 -19.330   1.852  1.00  0.00     0.049 A 
HETATM   24  C   UNL     1      43.568 -18.009   1.242  1.00  0.00     0.076 C 
HETATM   25  C   UNL     1      43.596 -20.621   1.431  1.00  0.00     0.035 A 
HETATM   26  C   UNL     1      44.031 -21.468   2.478  1.00  0.00     0.035 A 
ENDBRANCH  19  21
ENDBRANCH  18  19
ENDBRANCH  17  18
ENDBRANCH  13  17
BRANCH  10  27
HETATM   27  O   UNL     1      40.784 -14.799   6.614  1.00  0.00    -0.385 OA
HETATM   28  H   UNL     1      41.130 -13.898   6.751  1.00  0.00     0.211 HD
ENDBRANCH  10  27
ENDBRANCH   1  10
BRANCH   6  29
HETATM   29  C   UNL     1      40.646 -14.960  -1.305  1.00  0.00     0.277 C 
HETATM   30  N   UNL     1      39.886 -13.872  -1.782  1.00  0.00    -0.345 N 
HETATM   31  C   UNL     1      39.632 -13.799  -3.225  1.00  0.00     0.154 C 
HETATM   32  C   UNL     1      39.306 -12.822  -0.945  1.00  0.00     0.128 C 
HETATM   33  C   UNL     1      40.176 -12.521  -3.885  1.00  0.00     0.254 C 
HETATM   34  N   UNL     1      39.361 -11.304  -3.458  1.00  0.00    -0.073 N 
HETATM   35  H   UNL     1      38.395 -11.622  -3.306  1.00  0.00     0.279 HD
HETATM   36  C   UNL     1      39.257 -10.298  -4.584  1.00  0.00     0.269 C 
HETATM   37  C   UNL     1      39.822 -10.627  -2.190  1.00  0.00     0.236 C 
HETATM   38  C   UNL     1      40.147 -11.558  -1.026  1.00  0.00     0.048 C 
HETATM   39  O   UNL     1      40.970 -15.859  -2.082  1.00  0.00    -0.265 OA
ENDBRANCH   6  29
TORSDOF 7
ENDMDL
MODEL 4
REMARK VINA RESULT:      -8.5      2.627      3.159
REMARK  7 active torsions:
REMARK  status: ('A' for Active; 'I' for Inactive)
REMARK    1  A    between atoms: C_4  and  C_5 
REMARK    2  A    between atoms: C_5  and  C_6 
REMARK    3  A    between atoms: C_6  and  C_7 
REMARK    4  A    between atoms: C_7  and  N_8 
REMARK    5  A    between atoms: C_12  and  O_13 
REMARK    6  A    between atoms: C_12  and  C_14 
REMARK    7  A    between atoms: C_19  and  C_20 
REMARK       I    between atoms: C_20  and  N_21 
ROOT
HETATM    1  C   UNL     1      41.942 -15.144   4.575  1.00  0.00    -0.023 A 
HETATM    2  C   UNL     1      40.933 -15.056   3.586  1.00  0.00     0.024 A 
HETATM    3  C   UNL     1      41.148 -14.299   2.417  1.00  0.00     0.001 A 
HETATM    4  C   UNL     1      42.384 -13.701   2.229  1.00  0.00     0.086 A 
HETATM    5  O   UNL     1      42.394 -12.980   1.074  1.00  0.00    -0.304 OA
HETATM    6  C   UNL     1      41.150 -13.103   0.507  1.00  0.00     0.144 A 
HETATM    7  C   UNL     1      40.378 -13.954   1.280  1.00  0.00     0.057 A 
HETATM    8  C   UNL     1      43.446 -13.840   3.112  1.00  0.00     0.039 A 
HETATM    9  C   UNL     1      43.202 -14.582   4.280  1.00  0.00     0.013 A 
ENDROOT
BRANCH   1  10
HETATM   10  C   UNL     1      41.669 -15.854   5.912  1.00  0.00     0.088 C 
HETATM   11  C   UNL     1      42.875 -15.888   6.870  1.00  0.00     0.071 C 
HETATM   12  C   UNL     1      44.024 -16.704   6.306  1.00  0.00     0.238 C 
HETATM   13  N   UNL     1      43.595 -18.118   5.983  1.00  0.00    -0.071 N 
HETATM   14  H   UNL     1      43.437 -18.608   6.878  1.00  0.00     0.279 HD
HETATM   15  C   UNL     1      42.299 -18.204   5.198  1.00  0.00     0.238 C 
HETATM   16  C   UNL     1      41.217 -17.321   5.793  1.00  0.00     0.071 C 
BRANCH  13  17
HETATM   17  C   UNL     1      44.672 -18.902   5.234  1.00  0.00     0.235 C 
BRANCH  17  18
HETATM   18  C   UNL     1      44.088 -20.038   4.395  1.00  0.00     0.038 C 
BRANCH  18  19
HETATM   19  C   UNL     1      44.529 -19.938   2.919  1.00  0.00     0.040 C 
HETATM   20  C   UNL     1      44.277 -21.261   2.195  1.00  0.00     0.017 C 
BRANCH  19  21
HETATM   21  C   UNL     1      43.865 -18.816   2.192  1.00  0.00     0.057 A 
HETATM   22  O   UNL     1      42.514 -18.896   2.033  1.00  0.00    -0.319 OA
HETATM   23  C   UNL     1      42.128 -17.794   1.331  1.00  0.00     0.049 A 
HETATM   24  C   UNL     1      40.693 -17.685   0.995  1.00  0.00     0.076 C 
HETATM   25  C   UNL     1      43.219 -16.997   1.064  1.00  0.00     0.035 A 
HETATM   26  C   UNL     1      44.341 -17.655   1.620  1.00  0.00     0.035 A 
ENDBRANCH  19  21
ENDBRANCH  18  19
ENDBRANCH  17  18
ENDBRANCH  13  17
BRANCH  10  27
HETATM   27  O   UNL     1      40.624 -15.155   6.585  1.00  0.00    -0.385 OA
HETATM   28  H   UNL     1      41.001 -14.487   7.187  1.00  0.00     0.211 HD
ENDBRANCH  10  27
ENDBRANCH   1  10
BRANCH   6  29
HETATM   29  C   UNL     1      40.829 -12.463  -0.757  1.00  0.00     0.277 C 
HETATM   30  N   UNL     1      40.986 -11.070  -0.910  1.00  0.00    -0.345 N 
HETATM   31  C   UNL     1      40.746 -10.500  -2.239  1.00  0.00     0.154 C 
HETATM   32  C   UNL     1      41.344 -10.143   0.163  1.00  0.00     0.128 C 
HETATM   33  C   UNL     1      41.966  -9.775  -2.831  1.00  0.00     0.254 C 
HETATM   34  N   UNL     1      42.237  -8.474  -2.081  1.00  0.00    -0.073 N 
HETATM   35  H   UNL     1      41.329  -8.111  -1.764  1.00  0.00     0.279 HD
HETATM   36  C   UNL     1      42.768  -7.409  -3.017  1.00  0.00     0.269 C 
HETATM   37  C   UNL     1      43.128  -8.598  -0.869  1.00  0.00     0.236 C 
HETATM   38  C   UNL     1      42.812  -9.763   0.065  1.00  0.00     0.048 C 
HETATM   39  O   UNL     1      40.393 -13.130  -1.695  1.00  0.00    -0.265 OA
ENDBRANCH   6  29
TORSDOF 7
ENDMDL
MODEL 5
REMARK VINA RESULT:      -8.5      4.832      7.974
REMARK  7 active torsions:
REMARK  status: ('A' for Active; 'I' for Inactive)
REMARK    1  A    between atoms: C_4  and  C_5 
REMARK    2  A    between atoms: C_5  and  C_6 
REMARK    3  A    between atoms: C_6  and  C_7 
REMARK    4  A    between atoms: C_7  and  N_8 
REMARK    5  A    between atoms: C_12  and  O_13 
REMARK    6  A    between atoms: C_12  and  C_14 
REMARK    7  A    between atoms: C_19  and  C_20 
REMARK       I    between atoms: C_20  and  N_21 
ROOT
HETATM    1  C   UNL     1      40.810 -15.139   4.165  1.00  0.00    -0.023 A 
HETATM    2  C   UNL     1      40.074 -14.693   5.288  1.00  0.00     0.024 A 
HETATM    3  C   UNL     1      39.945 -13.316   5.552  1.00  0.00     0.001 A 
HETATM    4  C   UNL     1      40.496 -12.412   4.658  1.00  0.00     0.086 A 
HETATM    5  O   UNL     1      40.313 -11.135   5.095  1.00  0.00    -0.304 OA
HETATM    6  C   UNL     1      39.642 -11.208   6.290  1.00  0.00     0.144 A 
HETATM    7  C   UNL     1      39.352 -12.532   6.571  1.00  0.00     0.057 A 
HETATM    8  C   UNL     1      41.136 -12.787   3.484  1.00  0.00     0.039 A 
HETATM    9  C   UNL     1      41.271 -14.166   3.253  1.00  0.00     0.013 A 
ENDROOT
BRANCH   1  10
HETATM   10  C   UNL     1      41.070 -16.639   3.942  1.00  0.00     0.088 C 
HETATM   11  C   UNL     1      40.946 -17.500   5.213  1.00  0.00     0.071 C 
HETATM   12  C   UNL     1      42.003 -17.145   6.244  1.00  0.00     0.238 C 
HETATM   13  N   UNL     1      43.399 -17.279   5.676  1.00  0.00    -0.071 N 
HETATM   14  H   UNL     1      43.588 -18.286   5.549  1.00  0.00     0.279 HD
HETATM   15  C   UNL     1      43.577 -16.623   4.319  1.00  0.00     0.238 C 
HETATM   16  C   UNL     1      42.454 -16.985   3.364  1.00  0.00     0.071 C 
BRANCH  13  17
HETATM   17  C   UNL     1      44.472 -16.741   6.622  1.00  0.00     0.235 C 
BRANCH  17  18
HETATM   18  C   UNL     1      43.994 -15.527   7.415  1.00  0.00     0.038 C 
BRANCH  18  19
HETATM   19  C   UNL     1      44.645 -14.223   6.905  1.00  0.00     0.040 C 
HETATM   20  C   UNL     1      43.716 -13.510   5.922  1.00  0.00     0.017 C 
BRANCH  19  21
HETATM   21  C   UNL     1      45.034 -13.300   8.011  1.00  0.00     0.057 A 
HETATM   22  O   UNL     1      44.383 -13.450   9.199  1.00  0.00    -0.319 OA
HETATM   23  C   UNL     1      44.873 -12.501  10.046  1.00  0.00     0.049 A 
HETATM   24  C   UNL     1      44.277 -12.440  11.397  1.00  0.00     0.076 C 
HETATM   25  C   UNL     1      45.850 -11.763   9.416  1.00  0.00     0.035 A 
HETATM   26  C   UNL     1      45.956 -12.278   8.103  1.00  0.00     0.035 A 
ENDBRANCH  19  21
ENDBRANCH  18  19
ENDBRANCH  17  18
ENDBRANCH  13  17
BRANCH  10  27
HETATM   27  O   UNL     1      40.102 -17.127   3.015  1.00  0.00    -0.385 OA
HETATM   28  H   UNL     1      39.511 -17.767   3.452  1.00  0.00     0.211 HD
ENDBRANCH  10  27
ENDBRANCH   1  10
BRANCH   6  29
HETATM   29  C   UNL     1      39.271 -10.010   7.022  1.00  0.00     0.277 C 
HETATM   30  N   UNL     1      39.681  -9.836   8.360  1.00  0.00    -0.345 N 
HETATM   31  C   UNL     1      39.365  -8.560   9.009  1.00  0.00     0.154 C 
HETATM   32  C   UNL     1      40.376 -10.843   9.162  1.00  0.00     0.128 C 
HETATM   33  C   UNL     1      40.604  -7.789   9.495  1.00  0.00     0.254 C 
HETATM   34  N   UNL     1      41.241  -8.491  10.691  1.00  0.00    -0.073 N 
HETATM   35  H   UNL     1      40.484  -8.944  11.218  1.00  0.00     0.279 HD
HETATM   36  C   UNL     1      41.830  -7.487  11.659  1.00  0.00     0.269 C 
HETATM   37  C   UNL     1      42.260  -9.552  10.352  1.00  0.00     0.236 C 
HETATM   38  C   UNL     1      41.859 -10.522   9.245  1.00  0.00     0.048 C 
HETATM   39  O   UNL     1      38.574  -9.148   6.486  1.00  0.00    -0.265 OA
ENDBRANCH   6  29
TORSDOF 7
ENDMDL
MODEL 6
REMARK VINA RESULT:      -8.5      5.545      8.511
REMARK  7 active torsions:
REMARK  status: ('A' for Active; 'I' for Inactive)
REMARK    1  A    between atoms: C_4  and  C_5 
REMARK    2  A    between atoms: C_5  and  C_6 
REMARK    3  A    between atoms: C_6  and  C_7 
REMARK    4  A    between atoms: C_7  and  N_8 
REMARK    5  A    between atoms: C_12  and  O_13 
REMARK    6  A    between atoms: C_12  and  C_14 
REMARK    7  A    between atoms: C_19  and  C_20 
REMARK       I    between atoms: C_20  and  N_21 
ROOT
HETATM    1  C   UNL     1      40.881 -12.395   4.669  1.00  0.00    -0.023 A 
HETATM    2  C   UNL     1      41.381 -11.404   5.547  1.00  0.00     0.024 A 
HETATM    3  C   UNL     1      40.699 -11.101   6.741  1.00  0.00     0.001 A 
HETATM    4  C   UNL     1      39.569 -11.836   7.067  1.00  0.00     0.086 A 
HETATM    5  O   UNL     1      39.020 -11.378   8.225  1.00  0.00    -0.304 OA
HETATM    6  C   UNL     1      39.794 -10.331   8.656  1.00  0.00     0.144 A 
HETATM    7  C   UNL     1      40.866 -10.171   7.795  1.00  0.00     0.057 A 
HETATM    8  C   UNL     1      39.092 -12.890   6.299  1.00  0.00     0.039 A 
HETATM    9  C   UNL     1      39.777 -13.159   5.103  1.00  0.00     0.013 A 
ENDROOT
BRANCH   1  10
HETATM   10  C   UNL     1      41.543 -12.638   3.302  1.00  0.00     0.088 C 
HETATM   11  C   UNL     1      40.724 -13.530   2.349  1.00  0.00     0.071 C 
HETATM   12  C   UNL     1      40.573 -14.943   2.885  1.00  0.00     0.238 C 
HETATM   13  N   UNL     1      41.918 -15.583   3.146  1.00  0.00    -0.071 N 
HETATM   14  H   UNL     1      42.356 -15.773   2.230  1.00  0.00     0.279 HD
HETATM   15  C   UNL     1      42.881 -14.701   3.919  1.00  0.00     0.238 C 
HETATM   16  C   UNL     1      42.935 -13.293   3.356  1.00  0.00     0.071 C 
BRANCH  13  17
HETATM   17  C   UNL     1      41.800 -16.925   3.867  1.00  0.00     0.235 C 
BRANCH  17  18
HETATM   18  C   UNL     1      43.094 -17.735   3.808  1.00  0.00     0.038 C 
BRANCH  18  19
HETATM   19  C   UNL     1      43.229 -18.494   2.471  1.00  0.00     0.040 C 
HETATM   20  C   UNL     1      44.149 -17.734   1.515  1.00  0.00     0.017 C 
BRANCH  19  21
HETATM   21  C   UNL     1      43.710 -19.896   2.648  1.00  0.00     0.057 A 
HETATM   22  O   UNL     1      44.162 -20.242   3.886  1.00  0.00    -0.319 OA
HETATM   23  C   UNL     1      44.568 -21.541   3.814  1.00  0.00     0.049 A 
HETATM   24  C   UNL     1      45.146 -22.129   5.041  1.00  0.00     0.076 C 
HETATM   25  C   UNL     1      44.355 -22.034   2.546  1.00  0.00     0.035 A 
HETATM   26  C   UNL     1      43.800 -20.973   1.792  1.00  0.00     0.035 A 
ENDBRANCH  19  21
ENDBRANCH  18  19
ENDBRANCH  17  18
ENDBRANCH  13  17
BRANCH  10  27
HETATM   27  O   UNL     1      41.705 -11.378   2.653  1.00  0.00    -0.385 OA
HETATM   28  H   UNL     1      40.855 -10.902   2.625  1.00  0.00     0.211 HD
ENDBRANCH  10  27
ENDBRANCH   1  10
BRANCH   6  29
HETATM   29  C   UNL     1      39.489  -9.621   9.886  1.00  0.00     0.277 C 
HETATM   30  N   UNL     1      39.930 -10.125  11.127  1.00  0.00    -0.345 N 
HETATM   31  C   UNL     1      39.682  -9.310  12.320  1.00  0.00     0.154 C 
HETATM   32  C   UNL     1      40.591 -11.416  11.322  1.00  0.00     0.128 C 
HETATM   33  C   UNL     1      40.962  -8.908  13.071  1.00  0.00     0.254 C 
HETATM   34  N   UNL     1      41.587 -10.117  13.760  1.00  0.00    -0.073 N 
HETATM   35  H   UNL     1      40.818 -10.744  14.031  1.00  0.00     0.279 HD
HETATM   36  C   UNL     1      42.236  -9.722  15.068  1.00  0.00     0.269 C 
HETATM   37  C   UNL     1      42.551 -10.917  12.917  1.00  0.00     0.236 C 
HETATM   38  C   UNL     1      42.088 -11.221  11.495  1.00  0.00     0.048 C 
HETATM   39  O   UNL     1      38.823  -8.586   9.855  1.00  0.00    -0.265 OA
ENDBRANCH   6  29
TORSDOF 7
ENDMDL
MODEL 7
REMARK VINA RESULT:      -8.4      5.856      8.713
REMARK  7 active torsions:
REMARK  status: ('A' for Active; 'I' for Inactive)
REMARK    1  A    between atoms: C_4  and  C_5 
REMARK    2  A    between atoms: C_5  and  C_6 
REMARK    3  A    between atoms: C_6  and  C_7 
REMARK    4  A    between atoms: C_7  and  N_8 
REMARK    5  A    between atoms: C_12  and  O_13 
REMARK    6  A    between atoms: C_12  and  C_14 
REMARK    7  A    between atoms: C_19  and  C_20 
REMARK       I    between atoms: C_20  and  N_21 
ROOT
HETATM    1  C   UNL     1      41.219 -12.619   5.468  1.00  0.00    -0.023 A 
HETATM    2  C   UNL     1      41.863 -11.777   6.405  1.00  0.00     0.024 A 
HETATM    3  C   UNL     1      41.125 -11.165   7.436  1.00  0.00     0.001 A 
HETATM    4  C   UNL     1      39.775 -11.456   7.552  1.00  0.00     0.086 A 
HETATM    5  O   UNL     1      39.219 -10.745   8.571  1.00  0.00    -0.304 OA
HETATM    6  C   UNL     1      40.215  -9.978   9.121  1.00  0.00     0.144 A 
HETATM    7  C   UNL     1      41.411 -10.254   8.483  1.00  0.00     0.057 A 
HETATM    8  C   UNL     1      39.111 -12.355   6.729  1.00  0.00     0.039 A 
HETATM    9  C   UNL     1      39.863 -12.937   5.695  1.00  0.00     0.013 A 
ENDROOT
BRANCH   1  10
HETATM   10  C   UNL     1      41.988 -13.183   4.261  1.00  0.00     0.088 C 
HETATM   11  C   UNL     1      41.307 -14.385   3.579  1.00  0.00     0.071 C 
HETATM   12  C   UNL     1      41.232 -15.591   4.498  1.00  0.00     0.238 C 
HETATM   13  N   UNL     1      42.602 -15.999   4.991  1.00  0.00    -0.071 N 
HETATM   14  H   UNL     1      43.113 -16.403   4.191  1.00  0.00     0.279 HD
HETATM   15  C   UNL     1      43.438 -14.844   5.511  1.00  0.00     0.238 C 
HETATM   16  C   UNL     1      43.421 -13.660   4.562  1.00  0.00     0.071 C 
BRANCH  13  17
HETATM   17  C   UNL     1      42.540 -17.080   6.069  1.00  0.00     0.235 C 
BRANCH  17  18
HETATM   18  C   UNL     1      42.737 -18.484   5.499  1.00  0.00     0.038 C 
BRANCH  18  19
HETATM   19  C   UNL     1      44.183 -18.697   5.002  1.00  0.00     0.040 C 
HETATM   20  C   UNL     1      45.182 -18.409   6.122  1.00  0.00     0.017 C 
BRANCH  19  21
HETATM   21  C   UNL     1      44.407 -20.065   4.448  1.00  0.00     0.057 A 
HETATM   22  O   UNL     1      44.162 -20.241   3.119  1.00  0.00    -0.319 OA
HETATM   23  C   UNL     1      44.406 -21.552   2.837  1.00  0.00     0.049 A 
HETATM   24  C   UNL     1      44.161 -21.994   1.449  1.00  0.00     0.076 C 
HETATM   25  C   UNL     1      44.830 -22.208   3.971  1.00  0.00     0.035 A 
HETATM   26  C   UNL     1      44.833 -21.249   5.011  1.00  0.00     0.035 A 
ENDBRANCH  19  21
ENDBRANCH  18  19
ENDBRANCH  17  18
ENDBRANCH  13  17
BRANCH  10  27
HETATM   27  O   UNL     1      42.095 -12.155   3.278  1.00  0.00    -0.385 OA
HETATM   28  H   UNL     1      41.243 -11.691   3.183  1.00  0.00     0.211 HD
ENDBRANCH  10  27
ENDBRANCH   1  10
BRANCH   6  29
HETATM   29  C   UNL     1      39.958  -9.105  10.254  1.00  0.00     0.277 C 
HETATM   30  N   UNL     1      40.154  -9.569  11.571  1.00  0.00    -0.345 N 
HETATM   31  C   UNL     1      39.980  -8.608  12.664  1.00  0.00     0.154 C 
HETATM   32  C   UNL     1      40.491 -10.945  11.934  1.00  0.00     0.128 C 
HETATM   33  C   UNL     1      41.239  -8.417  13.526  1.00  0.00     0.254 C 
HETATM   34  N   UNL     1      41.511  -9.660  14.368  1.00  0.00    -0.073 N 
HETATM   35  H   UNL     1      40.600 -10.080  14.595  1.00  0.00     0.279 HD
HETATM   36  C   UNL     1      42.103  -9.287  15.710  1.00  0.00     0.269 C 
HETATM   37  C   UNL     1      42.351 -10.723  13.702  1.00  0.00     0.236 C 
HETATM   38  C   UNL     1      41.971 -11.057  12.263  1.00  0.00     0.048 C 
HETATM   39  O   UNL     1      39.544  -7.959  10.071  1.00  0.00    -0.265 OA
ENDBRANCH   6  29
TORSDOF 7
ENDMDL
MODEL 8
REMARK VINA RESULT:      -8.3      4.034      7.101
REMARK  7 active torsions:
REMARK  status: ('A' for Active; 'I' for Inactive)
REMARK    1  A    between atoms: C_4  and  C_5 
REMARK    2  A    between atoms: C_5  and  C_6 
REMARK    3  A    between atoms: C_6  and  C_7 
REMARK    4  A    between atoms: C_7  and  N_8 
REMARK    5  A    between atoms: C_12  and  O_13 
REMARK    6  A    between atoms: C_12  and  C_14 
REMARK    7  A    between atoms: C_19  and  C_20 
REMARK       I    between atoms: C_20  and  N_21 
ROOT
HETATM    1  C   UNL     1      41.052 -14.506   2.075  1.00  0.00    -0.023 A 
HETATM    2  C   UNL     1      39.886 -14.037   2.725  1.00  0.00     0.024 A 
HETATM    3  C   UNL     1      39.938 -12.888   3.538  1.00  0.00     0.001 A 
HETATM    4  C   UNL     1      41.135 -12.195   3.636  1.00  0.00     0.086 A 
HETATM    5  O   UNL     1      41.010 -11.145   4.494  1.00  0.00    -0.304 OA
HETATM    6  C   UNL     1      39.722 -11.158   4.966  1.00  0.00     0.144 A 
HETATM    7  C   UNL     1      39.021 -12.184   4.355  1.00  0.00     0.057 A 
HETATM    8  C   UNL     1      42.283 -12.546   2.939  1.00  0.00     0.039 A 
HETATM    9  C   UNL     1      42.212 -13.706   2.150  1.00  0.00     0.013 A 
ENDROOT
BRANCH   1  10
HETATM   10  C   UNL     1      41.036 -15.832   1.295  1.00  0.00     0.088 C 
HETATM   11  C   UNL     1      40.465 -17.026   2.083  1.00  0.00     0.071 C 
HETATM   12  C   UNL     1      41.325 -17.376   3.285  1.00  0.00     0.238 C 
HETATM   13  N   UNL     1      42.751 -17.674   2.878  1.00  0.00    -0.071 N 
HETATM   14  H   UNL     1      42.750 -18.576   2.377  1.00  0.00     0.279 HD
HETATM   15  C   UNL     1      43.350 -16.646   1.935  1.00  0.00     0.238 C 
HETATM   16  C   UNL     1      42.410 -16.311   0.791  1.00  0.00     0.071 C 
BRANCH  13  17
HETATM   17  C   UNL     1      43.683 -17.835   4.078  1.00  0.00     0.235 C 
BRANCH  17  18
HETATM   18  C   UNL     1      42.920 -17.963   5.396  1.00  0.00     0.038 C 
BRANCH  18  19
HETATM   19  C   UNL     1      43.710 -17.350   6.572  1.00  0.00     0.040 C 
HETATM   20  C   UNL     1      45.141 -17.888   6.593  1.00  0.00     0.017 C 
BRANCH  19  21
HETATM   21  C   UNL     1      43.719 -15.857   6.546  1.00  0.00     0.057 A 
HETATM   22  O   UNL     1      44.578 -15.230   7.398  1.00  0.00    -0.319 OA
HETATM   23  C   UNL     1      44.403 -13.889   7.226  1.00  0.00     0.049 A 
HETATM   24  C   UNL     1      45.206 -12.995   8.087  1.00  0.00     0.076 C 
HETATM   25  C   UNL     1      43.458 -13.656   6.252  1.00  0.00     0.035 A 
HETATM   26  C   UNL     1      43.016 -14.926   5.811  1.00  0.00     0.035 A 
ENDBRANCH  19  21
ENDBRANCH  18  19
ENDBRANCH  17  18
ENDBRANCH  13  17
BRANCH  10  27
HETATM   27  O   UNL     1      40.212 -15.663   0.144  1.00  0.00    -0.385 OA
HETATM   28  H   UNL     1      39.784 -16.507  -0.091  1.00  0.00     0.211 HD
ENDBRANCH  10  27
ENDBRANCH   1  10
BRANCH   6  29
HETATM   29  C   UNL     1      39.249 -10.150   5.899  1.00  0.00     0.277 C 
HETATM   30  N   UNL     1      39.654 -10.183   7.249  1.00  0.00    -0.345 N 
HETATM   31  C   UNL     1      39.228  -9.079   8.115  1.00  0.00     0.154 C 
HETATM   32  C   UNL     1      40.445 -11.249   7.862  1.00  0.00     0.128 C 
HETATM   33  C   UNL     1      40.396  -8.298   8.741  1.00  0.00     0.254 C 
HETATM   34  N   UNL     1      41.105  -9.141   9.795  1.00  0.00    -0.073 N 
HETATM   35  H   UNL     1      40.397  -9.749  10.226  1.00  0.00     0.279 HD
HETATM   36  C   UNL     1      41.608  -8.277  10.932  1.00  0.00     0.269 C 
HETATM   37  C   UNL     1      42.214 -10.026   9.279  1.00  0.00     0.236 C 
HETATM   38  C   UNL     1      41.894 -10.813   8.012  1.00  0.00     0.048 C 
HETATM   39  O   UNL     1      38.470  -9.273   5.521  1.00  0.00    -0.265 OA
ENDBRANCH   6  29
TORSDOF 7
ENDMDL
MODEL 9
REMARK VINA RESULT:      -8.3      5.647      7.998
REMARK  7 active torsions:
REMARK  status: ('A' for Active; 'I' for Inactive)
REMARK    1  A    between atoms: C_4  and  C_5 
REMARK    2  A    between atoms: C_5  and  C_6 
REMARK    3  A    between atoms: C_6  and  C_7 
REMARK    4  A    between atoms: C_7  and  N_8 
REMARK    5  A    between atoms: C_12  and  O_13 
REMARK    6  A    between atoms: C_12  and  C_14 
REMARK    7  A    between atoms: C_19  and  C_20 
REMARK       I    between atoms: C_20  and  N_21 
ROOT
HETATM    1  C   UNL     1      39.738  -9.949   9.406  1.00  0.00    -0.023 A 
HETATM    2  C   UNL     1      39.444 -11.189   8.790  1.00  0.00     0.024 A 
HETATM    3  C   UNL     1      39.625 -11.355   7.403  1.00  0.00     0.001 A 
HETATM    4  C   UNL     1      40.156 -10.305   6.671  1.00  0.00     0.086 A 
HETATM    5  O   UNL     1      40.219 -10.628   5.350  1.00  0.00    -0.304 OA
HETATM    6  C   UNL     1      39.717 -11.898   5.218  1.00  0.00     0.144 A 
HETATM    7  C   UNL     1      39.396 -12.395   6.470  1.00  0.00     0.057 A 
HETATM    8  C   UNL     1      40.562  -9.104   7.236  1.00  0.00     0.039 A 
HETATM    9  C   UNL     1      40.352  -8.954   8.617  1.00  0.00     0.013 A 
ENDROOT
BRANCH   1  10
HETATM   10  C   UNL     1      39.417  -9.716  10.892  1.00  0.00     0.088 C 
HETATM   11  C   UNL     1      40.046  -8.441  11.486  1.00  0.00     0.071 C 
HETATM   12  C   UNL     1      41.563  -8.510  11.496  1.00  0.00     0.238 C 
HETATM   13  N   UNL     1      42.058  -9.719  12.256  1.00  0.00    -0.071 N 
HETATM   14  H   UNL     1      41.870  -9.557  13.258  1.00  0.00     0.279 HD
HETATM   15  C   UNL     1      41.358 -11.013  11.880  1.00  0.00     0.238 C 
HETATM   16  C   UNL     1      39.850 -10.849  11.841  1.00  0.00     0.071 C 
BRANCH  13  17
HETATM   17  C   UNL     1      43.567  -9.924  12.117  1.00  0.00     0.235 C 
BRANCH  17  18
HETATM   18  C   UNL     1      43.961 -10.431  10.731  1.00  0.00     0.038 C 
BRANCH  18  19
HETATM   19  C   UNL     1      44.962 -11.603  10.818  1.00  0.00     0.040 C 
HETATM   20  C   UNL     1      44.360 -12.763  11.611  1.00  0.00     0.017 C 
BRANCH  19  21
HETATM   21  C   UNL     1      45.419 -12.074   9.477  1.00  0.00     0.057 A 
HETATM   22  O   UNL     1      44.720 -13.097   8.911  1.00  0.00    -0.319 OA
HETATM   23  C   UNL     1      45.316 -13.378   7.718  1.00  0.00     0.049 A 
HETATM   24  C   UNL     1      44.752 -14.497   6.936  1.00  0.00     0.076 C 
HETATM   25  C   UNL     1      46.375 -12.523   7.507  1.00  0.00     0.035 A 
HETATM   26  C   UNL     1      46.442 -11.680   8.641  1.00  0.00     0.035 A 
ENDBRANCH  19  21
ENDBRANCH  18  19
ENDBRANCH  17  18
ENDBRANCH  13  17
BRANCH  10  27
HETATM   27  O   UNL     1      38.003  -9.583  11.029  1.00  0.00    -0.385 OA
HETATM   28  H   UNL     1      37.564  -9.769  10.179  1.00  0.00     0.211 HD
ENDBRANCH  10  27
ENDBRANCH   1  10
BRANCH   6  29
HETATM   29  C   UNL     1      39.657 -12.557   3.925  1.00  0.00     0.277 C 
HETATM   30  N   UNL     1      40.637 -13.502   3.560  1.00  0.00    -0.345 N 
HETATM   31  C   UNL     1      40.461 -14.209   2.287  1.00  0.00     0.154 C 
HETATM   32  C   UNL     1      41.834 -13.814   4.341  1.00  0.00     0.128 C 
HETATM   33  C   UNL     1      40.362 -15.736   2.436  1.00  0.00     0.254 C 
HETATM   34  N   UNL     1      41.712 -16.329   2.830  1.00  0.00    -0.073 N 
HETATM   35  H   UNL     1      42.439 -15.742   2.402  1.00  0.00     0.279 HD
HETATM   36  C   UNL     1      41.908 -17.694   2.207  1.00  0.00     0.269 C 
HETATM   37  C   UNL     1      41.986 -16.385   4.314  1.00  0.00     0.236 C 
HETATM   38  C   UNL     1      41.646 -15.120   5.096  1.00  0.00     0.048 C 
HETATM   39  O   UNL     1      38.761 -12.275   3.128  1.00  0.00    -0.265 OA
ENDBRANCH   6  29
TORSDOF 7
ENDMDL
MODEL 10
REMARK VINA RESULT:      -8.2      2.238      7.545
REMARK  7 active torsions:
REMARK  status: ('A' for Active; 'I' for Inactive)
REMARK    1  A    between atoms: C_4  and  C_5 
REMARK    2  A    between atoms: C_5  and  C_6 
REMARK    3  A    between atoms: C_6  and  C_7 
REMARK    4  A    between atoms: C_7  and  N_8 
REMARK    5  A    between atoms: C_12  and  O_13 
REMARK    6  A    between atoms: C_12  and  C_14 
REMARK    7  A    between atoms: C_19  and  C_20 
REMARK       I    between atoms: C_20  and  N_21 
ROOT
HETATM    1  C   UNL     1      40.967 -12.000   4.470  1.00  0.00    -0.023 A 
HETATM    2  C   UNL     1      42.094 -12.747   4.054  1.00  0.00     0.024 A 
HETATM    3  C   UNL     1      42.342 -14.022   4.599  1.00  0.00     0.001 A 
HETATM    4  C   UNL     1      41.428 -14.552   5.496  1.00  0.00     0.086 A 
HETATM    5  O   UNL     1      41.850 -15.765   5.947  1.00  0.00    -0.304 OA
HETATM    6  C   UNL     1      43.055 -16.025   5.345  1.00  0.00     0.144 A 
HETATM    7  C   UNL     1      43.359 -14.999   4.467  1.00  0.00     0.057 A 
HETATM    8  C   UNL     1      40.250 -13.913   5.859  1.00  0.00     0.039 A 
HETATM    9  C   UNL     1      40.035 -12.633   5.320  1.00  0.00     0.013 A 
ENDROOT
BRANCH   1  10
HETATM   10  C   UNL     1      40.761 -10.555   3.983  1.00  0.00     0.088 C 
HETATM   11  C   UNL     1      39.377  -9.964   4.314  1.00  0.00     0.071 C 
HETATM   12  C   UNL     1      38.260 -10.702   3.598  1.00  0.00     0.238 C 
HETATM   13  N   UNL     1      38.466 -10.700   2.100  1.00  0.00    -0.071 N 
HETATM   14  H   UNL     1      38.302  -9.738   1.764  1.00  0.00     0.279 HD
HETATM   15  C   UNL     1      39.870 -11.085   1.670  1.00  0.00     0.238 C 
HETATM   16  C   UNL     1      40.928 -10.344   2.468  1.00  0.00     0.071 C 
BRANCH  13  17
HETATM   17  C   UNL     1      37.469 -11.599   1.368  1.00  0.00     0.235 C 
BRANCH  17  18
HETATM   18  C   UNL     1      37.987 -12.055   0.005  1.00  0.00     0.038 C 
BRANCH  18  19
HETATM   19  C   UNL     1      37.886 -13.587  -0.158  1.00  0.00     0.040 C 
HETATM   20  C   UNL     1      38.056 -13.981  -1.625  1.00  0.00     0.017 C 
BRANCH  19  21
HETATM   21  C   UNL     1      38.868 -14.323   0.693  1.00  0.00     0.057 A 
HETATM   22  O   UNL     1      40.163 -14.338   0.270  1.00  0.00    -0.319 OA
HETATM   23  C   UNL     1      40.870 -15.076   1.171  1.00  0.00     0.049 A 
HETATM   24  C   UNL     1      42.308 -15.272   0.893  1.00  0.00     0.076 C 
HETATM   25  C   UNL     1      40.040 -15.512   2.180  1.00  0.00     0.035 A 
HETATM   26  C   UNL     1      38.747 -15.025   1.873  1.00  0.00     0.035 A 
ENDBRANCH  19  21
ENDBRANCH  18  19
ENDBRANCH  17  18
ENDBRANCH  13  17
BRANCH  10  27
HETATM   27  O   UNL     1      41.729  -9.725   4.624  1.00  0.00    -0.385 OA
HETATM   28  H   UNL     1      42.120  -9.107   3.980  1.00  0.00     0.211 HD
ENDBRANCH  10  27
ENDBRANCH   1  10
BRANCH   6  29
HETATM   29  C   UNL     1      43.777 -17.260   5.600  1.00  0.00     0.277 C 
HETATM   30  N   UNL     1      43.464 -18.430   4.877  1.00  0.00    -0.345 N 
HETATM   31  C   UNL     1      44.298 -19.614   5.105  1.00  0.00     0.154 C 
HETATM   32  C   UNL     1      42.352 -18.564   3.936  1.00  0.00     0.128 C 
HETATM   33  C   UNL     1      45.005 -20.126   3.839  1.00  0.00     0.254 C 
HETATM   34  N   UNL     1      44.001 -20.749   2.874  1.00  0.00    -0.073 N 
HETATM   35  H   UNL     1      43.253 -21.169   3.442  1.00  0.00     0.279 HD
HETATM   36  C   UNL     1      44.614 -21.915   2.130  1.00  0.00     0.269 C 
HETATM   37  C   UNL     1      43.353 -19.790   1.904  1.00  0.00     0.236 C 
HETATM   38  C   UNL     1      42.859 -18.478   2.505  1.00  0.00     0.048 C 
HETATM   39  O   UNL     1      44.651 -17.299   6.467  1.00  0.00    -0.265 OA
ENDBRANCH   6  29
TORSDOF 7
ENDMDL
