MODEL 1
REMARK VINA RESULT:     -10.4      0.000      0.000
REMARK  6 active torsions:
REMARK  status: ('A' for Active; 'I' for Inactive)
REMARK    1  A    between atoms: C_5  and  N_6 
REMARK       I    between atoms: N_6  and  C_7 
REMARK    2  A    between atoms: C_7  and  C_8 
REMARK    3  A    between atoms: C_8  and  S_9 
REMARK    4  A    between atoms: S_9  and  C_10 
REMARK    5  A    between atoms: N_15  and  C_17 
REMARK    6  A    between atoms: C_17  and  C_18 
ROOT
HETATM    1  C   UNL     1      40.984 -13.411   5.350  1.00  0.00     0.169 A 
HETATM    2  N   UNL     1      40.423 -14.381   4.716  1.00  0.00    -0.228 NA
HETATM    3  C   UNL     1      41.203 -15.141   3.888  1.00  0.00     0.052 A 
HETATM    4  C   UNL     1      42.525 -14.963   3.749  1.00  0.00     0.060 A 
HETATM    5  C   UNL     1      43.405 -15.833   2.927  1.00  0.00     0.281 C 
HETATM    6  N   UNL     1      42.711 -17.136   2.545  1.00  0.00    -0.063 N 
HETATM    7  H   UNL     1      42.600 -17.665   3.419  1.00  0.00     0.280 HD
HETATM    8  C   UNL     1      41.321 -16.860   2.017  1.00  0.00     0.241 C 
HETATM    9  C   UNL     1      40.473 -16.218   3.120  1.00  0.00     0.088 C 
HETATM   10  C   UNL     1      43.153 -13.854   4.491  1.00  0.00     0.257 A 
HETATM   11  O   UNL     1      44.353 -13.640   4.392  1.00  0.00    -0.267 OA
HETATM   12  N   UNL     1      42.308 -13.117   5.263  1.00  0.00    -0.302 N 
HETATM   13  H   UNL     1      42.687 -12.348   5.797  1.00  0.00     0.171 HD
ENDROOT
BRANCH   1  14
HETATM   14  S   UNL     1      40.113 -12.346   6.404  1.00  0.00    -0.083 SA
BRANCH  14  15
HETATM   15  C   UNL     1      40.917 -10.752   6.015  1.00  0.00     0.185 C 
BRANCH  15  16
HETATM   16  C   UNL     1      41.715 -10.222   7.202  1.00  0.00     0.231 C 
HETATM   17  N   UNL     1      42.115 -11.232   8.066  1.00  0.00    -0.326 N 
HETATM   18  H   UNL     1      42.083 -12.162   7.662  1.00  0.00     0.169 HD
HETATM   19  O   UNL     1      41.959  -9.024   7.314  1.00  0.00    -0.272 OA
BRANCH  17  20
HETATM   20  C   UNL     1      42.950 -11.093   9.199  1.00  0.00     0.041 C 
HETATM   21  C   UNL     1      42.543 -10.665  10.481  1.00  0.00    -0.029 C 
HETATM   22  C   UNL     1      43.534 -10.438  11.473  1.00  0.00    -0.054 C 
HETATM   23  C   UNL     1      41.093 -10.510  10.864  1.00  0.00     0.051 C 
HETATM   24  C   UNL     1      43.184  -9.922  12.846  1.00  0.00     0.049 C 
HETATM   25  C   UNL     1      44.875 -10.760  11.212  1.00  0.00     0.007 C 
HETATM   26  C   UNL     1      45.249 -11.280   9.981  1.00  0.00     0.003 C 
HETATM   27  C   UNL     1      44.293 -11.444   8.983  1.00  0.00     0.030 C 
ENDBRANCH  17  20
ENDBRANCH  15  16
ENDBRANCH  14  15
ENDBRANCH   1  14
BRANCH   6  28
HETATM   28  C   UNL     1      43.538 -18.009   1.632  1.00  0.00     0.273 C 
BRANCH  28  29
HETATM   29  C   UNL     1      43.791 -19.372   2.224  1.00  0.00    -0.030 A 
HETATM   30  C   UNL     1      44.208 -19.496   3.562  1.00  0.00     0.048 A 
HETATM   31  C   UNL     1      44.531 -20.753   4.029  1.00  0.00     0.105 A 
HETATM   32  C   UNL     1      44.429 -21.870   3.240  1.00  0.00     0.105 A 
HETATM   33  O   UNL     1      44.995 -21.035   5.274  1.00  0.00    -0.323 OA
HETATM   34  O   UNL     1      44.810 -22.999   3.890  1.00  0.00    -0.323 OA
HETATM   35  C   UNL     1      43.989 -21.796   1.937  1.00  0.00     0.040 A 
HETATM   36  C   UNL     1      45.185 -22.465   5.177  1.00  0.00     0.352 A 
HETATM   37  C   UNL     1      43.671 -20.533   1.424  1.00  0.00     0.012 A 
ENDBRANCH  28  29
ENDBRANCH   6  28
TORSDOF 6
ENDMDL
MODEL 2
REMARK VINA RESULT:     -10.3      4.403      9.055
REMARK  6 active torsions:
REMARK  status: ('A' for Active; 'I' for Inactive)
REMARK    1  A    between atoms: C_5  and  N_6 
REMARK       I    between atoms: N_6  and  C_7 
REMARK    2  A    between atoms: C_7  and  C_8 
REMARK    3  A    between atoms: C_8  and  S_9 
REMARK    4  A    between atoms: S_9  and  C_10 
REMARK    5  A    between atoms: N_15  and  C_17 
REMARK    6  A    between atoms: C_17  and  C_18 
ROOT
HETATM    1  C   UNL     1      42.091 -16.194   5.271  1.00  0.00     0.169 A 
HETATM    2  N   UNL     1      41.218 -16.404   4.349  1.00  0.00    -0.228 NA
HETATM    3  C   UNL     1      41.258 -15.610   3.236  1.00  0.00     0.052 A 
HETATM    4  C   UNL     1      42.191 -14.667   3.034  1.00  0.00     0.060 A 
HETATM    5  C   UNL     1      42.308 -13.857   1.794  1.00  0.00     0.281 C 
HETATM    6  N   UNL     1      41.481 -14.445   0.656  1.00  0.00    -0.063 N 
HETATM    7  H   UNL     1      41.935 -15.333   0.406  1.00  0.00     0.280 HD
HETATM    8  C   UNL     1      40.087 -14.784   1.135  1.00  0.00     0.241 C 
HETATM    9  C   UNL     1      40.166 -15.860   2.222  1.00  0.00     0.088 C 
HETATM   10  C   UNL     1      43.189 -14.447   4.096  1.00  0.00     0.257 A 
HETATM   11  O   UNL     1      44.055 -13.592   3.969  1.00  0.00    -0.267 OA
HETATM   12  N   UNL     1      43.062 -15.247   5.190  1.00  0.00    -0.302 N 
HETATM   13  H   UNL     1      43.724 -15.142   5.947  1.00  0.00     0.171 HD
ENDROOT
BRANCH   1  14
HETATM   14  S   UNL     1      42.137 -17.099   6.749  1.00  0.00    -0.083 SA
BRANCH  14  15
HETATM   15  C   UNL     1      43.929 -17.080   7.102  1.00  0.00     0.185 C 
BRANCH  15  16
HETATM   16  C   UNL     1      44.663 -18.176   6.336  1.00  0.00     0.231 C 
HETATM   17  N   UNL     1      43.804 -19.152   5.852  1.00  0.00    -0.326 N 
HETATM   18  H   UNL     1      42.830 -18.868   5.816  1.00  0.00     0.169 HD
HETATM   19  O   UNL     1      45.881 -18.132   6.184  1.00  0.00    -0.272 OA
BRANCH  17  20
HETATM   20  C   UNL     1      44.147 -20.243   5.019  1.00  0.00     0.041 C 
HETATM   21  C   UNL     1      44.109 -20.253   3.609  1.00  0.00    -0.029 C 
HETATM   22  C   UNL     1      44.344 -21.476   2.927  1.00  0.00    -0.054 C 
HETATM   23  C   UNL     1      43.902 -19.002   2.792  1.00  0.00     0.051 C 
HETATM   24  C   UNL     1      44.259 -21.581   1.425  1.00  0.00     0.049 C 
HETATM   25  C   UNL     1      44.732 -22.617   3.646  1.00  0.00     0.007 C 
HETATM   26  C   UNL     1      44.869 -22.569   5.026  1.00  0.00     0.003 C 
HETATM   27  C   UNL     1      44.578 -21.390   5.707  1.00  0.00     0.030 C 
ENDBRANCH  17  20
ENDBRANCH  15  16
ENDBRANCH  14  15
ENDBRANCH   1  14
BRANCH   6  28
HETATM   28  C   UNL     1      41.499 -13.602  -0.595  1.00  0.00     0.273 C 
BRANCH  28  29
HETATM   29  C   UNL     1      40.629 -14.179  -1.683  1.00  0.00    -0.030 A 
HETATM   30  C   UNL     1      39.421 -13.550  -2.032  1.00  0.00     0.048 A 
HETATM   31  C   UNL     1      38.606 -14.170  -2.956  1.00  0.00     0.105 A 
HETATM   32  C   UNL     1      38.957 -15.353  -3.555  1.00  0.00     0.105 A 
HETATM   33  O   UNL     1      37.390 -13.720  -3.362  1.00  0.00    -0.323 OA
HETATM   34  O   UNL     1      38.007 -15.796  -4.419  1.00  0.00    -0.323 OA
HETATM   35  C   UNL     1      40.148 -15.982  -3.269  1.00  0.00     0.040 A 
HETATM   36  C   UNL     1      37.006 -14.766  -4.284  1.00  0.00     0.352 A 
HETATM   37  C   UNL     1      40.990 -15.391  -2.320  1.00  0.00     0.012 A 
ENDBRANCH  28  29
ENDBRANCH   6  28
TORSDOF 6
ENDMDL
MODEL 3
REMARK VINA RESULT:     -10.0      2.027      2.852
REMARK  6 active torsions:
REMARK  status: ('A' for Active; 'I' for Inactive)
REMARK    1  A    between atoms: C_5  and  N_6 
REMARK       I    between atoms: N_6  and  C_7 
REMARK    2  A    between atoms: C_7  and  C_8 
REMARK    3  A    between atoms: C_8  and  S_9 
REMARK    4  A    between atoms: S_9  and  C_10 
REMARK    5  A    between atoms: N_15  and  C_17 
REMARK    6  A    between atoms: C_17  and  C_18 
ROOT
HETATM    1  C   UNL     1      41.891 -13.332   5.379  1.00  0.00     0.169 A 
HETATM    2  N   UNL     1      43.088 -13.761   5.580  1.00  0.00    -0.228 NA
HETATM    3  C   UNL     1      43.242 -15.047   6.021  1.00  0.00     0.052 A 
HETATM    4  C   UNL     1      42.218 -15.895   6.198  1.00  0.00     0.060 A 
HETATM    5  C   UNL     1      42.370 -17.321   6.588  1.00  0.00     0.281 C 
HETATM    6  N   UNL     1      43.809 -17.798   6.429  1.00  0.00    -0.063 N 
HETATM    7  H   UNL     1      43.995 -17.805   5.418  1.00  0.00     0.280 HD
HETATM    8  C   UNL     1      44.768 -16.805   7.045  1.00  0.00     0.241 C 
HETATM    9  C   UNL     1      44.665 -15.467   6.306  1.00  0.00     0.088 C 
HETATM   10  C   UNL     1      40.855 -15.391   5.953  1.00  0.00     0.257 A 
HETATM   11  O   UNL     1      39.884 -16.118   6.109  1.00  0.00    -0.267 OA
HETATM   12  N   UNL     1      40.777 -14.092   5.554  1.00  0.00    -0.302 N 
HETATM   13  H   UNL     1      39.867 -13.696   5.367  1.00  0.00     0.171 HD
ENDROOT
BRANCH   1  14
HETATM   14  S   UNL     1      41.544 -11.717   4.854  1.00  0.00    -0.083 SA
BRANCH  14  15
HETATM   15  C   UNL     1      40.665 -11.066   6.318  1.00  0.00     0.185 C 
BRANCH  15  16
HETATM   16  C   UNL     1      41.632 -10.463   7.330  1.00  0.00     0.231 C 
HETATM   17  N   UNL     1      41.988 -11.361   8.326  1.00  0.00    -0.326 N 
HETATM   18  H   UNL     1      41.804 -12.332   8.095  1.00  0.00     0.169 HD
HETATM   19  O   UNL     1      42.029  -9.307   7.211  1.00  0.00    -0.272 OA
BRANCH  17  20
HETATM   20  C   UNL     1      42.939 -11.152   9.352  1.00  0.00     0.041 C 
HETATM   21  C   UNL     1      42.664 -10.674  10.651  1.00  0.00    -0.029 C 
HETATM   22  C   UNL     1      43.753 -10.381  11.515  1.00  0.00    -0.054 C 
HETATM   23  C   UNL     1      41.262 -10.530  11.185  1.00  0.00     0.051 C 
HETATM   24  C   UNL     1      43.544  -9.809  12.894  1.00  0.00     0.049 C 
HETATM   25  C   UNL     1      45.064 -10.688  11.121  1.00  0.00     0.007 C 
HETATM   26  C   UNL     1      45.314 -11.257   9.880  1.00  0.00     0.003 C 
HETATM   27  C   UNL     1      44.258 -11.486   9.003  1.00  0.00     0.030 C 
ENDBRANCH  17  20
ENDBRANCH  15  16
ENDBRANCH  14  15
ENDBRANCH   1  14
BRANCH   6  28
HETATM   28  C   UNL     1      44.026 -19.215   6.901  1.00  0.00     0.273 C 
BRANCH  28  29
HETATM   29  C   UNL     1      44.265 -20.167   5.757  1.00  0.00    -0.030 A 
HETATM   30  C   UNL     1      44.157 -19.718   4.428  1.00  0.00     0.048 A 
HETATM   31  C   UNL     1      44.279 -20.645   3.415  1.00  0.00     0.105 A 
HETATM   32  C   UNL     1      44.529 -21.970   3.670  1.00  0.00     0.105 A 
HETATM   33  O   UNL     1      44.151 -20.384   2.088  1.00  0.00    -0.323 OA
HETATM   34  O   UNL     1      44.596 -22.711   2.533  1.00  0.00    -0.323 OA
HETATM   35  C   UNL     1      44.679 -22.443   4.955  1.00  0.00     0.040 A 
HETATM   36  C   UNL     1      44.340 -21.705   1.531  1.00  0.00     0.352 A 
HETATM   37  C   UNL     1      44.542 -21.532   6.008  1.00  0.00     0.012 A 
ENDBRANCH  28  29
ENDBRANCH   6  28
TORSDOF 6
ENDMDL
MODEL 4
REMARK VINA RESULT:      -9.9      4.352      9.326
REMARK  6 active torsions:
REMARK  status: ('A' for Active; 'I' for Inactive)
REMARK    1  A    between atoms: C_5  and  N_6 
REMARK       I    between atoms: N_6  and  C_7 
REMARK    2  A    between atoms: C_7  and  C_8 
REMARK    3  A    between atoms: C_8  and  S_9 
REMARK    4  A    between atoms: S_9  and  C_10 
REMARK    5  A    between atoms: N_15  and  C_17 
REMARK    6  A    between atoms: C_17  and  C_18 
ROOT
HETATM    1  C   UNL     1      41.685 -16.419   5.925  1.00  0.00     0.169 A 
HETATM    2  N   UNL     1      41.779 -16.851   4.715  1.00  0.00    -0.228 NA
HETATM    3  C   UNL     1      41.071 -16.198   3.745  1.00  0.00     0.052 A 
HETATM    4  C   UNL     1      40.333 -15.102   3.980  1.00  0.00     0.060 A 
HETATM    5  C   UNL     1      39.630 -14.325   2.926  1.00  0.00     0.281 C 
HETATM    6  N   UNL     1      40.117 -14.699   1.530  1.00  0.00    -0.063 N 
HETATM    7  H   UNL     1      41.086 -14.364   1.469  1.00  0.00     0.280 HD
HETATM    8  C   UNL     1      40.160 -16.202   1.370  1.00  0.00     0.241 C 
HETATM    9  C   UNL     1      41.169 -16.794   2.360  1.00  0.00     0.088 C 
HETATM   10  C   UNL     1      40.244 -14.616   5.368  1.00  0.00     0.257 A 
HETATM   11  O   UNL     1      39.576 -13.628   5.640  1.00  0.00    -0.267 OA
HETATM   12  N   UNL     1      40.943 -15.339   6.285  1.00  0.00    -0.302 N 
HETATM   13  H   UNL     1      40.921 -15.046   7.252  1.00  0.00     0.171 HD
ENDROOT
BRANCH   1  14
HETATM   14  S   UNL     1      42.498 -17.170   7.259  1.00  0.00    -0.083 SA
BRANCH  14  15
HETATM   15  C   UNL     1      44.242 -16.859   6.811  1.00  0.00     0.185 C 
BRANCH  15  16
HETATM   16  C   UNL     1      44.890 -18.094   6.193  1.00  0.00     0.231 C 
HETATM   17  N   UNL     1      43.959 -18.964   5.644  1.00  0.00    -0.326 N 
HETATM   18  H   UNL     1      43.051 -18.546   5.472  1.00  0.00     0.169 HD
HETATM   19  O   UNL     1      46.110 -18.234   6.197  1.00  0.00    -0.272 OA
BRANCH  17  20
HETATM   20  C   UNL     1      44.232 -20.141   4.909  1.00  0.00     0.041 C 
HETATM   21  C   UNL     1      44.217 -20.262   3.504  1.00  0.00    -0.029 C 
HETATM   22  C   UNL     1      44.370 -21.551   2.927  1.00  0.00    -0.054 C 
HETATM   23  C   UNL     1      44.118 -19.071   2.586  1.00  0.00     0.051 C 
HETATM   24  C   UNL     1      44.303 -21.771   1.437  1.00  0.00     0.049 C 
HETATM   25  C   UNL     1      44.659 -22.655   3.744  1.00  0.00     0.007 C 
HETATM   26  C   UNL     1      44.776 -22.506   5.118  1.00  0.00     0.003 C 
HETATM   27  C   UNL     1      44.564 -21.257   5.696  1.00  0.00     0.030 C 
ENDBRANCH  17  20
ENDBRANCH  15  16
ENDBRANCH  14  15
ENDBRANCH   1  14
BRANCH   6  28
HETATM   28  C   UNL     1      39.364 -13.999   0.426  1.00  0.00     0.273 C 
BRANCH  28  29
HETATM   29  C   UNL     1      40.277 -13.197  -0.467  1.00  0.00    -0.030 A 
HETATM   30  C   UNL     1      39.932 -12.972  -1.812  1.00  0.00     0.048 A 
HETATM   31  C   UNL     1      40.845 -12.326  -2.619  1.00  0.00     0.105 A 
HETATM   32  C   UNL     1      42.051 -11.881  -2.139  1.00  0.00     0.105 A 
HETATM   33  O   UNL     1      40.687 -12.077  -3.945  1.00  0.00    -0.323 OA
HETATM   34  O   UNL     1      42.803 -11.288  -3.102  1.00  0.00    -0.323 OA
HETATM   35  C   UNL     1      42.410 -12.049  -0.820  1.00  0.00     0.040 A 
HETATM   36  C   UNL     1      41.943 -11.428  -4.252  1.00  0.00     0.352 A 
HETATM   37  C   UNL     1      41.515 -12.717   0.023  1.00  0.00     0.012 A 
ENDBRANCH  28  29
ENDBRANCH   6  28
TORSDOF 6
ENDMDL
MODEL 5
REMARK VINA RESULT:      -9.8      4.332      9.427
REMARK  6 active torsions:
REMARK  status: ('A' for Active; 'I' for Inactive)
REMARK    1  A    between atoms: C_5  and  N_6 
REMARK       I    between atoms: N_6  and  C_7 
REMARK    2  A    between atoms: C_7  and  C_8 
REMARK    3  A    between atoms: C_8  and  S_9 
REMARK    4  A    between atoms: S_9  and  C_10 
REMARK    5  A    between atoms: N_15  and  C_17 
REMARK    6  A    between atoms: C_17  and  C_18 
ROOT
HETATM    1  C   UNL     1      41.649 -16.255   5.813  1.00  0.00     0.169 A 
HETATM    2  N   UNL     1      41.816 -16.604   4.586  1.00  0.00    -0.228 NA
HETATM    3  C   UNL     1      41.119 -15.925   3.625  1.00  0.00     0.052 A 
HETATM    4  C   UNL     1      40.318 -14.882   3.892  1.00  0.00     0.060 A 
HETATM    5  C   UNL     1      39.624 -14.073   2.857  1.00  0.00     0.281 C 
HETATM    6  N   UNL     1      40.188 -14.336   1.464  1.00  0.00    -0.063 N 
HETATM    7  H   UNL     1      41.141 -13.954   1.468  1.00  0.00     0.280 HD
HETATM    8  C   UNL     1      40.312 -15.823   1.215  1.00  0.00     0.241 C 
HETATM    9  C   UNL     1      41.304 -16.428   2.213  1.00  0.00     0.088 C 
HETATM   10  C   UNL     1      40.146 -14.488   5.302  1.00  0.00     0.257 A 
HETATM   11  O   UNL     1      39.420 -13.551   5.603  1.00  0.00    -0.267 OA
HETATM   12  N   UNL     1      40.840 -15.235   6.204  1.00  0.00    -0.302 N 
HETATM   13  H   UNL     1      40.763 -15.005   7.185  1.00  0.00     0.171 HD
ENDROOT
BRANCH   1  14
HETATM   14  S   UNL     1      42.440 -17.049   7.135  1.00  0.00    -0.083 SA
BRANCH  14  15
HETATM   15  C   UNL     1      44.192 -16.767   6.701  1.00  0.00     0.185 C 
BRANCH  15  16
HETATM   16  C   UNL     1      44.841 -18.029   6.141  1.00  0.00     0.231 C 
HETATM   17  N   UNL     1      43.924 -18.868   5.523  1.00  0.00    -0.326 N 
HETATM   18  H   UNL     1      43.049 -18.417   5.276  1.00  0.00     0.169 HD
HETATM   19  O   UNL     1      46.050 -18.215   6.244  1.00  0.00    -0.272 OA
BRANCH  17  20
HETATM   20  C   UNL     1      44.211 -20.059   4.817  1.00  0.00     0.041 C 
HETATM   21  C   UNL     1      44.164 -20.224   3.417  1.00  0.00    -0.029 C 
HETATM   22  C   UNL     1      44.338 -21.526   2.875  1.00  0.00    -0.054 C 
HETATM   23  C   UNL     1      44.010 -19.065   2.466  1.00  0.00     0.051 C 
HETATM   24  C   UNL     1      44.239 -21.794   1.395  1.00  0.00     0.049 C 
HETATM   25  C   UNL     1      44.677 -22.596   3.717  1.00  0.00     0.007 C 
HETATM   26  C   UNL     1      44.825 -22.401   5.083  1.00  0.00     0.003 C 
HETATM   27  C   UNL     1      44.593 -21.142   5.628  1.00  0.00     0.030 C 
ENDBRANCH  17  20
ENDBRANCH  15  16
ENDBRANCH  14  15
ENDBRANCH   1  14
BRANCH   6  28
HETATM   28  C   UNL     1      39.449 -13.604   0.371  1.00  0.00     0.273 C 
BRANCH  28  29
HETATM   29  C   UNL     1      40.209 -12.397  -0.120  1.00  0.00    -0.030 A 
HETATM   30  C   UNL     1      41.606 -12.453  -0.269  1.00  0.00     0.048 A 
HETATM   31  C   UNL     1      42.271 -11.296  -0.618  1.00  0.00     0.105 A 
HETATM   32  C   UNL     1      41.607 -10.118  -0.846  1.00  0.00     0.105 A 
HETATM   33  O   UNL     1      43.617 -11.171  -0.753  1.00  0.00    -0.323 OA
HETATM   34  O   UNL     1      42.451  -9.101  -1.161  1.00  0.00    -0.323 OA
HETATM   35  C   UNL     1      40.236 -10.030  -0.747  1.00  0.00     0.040 A 
HETATM   36  C   UNL     1      43.728  -9.768  -1.085  1.00  0.00     0.352 A 
HETATM   37  C   UNL     1      39.531 -11.181  -0.376  1.00  0.00     0.012 A 
ENDBRANCH  28  29
ENDBRANCH   6  28
TORSDOF 6
ENDMDL
MODEL 6
REMARK VINA RESULT:      -9.8      5.233      9.745
REMARK  6 active torsions:
REMARK  status: ('A' for Active; 'I' for Inactive)
REMARK    1  A    between atoms: C_5  and  N_6 
REMARK       I    between atoms: N_6  and  C_7 
REMARK    2  A    between atoms: C_7  and  C_8 
REMARK    3  A    between atoms: C_8  and  S_9 
REMARK    4  A    between atoms: S_9  and  C_10 
REMARK    5  A    between atoms: N_15  and  C_17 
REMARK    6  A    between atoms: C_17  and  C_18 
ROOT
HETATM    1  C   UNL     1      40.787 -14.870   4.246  1.00  0.00     0.169 A 
HETATM    2  N   UNL     1      39.753 -14.937   3.482  1.00  0.00    -0.228 NA
HETATM    3  C   UNL     1      39.813 -14.312   2.267  1.00  0.00     0.052 A 
HETATM    4  C   UNL     1      40.908 -13.686   1.811  1.00  0.00     0.060 A 
HETATM    5  C   UNL     1      41.025 -13.081   0.459  1.00  0.00     0.281 C 
HETATM    6  N   UNL     1      39.905 -13.547  -0.465  1.00  0.00    -0.063 N 
HETATM    7  H   UNL     1      40.074 -14.546  -0.634  1.00  0.00     0.280 HD
HETATM    8  C   UNL     1      38.566 -13.439   0.230  1.00  0.00     0.241 C 
HETATM    9  C   UNL     1      38.545 -14.367   1.448  1.00  0.00     0.088 C 
HETATM   10  C   UNL     1      42.087 -13.628   2.694  1.00  0.00     0.257 A 
HETATM   11  O   UNL     1      43.109 -13.061   2.333  1.00  0.00    -0.267 OA
HETATM   12  N   UNL     1      41.940 -14.237   3.902  1.00  0.00    -0.302 N 
HETATM   13  H   UNL     1      42.719 -14.232   4.546  1.00  0.00     0.171 HD
ENDROOT
BRANCH   1  14
HETATM   14  S   UNL     1      40.840 -15.583   5.825  1.00  0.00    -0.083 SA
BRANCH  14  15
HETATM   15  C   UNL     1      42.509 -16.329   5.804  1.00  0.00     0.185 C 
BRANCH  15  16
HETATM   16  C   UNL     1      42.493 -17.720   5.179  1.00  0.00     0.231 C 
HETATM   17  N   UNL     1      43.769 -18.205   4.931  1.00  0.00    -0.326 N 
HETATM   18  H   UNL     1      44.503 -17.725   5.442  1.00  0.00     0.169 HD
HETATM   19  O   UNL     1      41.434 -18.301   4.961  1.00  0.00    -0.272 OA
BRANCH  17  20
HETATM   20  C   UNL     1      44.106 -19.494   4.456  1.00  0.00     0.041 C 
HETATM   21  C   UNL     1      44.049 -19.922   3.113  1.00  0.00    -0.029 C 
HETATM   22  C   UNL     1      44.280 -21.293   2.822  1.00  0.00    -0.054 C 
HETATM   23  C   UNL     1      43.827 -18.971   1.964  1.00  0.00     0.051 C 
HETATM   24  C   UNL     1      44.177 -21.839   1.421  1.00  0.00     0.049 C 
HETATM   25  C   UNL     1      44.683 -22.169   3.842  1.00  0.00     0.007 C 
HETATM   26  C   UNL     1      44.837 -21.713   5.144  1.00  0.00     0.003 C 
HETATM   27  C   UNL     1      44.550 -20.385   5.447  1.00  0.00     0.030 C 
ENDBRANCH  17  20
ENDBRANCH  15  16
ENDBRANCH  14  15
ENDBRANCH   1  14
BRANCH   6  28
HETATM   28  C   UNL     1      39.933 -12.884  -1.821  1.00  0.00     0.273 C 
BRANCH  28  29
HETATM   29  C   UNL     1      38.855 -13.411  -2.735  1.00  0.00    -0.030 A 
HETATM   30  C   UNL     1      37.825 -12.561  -3.177  1.00  0.00     0.048 A 
HETATM   31  C   UNL     1      36.803 -13.110  -3.923  1.00  0.00     0.105 A 
HETATM   32  C   UNL     1      36.785 -14.438  -4.262  1.00  0.00     0.105 A 
HETATM   33  O   UNL     1      35.714 -12.439  -4.381  1.00  0.00    -0.323 OA
HETATM   34  O   UNL     1      35.683 -14.772  -4.984  1.00  0.00    -0.323 OA
HETATM   35  C   UNL     1      37.793 -15.296  -3.881  1.00  0.00     0.040 A 
HETATM   36  C   UNL     1      34.997 -13.505  -5.045  1.00  0.00     0.352 A 
HETATM   37  C   UNL     1      38.836 -14.776  -3.106  1.00  0.00     0.012 A 
ENDBRANCH  28  29
ENDBRANCH   6  28
TORSDOF 6
ENDMDL
MODEL 7
REMARK VINA RESULT:      -9.7      2.488      9.741
REMARK  6 active torsions:
REMARK  status: ('A' for Active; 'I' for Inactive)
REMARK    1  A    between atoms: C_5  and  N_6 
REMARK       I    between atoms: N_6  and  C_7 
REMARK    2  A    between atoms: C_7  and  C_8 
REMARK    3  A    between atoms: C_8  and  S_9 
REMARK    4  A    between atoms: S_9  and  C_10 
REMARK    5  A    between atoms: N_15  and  C_17 
REMARK    6  A    between atoms: C_17  and  C_18 
ROOT
HETATM    1  C   UNL     1      41.430 -15.853   3.203  1.00  0.00     0.169 A 
HETATM    2  N   UNL     1      41.603 -16.276   4.407  1.00  0.00    -0.228 NA
HETATM    3  C   UNL     1      42.495 -15.608   5.199  1.00  0.00     0.052 A 
HETATM    4  C   UNL     1      43.152 -14.506   4.806  1.00  0.00     0.060 A 
HETATM    5  C   UNL     1      44.054 -13.713   5.680  1.00  0.00     0.281 C 
HETATM    6  N   UNL     1      43.884 -14.082   7.149  1.00  0.00    -0.063 N 
HETATM    7  H   UNL     1      42.946 -13.758   7.416  1.00  0.00     0.280 HD
HETATM    8  C   UNL     1      43.895 -15.585   7.322  1.00  0.00     0.241 C 
HETATM    9  C   UNL     1      42.705 -16.195   6.575  1.00  0.00     0.088 C 
HETATM   10  C   UNL     1      42.934 -14.029   3.428  1.00  0.00     0.257 A 
HETATM   11  O   UNL     1      43.515 -13.035   3.014  1.00  0.00    -0.267 OA
HETATM   12  N   UNL     1      42.063 -14.767   2.687  1.00  0.00    -0.302 N 
HETATM   13  H   UNL     1      41.873 -14.481   1.737  1.00  0.00     0.171 HD
ENDROOT
BRANCH   1  14
HETATM   14  S   UNL     1      40.358 -16.622   2.079  1.00  0.00    -0.083 SA
BRANCH  14  15
HETATM   15  C   UNL     1      41.544 -17.164   0.798  1.00  0.00     0.185 C 
BRANCH  15  16
HETATM   16  C   UNL     1      42.805 -17.758   1.417  1.00  0.00     0.231 C 
HETATM   17  N   UNL     1      42.525 -18.635   2.456  1.00  0.00    -0.326 N 
HETATM   18  H   UNL     1      41.568 -18.973   2.467  1.00  0.00     0.169 HD
HETATM   19  O   UNL     1      43.917 -17.466   0.986  1.00  0.00    -0.272 OA
BRANCH  17  20
HETATM   20  C   UNL     1      43.455 -19.426   3.168  1.00  0.00     0.041 C 
HETATM   21  C   UNL     1      43.796 -20.765   2.879  1.00  0.00    -0.029 C 
HETATM   22  C   UNL     1      44.640 -21.465   3.781  1.00  0.00    -0.054 C 
HETATM   23  C   UNL     1      43.360 -21.460   1.614  1.00  0.00     0.051 C 
HETATM   24  C   UNL     1      44.999 -22.915   3.575  1.00  0.00     0.049 C 
HETATM   25  C   UNL     1      45.222 -20.791   4.866  1.00  0.00     0.007 C 
HETATM   26  C   UNL     1      44.963 -19.444   5.081  1.00  0.00     0.003 C 
HETATM   27  C   UNL     1      44.086 -18.769   4.237  1.00  0.00     0.030 C 
ENDBRANCH  17  20
ENDBRANCH  15  16
ENDBRANCH  14  15
ENDBRANCH   1  14
BRANCH   6  28
HETATM   28  C   UNL     1      44.848 -13.366   8.063  1.00  0.00     0.273 C 
BRANCH  28  29
HETATM   29  C   UNL     1      44.149 -12.394   8.980  1.00  0.00    -0.030 A 
HETATM   30  C   UNL     1      44.258 -12.534  10.375  1.00  0.00     0.048 A 
HETATM   31  C   UNL     1      43.517 -11.690  11.174  1.00  0.00     0.105 A 
HETATM   32  C   UNL     1      42.711 -10.713  10.648  1.00  0.00     0.105 A 
HETATM   33  O   UNL     1      43.473 -11.727  12.532  1.00  0.00    -0.323 OA
HETATM   34  O   UNL     1      42.060 -10.007  11.608  1.00  0.00    -0.323 OA
HETATM   35  C   UNL     1      42.605 -10.519   9.288  1.00  0.00     0.040 A 
HETATM   36  C   UNL     1      42.532 -10.662  12.803  1.00  0.00     0.352 A 
HETATM   37  C   UNL     1      43.328 -11.372   8.447  1.00  0.00     0.012 A 
ENDBRANCH  28  29
ENDBRANCH   6  28
TORSDOF 6
ENDMDL
MODEL 8
REMARK VINA RESULT:      -9.4      4.394      9.072
REMARK  6 active torsions:
REMARK  status: ('A' for Active; 'I' for Inactive)
REMARK    1  A    between atoms: C_5  and  N_6 
REMARK       I    between atoms: N_6  and  C_7 
REMARK    2  A    between atoms: C_7  and  C_8 
REMARK    3  A    between atoms: C_8  and  S_9 
REMARK    4  A    between atoms: S_9  and  C_10 
REMARK    5  A    between atoms: N_15  and  C_17 
REMARK    6  A    between atoms: C_17  and  C_18 
ROOT
HETATM    1  C   UNL     1      40.749 -15.649   4.296  1.00  0.00     0.169 A 
HETATM    2  N   UNL     1      41.380 -16.223   3.332  1.00  0.00    -0.228 NA
HETATM    3  C   UNL     1      41.159 -15.770   2.061  1.00  0.00     0.052 A 
HETATM    4  C   UNL     1      40.365 -14.727   1.776  1.00  0.00     0.060 A 
HETATM    5  C   UNL     1      40.182 -14.161   0.414  1.00  0.00     0.281 C 
HETATM    6  N   UNL     1      41.246 -14.668  -0.554  1.00  0.00    -0.063 N 
HETATM    7  H   UNL     1      42.134 -14.256  -0.240  1.00  0.00     0.280 HD
HETATM    8  C   UNL     1      41.394 -16.169  -0.440  1.00  0.00     0.241 C 
HETATM    9  C   UNL     1      41.874 -16.531   0.969  1.00  0.00     0.088 C 
HETATM   10  C   UNL     1      39.658 -14.074   2.893  1.00  0.00     0.257 A 
HETATM   11  O   UNL     1      38.914 -13.124   2.688  1.00  0.00    -0.267 OA
HETATM   12  N   UNL     1      39.897 -14.603   4.123  1.00  0.00    -0.302 N 
HETATM   13  H   UNL     1      39.442 -14.191   4.925  1.00  0.00     0.171 HD
ENDROOT
BRANCH   1  14
HETATM   14  S   UNL     1      40.905 -16.141   5.950  1.00  0.00    -0.083 SA
BRANCH  14  15
HETATM   15  C   UNL     1      42.661 -15.738   6.259  1.00  0.00     0.185 C 
BRANCH  15  16
HETATM   16  C   UNL     1      43.572 -16.918   5.934  1.00  0.00     0.231 C 
HETATM   17  N   UNL     1      42.947 -17.868   5.139  1.00  0.00    -0.326 N 
HETATM   18  H   UNL     1      42.119 -17.530   4.661  1.00  0.00     0.169 HD
HETATM   19  O   UNL     1      44.728 -16.954   6.347  1.00  0.00    -0.272 OA
BRANCH  17  20
HETATM   20  C   UNL     1      43.540 -19.023   4.578  1.00  0.00     0.041 C 
HETATM   21  C   UNL     1      43.999 -20.148   5.295  1.00  0.00    -0.029 C 
HETATM   22  C   UNL     1      44.705 -21.163   4.595  1.00  0.00    -0.054 C 
HETATM   23  C   UNL     1      43.708 -20.355   6.759  1.00  0.00     0.051 C 
HETATM   24  C   UNL     1      45.280 -22.365   5.299  1.00  0.00     0.049 C 
HETATM   25  C   UNL     1      44.825 -21.098   3.198  1.00  0.00     0.007 C 
HETATM   26  C   UNL     1      44.277 -20.037   2.491  1.00  0.00     0.003 C 
HETATM   27  C   UNL     1      43.640 -19.008   3.177  1.00  0.00     0.030 C 
ENDBRANCH  17  20
ENDBRANCH  15  16
ENDBRANCH  14  15
ENDBRANCH   1  14
BRANCH   6  28
HETATM   28  C   UNL     1      41.043 -14.190  -1.971  1.00  0.00     0.273 C 
BRANCH  28  29
HETATM   29  C   UNL     1      41.663 -12.837  -2.210  1.00  0.00    -0.030 A 
HETATM   30  C   UNL     1      42.555 -12.291  -1.269  1.00  0.00     0.048 A 
HETATM   31  C   UNL     1      43.015 -11.007  -1.476  1.00  0.00     0.105 A 
HETATM   32  C   UNL     1      42.651 -10.274  -2.577  1.00  0.00     0.105 A 
HETATM   33  O   UNL     1      43.837 -10.321  -0.641  1.00  0.00    -0.323 OA
HETATM   34  O   UNL     1      43.203  -9.034  -2.578  1.00  0.00    -0.323 OA
HETATM   35  C   UNL     1      41.810 -10.787  -3.540  1.00  0.00     0.040 A 
HETATM   36  C   UNL     1      43.943  -9.059  -1.339  1.00  0.00     0.352 A 
HETATM   37  C   UNL     1      41.309 -12.079  -3.352  1.00  0.00     0.012 A 
ENDBRANCH  28  29
ENDBRANCH   6  28
TORSDOF 6
ENDMDL
MODEL 9
REMARK VINA RESULT:      -9.3      1.403      2.130
REMARK  6 active torsions:
REMARK  status: ('A' for Active; 'I' for Inactive)
REMARK    1  A    between atoms: C_5  and  N_6 
REMARK       I    between atoms: N_6  and  C_7 
REMARK    2  A    between atoms: C_7  and  C_8 
REMARK    3  A    between atoms: C_8  and  S_9 
REMARK    4  A    between atoms: S_9  and  C_10 
REMARK    5  A    between atoms: N_15  and  C_17 
REMARK    6  A    between atoms: C_17  and  C_18 
ROOT
HETATM    1  C   UNL     1      41.101 -12.634   4.476  1.00  0.00     0.169 A 
HETATM    2  N   UNL     1      40.374 -13.571   3.976  1.00  0.00    -0.228 NA
HETATM    3  C   UNL     1      41.000 -14.561   3.270  1.00  0.00     0.052 A 
HETATM    4  C   UNL     1      42.332 -14.633   3.122  1.00  0.00     0.060 A 
HETATM    5  C   UNL     1      43.039 -15.747   2.438  1.00  0.00     0.281 C 
HETATM    6  N   UNL     1      42.127 -16.951   2.231  1.00  0.00    -0.063 N 
HETATM    7  H   UNL     1      41.937 -17.327   3.169  1.00  0.00     0.280 HD
HETATM    8  C   UNL     1      40.797 -16.516   1.656  1.00  0.00     0.241 C 
HETATM    9  C   UNL     1      40.087 -15.592   2.649  1.00  0.00     0.088 C 
HETATM   10  C   UNL     1      43.150 -13.557   3.710  1.00  0.00     0.257 A 
HETATM   11  O   UNL     1      44.368 -13.568   3.596  1.00  0.00    -0.267 OA
HETATM   12  N   UNL     1      42.455 -12.587   4.363  1.00  0.00    -0.302 N 
HETATM   13  H   UNL     1      42.966 -11.828   4.790  1.00  0.00     0.171 HD
ENDROOT
BRANCH   1  14
HETATM   14  S   UNL     1      40.439 -11.300   5.363  1.00  0.00    -0.083 SA
BRANCH  14  15
HETATM   15  C   UNL     1      39.801 -12.160   6.843  1.00  0.00     0.185 C 
BRANCH  15  16
HETATM   16  C   UNL     1      39.818 -11.253   8.070  1.00  0.00     0.231 C 
HETATM   17  N   UNL     1      41.102 -11.013   8.536  1.00  0.00    -0.326 N 
HETATM   18  H   UNL     1      41.833 -11.217   7.862  1.00  0.00     0.169 HD
HETATM   19  O   UNL     1      38.774 -10.802   8.534  1.00  0.00    -0.272 OA
BRANCH  17  20
HETATM   20  C   UNL     1      41.472 -10.139   9.584  1.00  0.00     0.041 C 
HETATM   21  C   UNL     1      42.440 -10.400  10.577  1.00  0.00    -0.029 C 
HETATM   22  C   UNL     1      42.588  -9.477  11.647  1.00  0.00    -0.054 C 
HETATM   23  C   UNL     1      43.376 -11.580  10.510  1.00  0.00     0.051 C 
HETATM   24  C   UNL     1      43.556  -9.715  12.777  1.00  0.00     0.049 C 
HETATM   25  C   UNL     1      41.871  -8.271  11.637  1.00  0.00     0.007 C 
HETATM   26  C   UNL     1      40.997  -7.977  10.599  1.00  0.00     0.003 C 
HETATM   27  C   UNL     1      40.800  -8.906   9.582  1.00  0.00     0.030 C 
ENDBRANCH  17  20
ENDBRANCH  15  16
ENDBRANCH  14  15
ENDBRANCH   1  14
BRANCH   6  28
HETATM   28  C   UNL     1      42.779 -18.070   1.457  1.00  0.00     0.273 C 
BRANCH  28  29
HETATM   29  C   UNL     1      43.486 -19.050   2.359  1.00  0.00    -0.030 A 
HETATM   30  C   UNL     1      43.682 -20.379   1.945  1.00  0.00     0.048 A 
HETATM   31  C   UNL     1      44.238 -21.266   2.843  1.00  0.00     0.105 A 
HETATM   32  C   UNL     1      44.624 -20.879   4.101  1.00  0.00     0.105 A 
HETATM   33  O   UNL     1      44.446 -22.589   2.616  1.00  0.00    -0.323 OA
HETATM   34  O   UNL     1      45.131 -21.910   4.825  1.00  0.00    -0.323 OA
HETATM   35  C   UNL     1      44.484 -19.579   4.532  1.00  0.00     0.040 A 
HETATM   36  C   UNL     1      45.003 -22.999   3.887  1.00  0.00     0.352 A 
HETATM   37  C   UNL     1      43.905 -18.656   3.653  1.00  0.00     0.012 A 
ENDBRANCH  28  29
ENDBRANCH   6  28
TORSDOF 6
ENDMDL
MODEL 10
REMARK VINA RESULT:      -9.1      4.608      9.336
REMARK  6 active torsions:
REMARK  status: ('A' for Active; 'I' for Inactive)
REMARK    1  A    between atoms: C_5  and  N_6 
REMARK       I    between atoms: N_6  and  C_7 
REMARK    2  A    between atoms: C_7  and  C_8 
REMARK    3  A    between atoms: C_8  and  S_9 
REMARK    4  A    between atoms: S_9  and  C_10 
REMARK    5  A    between atoms: N_15  and  C_17 
REMARK    6  A    between atoms: C_17  and  C_18 
ROOT
HETATM    1  C   UNL     1      41.030 -15.996   5.080  1.00  0.00     0.169 A 
HETATM    2  N   UNL     1      40.578 -14.791   5.069  1.00  0.00    -0.228 NA
HETATM    3  C   UNL     1      40.030 -14.323   3.907  1.00  0.00     0.052 A 
HETATM    4  C   UNL     1      39.890 -15.072   2.802  1.00  0.00     0.060 A 
HETATM    5  C   UNL     1      39.216 -14.613   1.560  1.00  0.00     0.281 C 
HETATM    6  N   UNL     1      38.407 -13.342   1.794  1.00  0.00    -0.063 N 
HETATM    7  H   UNL     1      37.626 -13.612   2.405  1.00  0.00     0.280 HD
HETATM    8  C   UNL     1      39.228 -12.324   2.554  1.00  0.00     0.241 C 
HETATM    9  C   UNL     1      39.582 -12.881   3.937  1.00  0.00     0.088 C 
HETATM   10  C   UNL     1      40.404 -16.453   2.836  1.00  0.00     0.257 A 
HETATM   11  O   UNL     1      40.312 -17.176   1.853  1.00  0.00    -0.267 OA
HETATM   12  N   UNL     1      40.971 -16.835   4.012  1.00  0.00    -0.302 N 
HETATM   13  H   UNL     1      41.335 -17.774   4.093  1.00  0.00     0.171 HD
ENDROOT
BRANCH   1  14
HETATM   14  S   UNL     1      41.781 -16.708   6.471  1.00  0.00    -0.083 SA
BRANCH  14  15
HETATM   15  C   UNL     1      43.543 -16.397   6.102  1.00  0.00     0.185 C 
BRANCH  15  16
HETATM   16  C   UNL     1      44.298 -17.696   5.837  1.00  0.00     0.231 C 
HETATM   17  N   UNL     1      43.557 -18.597   5.085  1.00  0.00    -0.326 N 
HETATM   18  H   UNL     1      42.777 -18.181   4.588  1.00  0.00     0.169 HD
HETATM   19  O   UNL     1      45.441 -17.857   6.255  1.00  0.00    -0.272 OA
BRANCH  17  20
HETATM   20  C   UNL     1      44.000 -19.843   4.583  1.00  0.00     0.041 C 
HETATM   21  C   UNL     1      44.041 -20.220   3.224  1.00  0.00    -0.029 C 
HETATM   22  C   UNL     1      44.373 -21.562   2.897  1.00  0.00    -0.054 C 
HETATM   23  C   UNL     1      43.818 -19.240   2.100  1.00  0.00     0.051 C 
HETATM   24  C   UNL     1      44.378 -22.057   1.473  1.00  0.00     0.049 C 
HETATM   25  C   UNL     1      44.777 -22.450   3.905  1.00  0.00     0.007 C 
HETATM   26  C   UNL     1      44.834 -22.038   5.229  1.00  0.00     0.003 C 
HETATM   27  C   UNL     1      44.448 -20.743   5.564  1.00  0.00     0.030 C 
ENDBRANCH  17  20
ENDBRANCH  15  16
ENDBRANCH  14  15
ENDBRANCH   1  14
BRANCH   6  28
HETATM   28  C   UNL     1      37.782 -12.790   0.536  1.00  0.00     0.273 C 
BRANCH  28  29
HETATM   29  C   UNL     1      38.658 -12.994  -0.673  1.00  0.00    -0.030 A 
HETATM   30  C   UNL     1      39.835 -12.240  -0.830  1.00  0.00     0.048 A 
HETATM   31  C   UNL     1      40.549 -12.383  -2.001  1.00  0.00     0.105 A 
HETATM   32  C   UNL     1      40.159 -13.252  -2.988  1.00  0.00     0.105 A 
HETATM   33  O   UNL     1      41.673 -11.693  -2.327  1.00  0.00    -0.323 OA
HETATM   34  O   UNL     1      40.993 -13.225  -4.060  1.00  0.00    -0.323 OA
HETATM   35  C   UNL     1      39.034 -14.036  -2.857  1.00  0.00     0.040 A 
HETATM   36  C   UNL     1      41.945 -12.223  -3.646  1.00  0.00     0.352 A 
HETATM   37  C   UNL     1      38.275 -13.902  -1.689  1.00  0.00     0.012 A 
ENDBRANCH  28  29
ENDBRANCH   6  28
TORSDOF 6
ENDMDL
