MODEL 1
REMARK VINA RESULT:      -8.8      0.000      0.000
REMARK  6 active torsions:
REMARK  status: ('A' for Active; 'I' for Inactive)
REMARK    1  A    between atoms: C_4  and  O_5 
REMARK    2  A    between atoms: O_5  and  C_6 
REMARK    3  A    between atoms: C_6  and  C_7 
REMARK       I    between atoms: C_7  and  N_8 
REMARK    4  A    between atoms: N_8  and  N_9 
REMARK    5  A    between atoms: C_10  and  C_11 
REMARK    6  A    between atoms: C_23  and  C_24 
ROOT
HETATM    1  C   UNL     1      40.771 -16.690   1.968  1.00  0.00     0.261 C 
HETATM    2  N   UNL     1      41.571 -16.753   0.831  1.00  0.00    -0.246 N 
HETATM    3  O   UNL     1      39.742 -16.027   2.091  1.00  0.00    -0.269 OA
HETATM    4  H   UNL     1      42.226 -17.531   0.769  1.00  0.00     0.192 HD
ENDROOT
BRANCH   2   5
HETATM    5  N   UNL     1      41.378 -16.081  -0.357  1.00  0.00    -0.184 NA
HETATM    6  C   UNL     1      41.715 -14.834  -0.435  1.00  0.00     0.152 C 
BRANCH   6   7
HETATM    7  C   UNL     1      41.521 -14.094  -1.668  1.00  0.00     0.011 A 
HETATM    8  C   UNL     1      41.973 -12.789  -2.055  1.00  0.00     0.005 A 
HETATM    9  C   UNL     1      41.491 -12.545  -3.345  1.00  0.00     0.043 A 
HETATM   10  C   UNL     1      42.735 -11.779  -1.429  1.00  0.00     0.033 A 
HETATM   11  C   UNL     1      41.731 -11.353  -4.039  1.00  0.00     0.031 A 
HETATM   12  N   UNL     1      40.784 -13.658  -3.732  1.00  0.00    -0.364 N 
HETATM   13  C   UNL     1      42.483 -10.368  -3.395  1.00  0.00     0.021 A 
HETATM   14  C   UNL     1      42.977 -10.581  -2.110  1.00  0.00     0.012 A 
HETATM   15 BR   UNL     1      43.986  -9.221  -1.266  1.00  0.00    -0.051 Br
HETATM   16  H   UNL     1      40.326 -13.764  -4.627  1.00  0.00     0.165 HD
HETATM   17  C   UNL     1      40.784 -14.589  -2.731  1.00  0.00     0.102 A 
ENDBRANCH   6   7
ENDBRANCH   2   5
BRANCH   1  18
HETATM   18  C   UNL     1      41.360 -17.456   3.147  1.00  0.00     0.280 C 
BRANCH  18  19
HETATM   19  O   UNL     1      42.780 -17.360   3.189  1.00  0.00    -0.341 OA
BRANCH  19  20
HETATM   20  C   UNL     1      43.400 -18.576   3.366  1.00  0.00     0.076 A 
HETATM   21  C   UNL     1      43.378 -19.570   2.374  1.00  0.00     0.044 A 
HETATM   22  C   UNL     1      44.034 -20.791   2.563  1.00  0.00    -0.059 A 
HETATM   23  C   UNL     1      44.056 -21.827   1.480  1.00  0.00     0.048 C 
HETATM   24  C   UNL     1      44.719 -21.009   3.758  1.00  0.00     0.007 A 
HETATM   25  C   UNL     1      44.719 -20.037   4.762  1.00  0.00     0.011 A 
HETATM   26  C   UNL     1      44.044 -18.815   4.595  1.00  0.00    -0.021 A 
BRANCH  26  27
HETATM   27  C   UNL     1      44.073 -17.758   5.690  1.00  0.00     0.013 C 
HETATM   28  C   UNL     1      42.820 -17.767   6.578  1.00  0.00     0.015 C 
HETATM   29  C   UNL     1      45.333 -17.913   6.545  1.00  0.00     0.015 C 
ENDBRANCH  26  27
ENDBRANCH  19  20
ENDBRANCH  18  19
ENDBRANCH   1  18
TORSDOF 6
ENDMDL
MODEL 2
REMARK VINA RESULT:      -8.8      6.757     10.346
REMARK  6 active torsions:
REMARK  status: ('A' for Active; 'I' for Inactive)
REMARK    1  A    between atoms: C_4  and  O_5 
REMARK    2  A    between atoms: O_5  and  C_6 
REMARK    3  A    between atoms: C_6  and  C_7 
REMARK       I    between atoms: C_7  and  N_8 
REMARK    4  A    between atoms: N_8  and  N_9 
REMARK    5  A    between atoms: C_10  and  C_11 
REMARK    6  A    between atoms: C_23  and  C_24 
ROOT
HETATM    1  C   UNL     1      45.107 -13.108   8.104  1.00  0.00     0.261 C 
HETATM    2  N   UNL     1      44.250 -14.150   7.764  1.00  0.00    -0.246 N 
HETATM    3  O   UNL     1      46.205 -12.882   7.599  1.00  0.00    -0.269 OA
HETATM    4  H   UNL     1      43.278 -14.065   8.060  1.00  0.00     0.192 HD
ENDROOT
BRANCH   2   5
HETATM    5  N   UNL     1      44.469 -15.128   6.818  1.00  0.00    -0.184 NA
HETATM    6  C   UNL     1      43.970 -16.307   7.006  1.00  0.00     0.152 C 
BRANCH   6   7
HETATM    7  C   UNL     1      44.185 -17.363   6.033  1.00  0.00     0.011 A 
HETATM    8  C   UNL     1      43.547 -17.617   4.774  1.00  0.00     0.005 A 
HETATM    9  C   UNL     1      44.115 -18.780   4.245  1.00  0.00     0.043 A 
HETATM   10  C   UNL     1      42.526 -16.981   4.035  1.00  0.00     0.033 A 
HETATM   11  C   UNL     1      43.722 -19.336   3.021  1.00  0.00     0.031 A 
HETATM   12  N   UNL     1      45.068 -19.209   5.138  1.00  0.00    -0.364 N 
HETATM   13  C   UNL     1      42.707 -18.689   2.312  1.00  0.00     0.021 A 
HETATM   14  C   UNL     1      42.121 -17.529   2.814  1.00  0.00     0.012 A 
HETATM   15 BR   UNL     1      40.743 -16.686   1.829  1.00  0.00    -0.051 Br
HETATM   16  H   UNL     1      45.645 -20.030   5.010  1.00  0.00     0.165 HD
HETATM   17  C   UNL     1      45.110 -18.375   6.220  1.00  0.00     0.102 A 
ENDBRANCH   6   7
ENDBRANCH   2   5
BRANCH   1  18
HETATM   18  C   UNL     1      44.604 -12.294   9.291  1.00  0.00     0.280 C 
BRANCH  18  19
HETATM   19  O   UNL     1      44.025 -11.059   8.883  1.00  0.00    -0.341 OA
BRANCH  19  20
HETATM   20  C   UNL     1      43.252 -10.473   9.861  1.00  0.00     0.076 A 
HETATM   21  C   UNL     1      43.736 -10.266  11.162  1.00  0.00     0.044 A 
HETATM   22  C   UNL     1      42.943  -9.648  12.135  1.00  0.00    -0.059 A 
HETATM   23  C   UNL     1      43.483  -9.377  13.508  1.00  0.00     0.048 C 
HETATM   24  C   UNL     1      41.656  -9.234  11.792  1.00  0.00     0.007 A 
HETATM   25  C   UNL     1      41.157  -9.466  10.508  1.00  0.00     0.011 A 
HETATM   26  C   UNL     1      41.934 -10.107   9.527  1.00  0.00    -0.021 A 
BRANCH  26  27
HETATM   27  C   UNL     1      41.382 -10.332   8.125  1.00  0.00     0.013 C 
HETATM   28  C   UNL     1      39.957 -10.902   8.117  1.00  0.00     0.015 C 
HETATM   29  C   UNL     1      41.443  -9.033   7.317  1.00  0.00     0.015 C 
ENDBRANCH  26  27
ENDBRANCH  19  20
ENDBRANCH  18  19
ENDBRANCH   1  18
TORSDOF 6
ENDMDL
MODEL 3
REMARK VINA RESULT:      -8.6      1.151      2.698
REMARK  6 active torsions:
REMARK  status: ('A' for Active; 'I' for Inactive)
REMARK    1  A    between atoms: C_4  and  O_5 
REMARK    2  A    between atoms: O_5  and  C_6 
REMARK    3  A    between atoms: C_6  and  C_7 
REMARK       I    between atoms: C_7  and  N_8 
REMARK    4  A    between atoms: N_8  and  N_9 
REMARK    5  A    between atoms: C_10  and  C_11 
REMARK    6  A    between atoms: C_23  and  C_24 
ROOT
HETATM    1  C   UNL     1      40.514 -15.468   3.176  1.00  0.00     0.261 C 
HETATM    2  N   UNL     1      40.920 -15.960   1.939  1.00  0.00    -0.246 N 
HETATM    3  O   UNL     1      39.874 -14.436   3.368  1.00  0.00    -0.269 OA
HETATM    4  H   UNL     1      41.199 -16.940   1.900  1.00  0.00     0.192 HD
ENDROOT
BRANCH   2   5
HETATM    5  N   UNL     1      40.701 -15.385   0.706  1.00  0.00    -0.184 NA
HETATM    6  C   UNL     1      41.718 -15.074  -0.031  1.00  0.00     0.152 C 
BRANCH   6   7
HETATM    7  C   UNL     1      41.525 -14.462  -1.334  1.00  0.00     0.011 A 
HETATM    8  C   UNL     1      41.936 -13.183  -1.834  1.00  0.00     0.005 A 
HETATM    9  C   UNL     1      41.475 -13.082  -3.151  1.00  0.00     0.043 A 
HETATM   10  C   UNL     1      42.642 -12.087  -1.292  1.00  0.00     0.033 A 
HETATM   11  C   UNL     1      41.685 -11.952  -3.951  1.00  0.00     0.031 A 
HETATM   12  N   UNL     1      40.822 -14.255  -3.444  1.00  0.00    -0.364 N 
HETATM   13  C   UNL     1      42.383 -10.881  -3.389  1.00  0.00     0.021 A 
HETATM   14  C   UNL     1      42.853 -10.951  -2.079  1.00  0.00     0.012 A 
HETATM   15 BR   UNL     1      43.788  -9.476  -1.349  1.00  0.00    -0.051 Br
HETATM   16  H   UNL     1      40.390 -14.464  -4.334  1.00  0.00     0.165 HD
HETATM   17  C   UNL     1      40.835 -15.086  -2.359  1.00  0.00     0.102 A 
ENDBRANCH   6   7
ENDBRANCH   2   5
BRANCH   1  18
HETATM   18  C   UNL     1      41.049 -16.291   4.343  1.00  0.00     0.280 C 
BRANCH  18  19
HETATM   19  O   UNL     1      41.314 -17.639   3.967  1.00  0.00    -0.341 OA
BRANCH  19  20
HETATM   20  C   UNL     1      42.437 -18.158   4.570  1.00  0.00     0.076 A 
HETATM   21  C   UNL     1      42.688 -17.987   5.940  1.00  0.00     0.044 A 
HETATM   22  C   UNL     1      43.824 -18.543   6.540  1.00  0.00    -0.059 A 
HETATM   23  C   UNL     1      44.060 -18.406   8.014  1.00  0.00     0.048 C 
HETATM   24  C   UNL     1      44.709 -19.278   5.751  1.00  0.00     0.007 A 
HETATM   25  C   UNL     1      44.482 -19.426   4.381  1.00  0.00     0.011 A 
HETATM   26  C   UNL     1      43.357 -18.853   3.761  1.00  0.00    -0.021 A 
BRANCH  26  27
HETATM   27  C   UNL     1      43.113 -19.042   2.270  1.00  0.00     0.013 C 
HETATM   28  C   UNL     1      43.841 -18.009   1.399  1.00  0.00     0.015 C 
HETATM   29  C   UNL     1      43.495 -20.463   1.846  1.00  0.00     0.015 C 
ENDBRANCH  26  27
ENDBRANCH  19  20
ENDBRANCH  18  19
ENDBRANCH   1  18
TORSDOF 6
ENDMDL
MODEL 4
REMARK VINA RESULT:      -8.3      6.769      9.918
REMARK  6 active torsions:
REMARK  status: ('A' for Active; 'I' for Inactive)
REMARK    1  A    between atoms: C_4  and  O_5 
REMARK    2  A    between atoms: O_5  and  C_6 
REMARK    3  A    between atoms: C_6  and  C_7 
REMARK       I    between atoms: C_7  and  N_8 
REMARK    4  A    between atoms: N_8  and  N_9 
REMARK    5  A    between atoms: C_10  and  C_11 
REMARK    6  A    between atoms: C_23  and  C_24 
ROOT
HETATM    1  C   UNL     1      44.577 -13.142   7.613  1.00  0.00     0.261 C 
HETATM    2  N   UNL     1      43.349 -13.297   6.978  1.00  0.00    -0.246 N 
HETATM    3  O   UNL     1      45.661 -13.552   7.201  1.00  0.00    -0.269 OA
HETATM    4  H   UNL     1      42.590 -12.688   7.282  1.00  0.00     0.192 HD
ENDROOT
BRANCH   2   5
HETATM    5  N   UNL     1      43.108 -13.947   5.786  1.00  0.00    -0.184 NA
HETATM    6  C   UNL     1      42.517 -15.097   5.806  1.00  0.00     0.152 C 
BRANCH   6   7
HETATM    7  C   UNL     1      42.252 -15.812   4.571  1.00  0.00     0.011 A 
HETATM    8  C   UNL     1      42.744 -17.074   4.098  1.00  0.00     0.005 A 
HETATM    9  C   UNL     1      42.191 -17.290   2.831  1.00  0.00     0.043 A 
HETATM   10  C   UNL     1      43.621 -18.051   4.615  1.00  0.00     0.033 A 
HETATM   11  C   UNL     1      42.464 -18.426   2.061  1.00  0.00     0.031 A 
HETATM   12  N   UNL     1      41.387 -16.211   2.550  1.00  0.00    -0.364 N 
HETATM   13  C   UNL     1      43.339 -19.376   2.594  1.00  0.00     0.021 A 
HETATM   14  C   UNL     1      43.906 -19.188   3.852  1.00  0.00     0.012 A 
HETATM   15 BR   UNL     1      45.093 -20.493   4.538  1.00  0.00    -0.051 Br
HETATM   16  H   UNL     1      40.853 -16.101   1.698  1.00  0.00     0.165 HD
HETATM   17  C   UNL     1      41.425 -15.312   3.580  1.00  0.00     0.102 A 
ENDBRANCH   6   7
ENDBRANCH   2   5
BRANCH   1  18
HETATM   18  C   UNL     1      44.453 -12.490   8.986  1.00  0.00     0.280 C 
BRANCH  18  19
HETATM   19  O   UNL     1      44.314 -11.076   8.893  1.00  0.00    -0.341 OA
BRANCH  19  20
HETATM   20  C   UNL     1      43.466 -10.551   9.843  1.00  0.00     0.076 A 
HETATM   21  C   UNL     1      43.850 -10.415  11.185  1.00  0.00     0.044 A 
HETATM   22  C   UNL     1      42.983  -9.858  12.131  1.00  0.00    -0.059 A 
HETATM   23  C   UNL     1      43.417  -9.663  13.553  1.00  0.00     0.048 C 
HETATM   24  C   UNL     1      41.721  -9.432  11.717  1.00  0.00     0.007 A 
HETATM   25  C   UNL     1      41.319  -9.593  10.389  1.00  0.00     0.011 A 
HETATM   26  C   UNL     1      42.173 -10.173   9.433  1.00  0.00    -0.021 A 
BRANCH  26  27
HETATM   27  C   UNL     1      41.728 -10.320   7.984  1.00  0.00     0.013 C 
HETATM   28  C   UNL     1      40.419 -11.106   7.827  1.00  0.00     0.015 C 
HETATM   29  C   UNL     1      41.607  -8.944   7.324  1.00  0.00     0.015 C 
ENDBRANCH  26  27
ENDBRANCH  19  20
ENDBRANCH  18  19
ENDBRANCH   1  18
TORSDOF 6
ENDMDL
MODEL 5
REMARK VINA RESULT:      -8.1      2.549      2.793
REMARK  6 active torsions:
REMARK  status: ('A' for Active; 'I' for Inactive)
REMARK    1  A    between atoms: C_4  and  O_5 
REMARK    2  A    between atoms: O_5  and  C_6 
REMARK    3  A    between atoms: C_6  and  C_7 
REMARK       I    between atoms: C_7  and  N_8 
REMARK    4  A    between atoms: N_8  and  N_9 
REMARK    5  A    between atoms: C_10  and  C_11 
REMARK    6  A    between atoms: C_23  and  C_24 
ROOT
HETATM    1  C   UNL     1      41.982 -16.545   0.965  1.00  0.00     0.261 C 
HETATM    2  N   UNL     1      42.199 -15.428   0.164  1.00  0.00    -0.246 N 
HETATM    3  O   UNL     1      40.943 -17.200   1.025  1.00  0.00    -0.269 OA
HETATM    4  H   UNL     1      43.167 -15.151   0.008  1.00  0.00     0.192 HD
ENDROOT
BRANCH   2   5
HETATM    5  N   UNL     1      41.297 -14.836  -0.694  1.00  0.00    -0.184 NA
HETATM    6  C   UNL     1      41.652 -13.775  -1.344  1.00  0.00     0.152 C 
BRANCH   6   7
HETATM    7  C   UNL     1      40.727 -13.122  -2.252  1.00  0.00     0.011 A 
HETATM    8  C   UNL     1      39.431 -12.554  -2.017  1.00  0.00     0.005 A 
HETATM    9  C   UNL     1      38.958 -12.071  -3.242  1.00  0.00     0.043 A 
HETATM   10  C   UNL     1      38.601 -12.417  -0.884  1.00  0.00     0.033 A 
HETATM   11  C   UNL     1      37.708 -11.458  -3.391  1.00  0.00     0.031 A 
HETATM   12  N   UNL     1      39.930 -12.323  -4.181  1.00  0.00    -0.364 N 
HETATM   13  C   UNL     1      36.905 -11.339  -2.255  1.00  0.00     0.021 A 
HETATM   14  C   UNL     1      37.348 -11.811  -1.021  1.00  0.00     0.012 A 
HETATM   15 BR   UNL     1      36.228 -11.638   0.495  1.00  0.00    -0.051 Br
HETATM   16  H   UNL     1      39.860 -12.074  -5.158  1.00  0.00     0.165 HD
HETATM   17  C   UNL     1      40.990 -12.964  -3.602  1.00  0.00     0.102 A 
ENDBRANCH   6   7
ENDBRANCH   2   5
BRANCH   1  18
HETATM   18  C   UNL     1      43.155 -16.842   1.893  1.00  0.00     0.280 C 
BRANCH  18  19
HETATM   19  O   UNL     1      42.741 -17.527   3.071  1.00  0.00    -0.341 OA
BRANCH  19  20
HETATM   20  C   UNL     1      43.399 -18.722   3.261  1.00  0.00     0.076 A 
HETATM   21  C   UNL     1      43.397 -19.732   2.286  1.00  0.00     0.044 A 
HETATM   22  C   UNL     1      44.090 -20.930   2.488  1.00  0.00    -0.059 A 
HETATM   23  C   UNL     1      44.133 -21.983   1.421  1.00  0.00     0.048 C 
HETATM   24  C   UNL     1      44.792 -21.109   3.680  1.00  0.00     0.007 A 
HETATM   25  C   UNL     1      44.772 -20.122   4.668  1.00  0.00     0.011 A 
HETATM   26  C   UNL     1      44.059 -18.922   4.488  1.00  0.00    -0.021 A 
BRANCH  26  27
HETATM   27  C   UNL     1      44.067 -17.847   5.566  1.00  0.00     0.013 C 
HETATM   28  C   UNL     1      42.812 -17.864   6.450  1.00  0.00     0.015 C 
HETATM   29  C   UNL     1      45.327 -17.966   6.426  1.00  0.00     0.015 C 
ENDBRANCH  26  27
ENDBRANCH  19  20
ENDBRANCH  18  19
ENDBRANCH   1  18
TORSDOF 6
ENDMDL
MODEL 6
REMARK VINA RESULT:      -8.1      6.297      9.091
REMARK  6 active torsions:
REMARK  status: ('A' for Active; 'I' for Inactive)
REMARK    1  A    between atoms: C_4  and  O_5 
REMARK    2  A    between atoms: O_5  and  C_6 
REMARK    3  A    between atoms: C_6  and  C_7 
REMARK       I    between atoms: C_7  and  N_8 
REMARK    4  A    between atoms: N_8  and  N_9 
REMARK    5  A    between atoms: C_10  and  C_11 
REMARK    6  A    between atoms: C_23  and  C_24 
ROOT
HETATM    1  C   UNL     1      41.308 -11.098   6.535  1.00  0.00     0.261 C 
HETATM    2  N   UNL     1      41.718 -12.422   6.415  1.00  0.00    -0.246 N 
HETATM    3  O   UNL     1      40.974 -10.358   5.610  1.00  0.00    -0.269 OA
HETATM    4  H   UNL     1      41.703 -12.989   7.261  1.00  0.00     0.192 HD
ENDROOT
BRANCH   2   5
HETATM    5  N   UNL     1      41.844 -13.149   5.250  1.00  0.00    -0.184 NA
HETATM    6  C   UNL     1      42.631 -14.175   5.232  1.00  0.00     0.152 C 
BRANCH   6   7
HETATM    7  C   UNL     1      42.792 -14.960   4.022  1.00  0.00     0.011 A 
HETATM    8  C   UNL     1      43.202 -16.322   3.840  1.00  0.00     0.005 A 
HETATM    9  C   UNL     1      43.211 -16.576   2.464  1.00  0.00     0.043 A 
HETATM   10  C   UNL     1      43.586 -17.366   4.710  1.00  0.00     0.033 A 
HETATM   11  C   UNL     1      43.576 -17.812   1.916  1.00  0.00     0.031 A 
HETATM   12  N   UNL     1      42.810 -15.421   1.836  1.00  0.00    -0.364 N 
HETATM   13  C   UNL     1      43.955 -18.825   2.799  1.00  0.00     0.021 A 
HETATM   14  C   UNL     1      43.958 -18.603   4.174  1.00  0.00     0.012 A 
HETATM   15 BR   UNL     1      44.486 -19.999   5.338  1.00  0.00    -0.051 Br
HETATM   16  H   UNL     1      42.718 -15.316   0.834  1.00  0.00     0.165 HD
HETATM   17  C   UNL     1      42.569 -14.442   2.758  1.00  0.00     0.102 A 
ENDBRANCH   6   7
ENDBRANCH   2   5
BRANCH   1  18
HETATM   18  C   UNL     1      41.418 -10.573   7.962  1.00  0.00     0.280 C 
BRANCH  18  19
HETATM   19  O   UNL     1      42.771 -10.341   8.340  1.00  0.00    -0.341 OA
BRANCH  19  20
HETATM   20  C   UNL     1      43.094 -10.890   9.562  1.00  0.00     0.076 A 
HETATM   21  C   UNL     1      42.361 -10.595  10.722  1.00  0.00     0.044 A 
HETATM   22  C   UNL     1      42.689 -11.181  11.950  1.00  0.00    -0.059 A 
HETATM   23  C   UNL     1      41.871 -10.907  13.176  1.00  0.00     0.048 C 
HETATM   24  C   UNL     1      43.761 -12.072  12.005  1.00  0.00     0.007 A 
HETATM   25  C   UNL     1      44.514 -12.346  10.860  1.00  0.00     0.011 A 
HETATM   26  C   UNL     1      44.210 -11.746   9.625  1.00  0.00    -0.021 A 
BRANCH  26  27
HETATM   27  C   UNL     1      45.027 -12.073   8.383  1.00  0.00     0.013 C 
HETATM   28  C   UNL     1      46.520 -11.749   8.534  1.00  0.00     0.015 C 
HETATM   29  C   UNL     1      44.836 -13.540   7.993  1.00  0.00     0.015 C 
ENDBRANCH  26  27
ENDBRANCH  19  20
ENDBRANCH  18  19
ENDBRANCH   1  18
TORSDOF 6
ENDMDL
MODEL 7
REMARK VINA RESULT:      -8.0      6.886     10.227
REMARK  6 active torsions:
REMARK  status: ('A' for Active; 'I' for Inactive)
REMARK    1  A    between atoms: C_4  and  O_5 
REMARK    2  A    between atoms: O_5  and  C_6 
REMARK    3  A    between atoms: C_6  and  C_7 
REMARK       I    between atoms: C_7  and  N_8 
REMARK    4  A    between atoms: N_8  and  N_9 
REMARK    5  A    between atoms: C_10  and  C_11 
REMARK    6  A    between atoms: C_23  and  C_24 
ROOT
HETATM    1  C   UNL     1      45.397 -12.502   8.430  1.00  0.00     0.261 C 
HETATM    2  N   UNL     1      44.474 -13.501   8.134  1.00  0.00    -0.246 N 
HETATM    3  O   UNL     1      46.593 -12.515   8.144  1.00  0.00    -0.269 OA
HETATM    4  H   UNL     1      43.488 -13.249   8.184  1.00  0.00     0.192 HD
ENDROOT
BRANCH   2   5
HETATM    5  N   UNL     1      44.722 -14.692   7.485  1.00  0.00    -0.184 NA
HETATM    6  C   UNL     1      43.767 -15.253   6.817  1.00  0.00     0.152 C 
BRANCH   6   7
HETATM    7  C   UNL     1      43.990 -16.510   6.126  1.00  0.00     0.011 A 
HETATM    8  C   UNL     1      43.450 -17.006   4.893  1.00  0.00     0.005 A 
HETATM    9  C   UNL     1      43.977 -18.286   4.692  1.00  0.00     0.043 A 
HETATM   10  C   UNL     1      42.549 -16.500   3.932  1.00  0.00     0.033 A 
HETATM   11  C   UNL     1      43.656 -19.081   3.585  1.00  0.00     0.031 A 
HETATM   12  N   UNL     1      44.812 -18.553   5.751  1.00  0.00    -0.364 N 
HETATM   13  C   UNL     1      42.758 -18.558   2.651  1.00  0.00     0.021 A 
HETATM   14  C   UNL     1      42.216 -17.287   2.824  1.00  0.00     0.012 A 
HETATM   15 BR   UNL     1      40.997 -16.616   1.541  1.00  0.00    -0.051 Br
HETATM   16  H   UNL     1      45.336 -19.410   5.865  1.00  0.00     0.165 HD
HETATM   17  C   UNL     1      44.818 -17.501   6.624  1.00  0.00     0.102 A 
ENDBRANCH   6   7
ENDBRANCH   2   5
BRANCH   1  18
HETATM   18  C   UNL     1      44.804 -11.384   9.280  1.00  0.00     0.280 C 
BRANCH  18  19
HETATM   19  O   UNL     1      43.604 -11.789   9.931  1.00  0.00    -0.341 OA
BRANCH  19  20
HETATM   20  C   UNL     1      42.574 -10.888   9.779  1.00  0.00     0.076 A 
HETATM   21  C   UNL     1      42.144 -10.462   8.513  1.00  0.00     0.044 A 
HETATM   22  C   UNL     1      41.080  -9.564   8.378  1.00  0.00    -0.059 A 
HETATM   23  C   UNL     1      40.586  -9.155   7.022  1.00  0.00     0.048 C 
HETATM   24  C   UNL     1      40.444  -9.096   9.528  1.00  0.00     0.007 A 
HETATM   25  C   UNL     1      40.887  -9.491  10.792  1.00  0.00     0.011 A 
HETATM   26  C   UNL     1      41.971 -10.375  10.943  1.00  0.00    -0.021 A 
BRANCH  26  27
HETATM   27  C   UNL     1      42.427 -10.813  12.328  1.00  0.00     0.013 C 
HETATM   28  C   UNL     1      43.485  -9.885  12.942  1.00  0.00     0.015 C 
HETATM   29  C   UNL     1      41.224 -10.944  13.266  1.00  0.00     0.015 C 
ENDBRANCH  26  27
ENDBRANCH  19  20
ENDBRANCH  18  19
ENDBRANCH   1  18
TORSDOF 6
ENDMDL
MODEL 8
REMARK VINA RESULT:      -7.8      3.746      9.678
REMARK  6 active torsions:
REMARK  status: ('A' for Active; 'I' for Inactive)
REMARK    1  A    between atoms: C_4  and  O_5 
REMARK    2  A    between atoms: O_5  and  C_6 
REMARK    3  A    between atoms: C_6  and  C_7 
REMARK       I    between atoms: C_7  and  N_8 
REMARK    4  A    between atoms: N_8  and  N_9 
REMARK    5  A    between atoms: C_10  and  C_11 
REMARK    6  A    between atoms: C_23  and  C_24 
ROOT
HETATM    1  C   UNL     1      39.381 -14.775   2.112  1.00  0.00     0.261 C 
HETATM    2  N   UNL     1      40.064 -15.959   1.848  1.00  0.00    -0.246 N 
HETATM    3  O   UNL     1      39.391 -14.157   3.175  1.00  0.00    -0.269 OA
HETATM    4  H   UNL     1      40.187 -16.214   0.869  1.00  0.00     0.192 HD
ENDROOT
BRANCH   2   5
HETATM    5  N   UNL     1      40.862 -16.667   2.721  1.00  0.00    -0.184 NA
HETATM    6  C   UNL     1      42.067 -16.255   2.946  1.00  0.00     0.152 C 
BRANCH   6   7
HETATM    7  C   UNL     1      42.937 -16.979   3.855  1.00  0.00     0.011 A 
HETATM    8  C   UNL     1      43.534 -18.278   3.742  1.00  0.00     0.005 A 
HETATM    9  C   UNL     1      44.267 -18.505   4.911  1.00  0.00     0.043 A 
HETATM   10  C   UNL     1      43.512 -19.296   2.764  1.00  0.00     0.033 A 
HETATM   11  C   UNL     1      44.977 -19.687   5.152  1.00  0.00     0.031 A 
HETATM   12  N   UNL     1      44.132 -17.387   5.699  1.00  0.00    -0.364 N 
HETATM   13  C   UNL     1      44.935 -20.680   4.170  1.00  0.00     0.021 A 
HETATM   14  C   UNL     1      44.213 -20.484   2.995  1.00  0.00     0.012 A 
HETATM   15 BR   UNL     1      44.173 -21.855   1.692  1.00  0.00    -0.051 Br
HETATM   16  H   UNL     1      44.563 -17.269   6.606  1.00  0.00     0.165 HD
HETATM   17  C   UNL     1      43.327 -16.470   5.082  1.00  0.00     0.102 A 
ENDBRANCH   6   7
ENDBRANCH   2   5
BRANCH   1  18
HETATM   18  C   UNL     1      38.483 -14.343   0.958  1.00  0.00     0.280 C 
BRANCH  18  19
HETATM   19  O   UNL     1      39.221 -14.131  -0.241  1.00  0.00    -0.341 OA
BRANCH  19  20
HETATM   20  C   UNL     1      38.496 -13.483  -1.216  1.00  0.00     0.076 A 
HETATM   21  C   UNL     1      37.572 -12.474  -0.904  1.00  0.00     0.044 A 
HETATM   22  C   UNL     1      36.862 -11.811  -1.911  1.00  0.00    -0.059 A 
HETATM   23  C   UNL     1      35.918 -10.694  -1.578  1.00  0.00     0.048 C 
HETATM   24  C   UNL     1      37.089 -12.167  -3.240  1.00  0.00     0.007 A 
HETATM   25  C   UNL     1      37.983 -13.192  -3.556  1.00  0.00     0.011 A 
HETATM   26  C   UNL     1      38.686 -13.883  -2.553  1.00  0.00    -0.021 A 
BRANCH  26  27
HETATM   27  C   UNL     1      39.674 -14.983  -2.916  1.00  0.00     0.013 C 
HETATM   28  C   UNL     1      39.167 -15.914  -4.026  1.00  0.00     0.015 C 
HETATM   29  C   UNL     1      41.025 -14.376  -3.304  1.00  0.00     0.015 C 
ENDBRANCH  26  27
ENDBRANCH  19  20
ENDBRANCH  18  19
ENDBRANCH   1  18
TORSDOF 6
ENDMDL
MODEL 9
REMARK VINA RESULT:      -7.8      5.016      6.213
REMARK  6 active torsions:
REMARK  status: ('A' for Active; 'I' for Inactive)
REMARK    1  A    between atoms: C_4  and  O_5 
REMARK    2  A    between atoms: O_5  and  C_6 
REMARK    3  A    between atoms: C_6  and  C_7 
REMARK       I    between atoms: C_7  and  N_8 
REMARK    4  A    between atoms: N_8  and  N_9 
REMARK    5  A    between atoms: C_10  and  C_11 
REMARK    6  A    between atoms: C_23  and  C_24 
ROOT
HETATM    1  C   UNL     1      40.912 -16.020   3.110  1.00  0.00     0.261 C 
HETATM    2  N   UNL     1      41.333 -15.428   4.297  1.00  0.00    -0.246 N 
HETATM    3  O   UNL     1      40.015 -15.608   2.376  1.00  0.00    -0.269 OA
HETATM    4  H   UNL     1      42.243 -15.710   4.658  1.00  0.00     0.192 HD
ENDROOT
BRANCH   2   5
HETATM    5  N   UNL     1      40.823 -14.288   4.882  1.00  0.00    -0.184 NA
HETATM    6  C   UNL     1      41.185 -13.133   4.426  1.00  0.00     0.152 C 
BRANCH   6   7
HETATM    7  C   UNL     1      40.671 -11.912   5.020  1.00  0.00     0.011 A 
HETATM    8  C   UNL     1      41.060 -11.219   6.214  1.00  0.00     0.005 A 
HETATM    9  C   UNL     1      40.226 -10.103   6.340  1.00  0.00     0.043 A 
HETATM   10  C   UNL     1      42.030 -11.439   7.216  1.00  0.00     0.033 A 
HETATM   11  C   UNL     1      40.313  -9.199   7.405  1.00  0.00     0.031 A 
HETATM   12  N   UNL     1      39.374 -10.109   5.261  1.00  0.00    -0.364 N 
HETATM   13  C   UNL     1      41.279  -9.442   8.384  1.00  0.00     0.021 A 
HETATM   14  C   UNL     1      42.123 -10.546   8.288  1.00  0.00     0.012 A 
HETATM   15 BR   UNL     1      43.414 -10.846   9.638  1.00  0.00    -0.051 Br
HETATM   16  H   UNL     1      38.663  -9.411   5.089  1.00  0.00     0.165 HD
HETATM   17  C   UNL     1      39.623 -11.195   4.469  1.00  0.00     0.102 A 
ENDBRANCH   6   7
ENDBRANCH   2   5
BRANCH   1  18
HETATM   18  C   UNL     1      41.606 -17.349   2.835  1.00  0.00     0.280 C 
BRANCH  18  19
HETATM   19  O   UNL     1      42.993 -17.302   3.156  1.00  0.00    -0.341 OA
BRANCH  19  20
HETATM   20  C   UNL     1      43.543 -18.546   3.368  1.00  0.00     0.076 A 
HETATM   21  C   UNL     1      43.532 -19.539   2.376  1.00  0.00     0.044 A 
HETATM   22  C   UNL     1      44.117 -20.789   2.601  1.00  0.00    -0.059 A 
HETATM   23  C   UNL     1      44.154 -21.828   1.520  1.00  0.00     0.048 C 
HETATM   24  C   UNL     1      44.718 -21.038   3.835  1.00  0.00     0.007 A 
HETATM   25  C   UNL     1      44.704 -20.067   4.838  1.00  0.00     0.011 A 
HETATM   26  C   UNL     1      44.099 -18.814   4.633  1.00  0.00    -0.021 A 
BRANCH  26  27
HETATM   27  C   UNL     1      44.113 -17.758   5.730  1.00  0.00     0.013 C 
HETATM   28  C   UNL     1      42.871 -17.801   6.631  1.00  0.00     0.015 C 
HETATM   29  C   UNL     1      45.387 -17.881   6.570  1.00  0.00     0.015 C 
ENDBRANCH  26  27
ENDBRANCH  19  20
ENDBRANCH  18  19
ENDBRANCH   1  18
TORSDOF 6
ENDMDL
MODEL 10
REMARK VINA RESULT:      -7.8      2.354      2.566
REMARK  6 active torsions:
REMARK  status: ('A' for Active; 'I' for Inactive)
REMARK    1  A    between atoms: C_4  and  O_5 
REMARK    2  A    between atoms: O_5  and  C_6 
REMARK    3  A    between atoms: C_6  and  C_7 
REMARK       I    between atoms: C_7  and  N_8 
REMARK    4  A    between atoms: N_8  and  N_9 
REMARK    5  A    between atoms: C_10  and  C_11 
REMARK    6  A    between atoms: C_23  and  C_24 
ROOT
HETATM    1  C   UNL     1      41.161 -16.293   3.224  1.00  0.00     0.261 C 
HETATM    2  N   UNL     1      39.883 -16.427   2.688  1.00  0.00    -0.246 N 
HETATM    3  O   UNL     1      41.852 -15.277   3.198  1.00  0.00    -0.269 OA
HETATM    4  H   UNL     1      39.327 -17.217   3.010  1.00  0.00     0.192 HD
ENDROOT
BRANCH   2   5
HETATM    5  N   UNL     1      39.161 -15.463   2.017  1.00  0.00    -0.184 NA
HETATM    6  C   UNL     1      39.693 -14.880   0.992  1.00  0.00     0.152 C 
BRANCH   6   7
HETATM    7  C   UNL     1      38.964 -13.857   0.264  1.00  0.00     0.011 A 
HETATM    8  C   UNL     1      39.348 -13.060  -0.864  1.00  0.00     0.005 A 
HETATM    9  C   UNL     1      38.278 -12.210  -1.159  1.00  0.00     0.043 A 
HETATM   10  C   UNL     1      40.512 -12.964  -1.658  1.00  0.00     0.033 A 
HETATM   11  C   UNL     1      38.307 -11.276  -2.202  1.00  0.00     0.031 A 
HETATM   12  N   UNL     1      37.278 -12.486  -0.257  1.00  0.00    -0.364 N 
HETATM   13  C   UNL     1      39.472 -11.198  -2.970  1.00  0.00     0.021 A 
HETATM   14  C   UNL     1      40.555 -12.031  -2.699  1.00  0.00     0.012 A 
HETATM   15 BR   UNL     1      42.119 -11.891  -3.756  1.00  0.00    -0.051 Br
HETATM   16  H   UNL     1      36.380 -12.023  -0.237  1.00  0.00     0.165 HD
HETATM   17  C   UNL     1      37.682 -13.463   0.610  1.00  0.00     0.102 A 
ENDBRANCH   6   7
ENDBRANCH   2   5
BRANCH   1  18
HETATM   18  C   UNL     1      41.709 -17.605   3.775  1.00  0.00     0.280 C 
BRANCH  18  19
HETATM   19  O   UNL     1      43.133 -17.638   3.752  1.00  0.00    -0.341 OA
BRANCH  19  20
HETATM   20  C   UNL     1      43.645 -18.916   3.776  1.00  0.00     0.076 A 
HETATM   21  C   UNL     1      43.639 -19.738   2.638  1.00  0.00     0.044 A 
HETATM   22  C   UNL     1      44.186 -21.025   2.676  1.00  0.00    -0.059 A 
HETATM   23  C   UNL     1      44.228 -21.879   1.444  1.00  0.00     0.048 C 
HETATM   24  C   UNL     1      44.745 -21.483   3.869  1.00  0.00     0.007 A 
HETATM   25  C   UNL     1      44.726 -20.683   5.014  1.00  0.00     0.011 A 
HETATM   26  C   UNL     1      44.159 -19.396   4.996  1.00  0.00    -0.021 A 
BRANCH  26  27
HETATM   27  C   UNL     1      44.167 -18.528   6.247  1.00  0.00     0.013 C 
HETATM   28  C   UNL     1      43.739 -19.282   7.513  1.00  0.00     0.015 C 
HETATM   29  C   UNL     1      45.547 -17.894   6.444  1.00  0.00     0.015 C 
ENDBRANCH  26  27
ENDBRANCH  19  20
ENDBRANCH  18  19
ENDBRANCH   1  18
TORSDOF 6
ENDMDL
