MODEL 1
REMARK VINA RESULT:      -6.9      0.000      0.000
REMARK  9 active torsions:
REMARK  status: ('A' for Active; 'I' for Inactive)
REMARK    1  A    between atoms: C_2  and  C_3 
REMARK    2  A    between atoms: C_7  and  C_8 
REMARK    3  A    between atoms: C_8  and  C_9 
REMARK       I    between atoms: C_9  and  N_10 
REMARK    4  A    between atoms: N_10  and  C_11 
REMARK    5  A    between atoms: C_11  and  C_12 
REMARK    6  A    between atoms: C_12  and  C_13 
REMARK    7  A    between atoms: C_21  and  C_22 
REMARK    8  A    between atoms: C_32  and  C_33 
REMARK    9  A    between atoms: C_33  and  O_34 
ROOT
HETATM    1  C   UNL     1      41.013 -14.534   1.014  1.00  0.00     0.051 C 
HETATM    2  N   UNL     1      40.744 -13.180   0.990  1.00  0.00    -0.228 NA
HETATM    3  C   UNL     1      40.167 -12.646   2.005  1.00  0.00     0.170 C 
HETATM    4  N   UNL     1      39.873 -13.359   3.346  1.00  0.00    -0.318 N 
HETATM    5  C   UNL     1      39.271 -12.571   4.177  1.00  0.00     0.011 C 
HETATM    6  C   UNL     1      40.502 -14.698   3.471  1.00  0.00     0.166 C 
HETATM    7  S   UNL     1      39.670 -10.987   2.024  1.00  0.00    -0.086 SA
HETATM    8  C   UNL     1      38.883 -11.211   3.639  1.00  0.00     0.135 C 
HETATM    9  C   UNL     1      40.826 -15.289   2.119  1.00  0.00     0.069 C 
ENDROOT
BRANCH   5  10
HETATM   10  C   UNL     1      39.073 -12.939   5.620  1.00  0.00     0.156 C 
BRANCH  10  11
HETATM   11  C   UNL     1      39.706 -11.951   6.570  1.00  0.00     0.222 C 
HETATM   12  N   UNL     1      41.003 -11.606   6.282  1.00  0.00    -0.361 N 
HETATM   13  H   UNL     1      41.475 -12.018   5.481  1.00  0.00     0.162 HD
HETATM   14  O   UNL     1      39.073 -11.509   7.522  1.00  0.00    -0.273 OA
BRANCH  12  15
HETATM   15  C   UNL     1      41.749 -10.644   7.081  1.00  0.00     0.124 C 
BRANCH  15  16
HETATM   16  C   UNL     1      42.602 -11.343   8.144  1.00  0.00     0.053 C 
BRANCH  16  17
HETATM   17  C   UNL     1      42.707 -10.531   9.445  1.00  0.00     0.189 C 
HETATM   18  N   UNL     1      42.589 -11.494  10.635  1.00  0.00    -0.071 N 
HETATM   19  H   UNL     1      42.523 -12.460  10.286  1.00  0.00     0.279 HD
HETATM   20  C   UNL     1      43.771 -11.456  11.564  1.00  0.00     0.270 C 
HETATM   21  C   UNL     1      41.280 -11.199  11.351  1.00  0.00     0.235 C 
HETATM   22  C   UNL     1      40.491 -10.374  10.357  1.00  0.00     0.030 C 
HETATM   23  C   UNL     1      41.562  -9.547   9.673  1.00  0.00     0.035 C 
ENDBRANCH  16  17
ENDBRANCH  15  16
ENDBRANCH  12  15
ENDBRANCH  10  11
ENDBRANCH   5  10
BRANCH   6  24
HETATM   24  C   UNL     1      41.727 -14.582   4.392  1.00  0.00    -0.024 A 
HETATM   25  C   UNL     1      41.815 -15.227   5.649  1.00  0.00    -0.053 A 
HETATM   26  C   UNL     1      40.815 -16.229   6.172  1.00  0.00     0.049 C 
HETATM   27  C   UNL     1      42.962 -15.028   6.447  1.00  0.00     0.014 A 
HETATM   28  C   UNL     1      44.007 -14.192   6.046  1.00  0.00    -0.061 A 
HETATM   29  C   UNL     1      45.233 -14.030   6.898  1.00  0.00     0.048 C 
HETATM   30  C   UNL     1      43.936 -13.583   4.797  1.00  0.00     0.007 A 
HETATM   31  C   UNL     1      42.821 -13.779   3.982  1.00  0.00     0.011 A 
ENDBRANCH   6  24
BRANCH   9  32
HETATM   32  C   UNL     1      40.839 -16.775   2.131  1.00  0.00     0.293 C 
HETATM   33  O   UNL     1      39.842 -17.441   1.916  1.00  0.00    -0.259 OA
BRANCH  32  34
HETATM   34  O   UNL     1      42.107 -17.238   2.188  1.00  0.00    -0.323 OA
HETATM   35  C   UNL     1      42.393 -18.087   3.304  1.00  0.00     0.213 C 
ENDBRANCH  32  34
ENDBRANCH   9  32
BRANCH   1  36
HETATM   36  C   UNL     1      41.551 -15.046  -0.320  1.00  0.00     0.056 C 
HETATM   37  C   UNL     1      40.784 -14.517  -1.528  1.00  0.00     0.011 C 
ENDBRANCH   1  36
TORSDOF 9
ENDMDL
MODEL 2
REMARK VINA RESULT:      -6.7      4.182      7.539
REMARK  9 active torsions:
REMARK  status: ('A' for Active; 'I' for Inactive)
REMARK    1  A    between atoms: C_2  and  C_3 
REMARK    2  A    between atoms: C_7  and  C_8 
REMARK    3  A    between atoms: C_8  and  C_9 
REMARK       I    between atoms: C_9  and  N_10 
REMARK    4  A    between atoms: N_10  and  C_11 
REMARK    5  A    between atoms: C_11  and  C_12 
REMARK    6  A    between atoms: C_12  and  C_13 
REMARK    7  A    between atoms: C_21  and  C_22 
REMARK    8  A    between atoms: C_32  and  C_33 
REMARK    9  A    between atoms: C_33  and  O_34 
ROOT
HETATM    1  C   UNL     1      37.638 -11.459   0.325  1.00  0.00     0.051 C 
HETATM    2  N   UNL     1      37.758 -11.199   1.676  1.00  0.00    -0.228 NA
HETATM    3  C   UNL     1      38.708 -11.760   2.332  1.00  0.00     0.170 C 
HETATM    4  N   UNL     1      39.850 -12.599   1.713  1.00  0.00    -0.318 N 
HETATM    5  C   UNL     1      40.654 -13.047   2.622  1.00  0.00     0.011 C 
HETATM    6  C   UNL     1      39.899 -12.554   0.229  1.00  0.00     0.166 C 
HETATM    7  S   UNL     1      38.870 -11.602   4.049  1.00  0.00    -0.086 SA
HETATM    8  C   UNL     1      40.253 -12.771   4.055  1.00  0.00     0.135 C 
HETATM    9  C   UNL     1      38.565 -12.163  -0.360  1.00  0.00     0.069 C 
ENDROOT
BRANCH   5  10
HETATM   10  C   UNL     1      41.962 -13.698   2.276  1.00  0.00     0.156 C 
BRANCH  10  11
HETATM   11  C   UNL     1      41.832 -15.183   2.028  1.00  0.00     0.222 C 
HETATM   12  N   UNL     1      42.552 -15.667   0.965  1.00  0.00    -0.361 N 
HETATM   13  H   UNL     1      43.114 -15.036   0.398  1.00  0.00     0.162 HD
HETATM   14  O   UNL     1      41.123 -15.875   2.750  1.00  0.00    -0.273 OA
BRANCH  12  15
HETATM   15  C   UNL     1      42.560 -17.078   0.607  1.00  0.00     0.124 C 
BRANCH  15  16
HETATM   16  C   UNL     1      43.634 -17.845   1.384  1.00  0.00     0.053 C 
BRANCH  16  17
HETATM   17  C   UNL     1      43.037 -18.898   2.333  1.00  0.00     0.189 C 
HETATM   18  N   UNL     1      43.620 -18.678   3.737  1.00  0.00    -0.071 N 
HETATM   19  H   UNL     1      44.227 -17.847   3.727  1.00  0.00     0.279 HD
HETATM   20  C   UNL     1      42.579 -18.432   4.793  1.00  0.00     0.270 C 
HETATM   21  C   UNL     1      44.511 -19.866   4.068  1.00  0.00     0.235 C 
HETATM   22  C   UNL     1      44.749 -20.535   2.731  1.00  0.00     0.030 C 
HETATM   23  C   UNL     1      43.429 -20.338   2.010  1.00  0.00     0.035 C 
ENDBRANCH  16  17
ENDBRANCH  15  16
ENDBRANCH  12  15
ENDBRANCH  10  11
ENDBRANCH   5  10
BRANCH   6  24
HETATM   24  C   UNL     1      41.046 -11.624  -0.196  1.00  0.00    -0.024 A 
HETATM   25  C   UNL     1      42.086 -12.026  -1.069  1.00  0.00    -0.053 A 
HETATM   26  C   UNL     1      42.121 -13.336  -1.817  1.00  0.00     0.049 C 
HETATM   27  C   UNL     1      43.123 -11.117  -1.370  1.00  0.00     0.014 A 
HETATM   28  C   UNL     1      43.170  -9.837  -0.814  1.00  0.00    -0.061 A 
HETATM   29  C   UNL     1      44.264  -8.877  -1.184  1.00  0.00     0.048 C 
HETATM   30  C   UNL     1      42.132  -9.430   0.018  1.00  0.00     0.007 A 
HETATM   31  C   UNL     1      41.086 -10.304   0.317  1.00  0.00     0.011 A 
ENDBRANCH   6  24
BRANCH   9  32
HETATM   32  C   UNL     1      38.365 -12.700  -1.731  1.00  0.00     0.293 C 
HETATM   33  O   UNL     1      38.471 -12.007  -2.728  1.00  0.00    -0.259 OA
BRANCH  32  34
HETATM   34  O   UNL     1      38.279 -14.048  -1.706  1.00  0.00    -0.323 OA
HETATM   35  C   UNL     1      37.786 -14.647  -2.908  1.00  0.00     0.213 C 
ENDBRANCH  32  34
ENDBRANCH   9  32
BRANCH   1  36
HETATM   36  C   UNL     1      36.373 -10.850  -0.277  1.00  0.00     0.056 C 
HETATM   37  C   UNL     1      35.122 -11.098   0.561  1.00  0.00     0.011 C 
ENDBRANCH   1  36
TORSDOF 9
ENDMDL
MODEL 3
REMARK VINA RESULT:      -6.6      5.067      8.193
REMARK  9 active torsions:
REMARK  status: ('A' for Active; 'I' for Inactive)
REMARK    1  A    between atoms: C_2  and  C_3 
REMARK    2  A    between atoms: C_7  and  C_8 
REMARK    3  A    between atoms: C_8  and  C_9 
REMARK       I    between atoms: C_9  and  N_10 
REMARK    4  A    between atoms: N_10  and  C_11 
REMARK    5  A    between atoms: C_11  and  C_12 
REMARK    6  A    between atoms: C_12  and  C_13 
REMARK    7  A    between atoms: C_21  and  C_22 
REMARK    8  A    between atoms: C_32  and  C_33 
REMARK    9  A    between atoms: C_33  and  O_34 
ROOT
HETATM    1  C   UNL     1      41.934 -11.428  -2.606  1.00  0.00     0.051 C 
HETATM    2  N   UNL     1      41.658 -12.604  -3.274  1.00  0.00    -0.228 NA
HETATM    3  C   UNL     1      41.364 -13.650  -2.590  1.00  0.00     0.170 C 
HETATM    4  N   UNL     1      41.135 -13.686  -1.061  1.00  0.00    -0.318 N 
HETATM    5  C   UNL     1      40.866 -14.883  -0.651  1.00  0.00     0.011 C 
HETATM    6  C   UNL     1      41.078 -12.345  -0.426  1.00  0.00     0.166 C 
HETATM    7  S   UNL     1      41.127 -15.202  -3.323  1.00  0.00    -0.086 SA
HETATM    8  C   UNL     1      40.951 -15.976  -1.695  1.00  0.00     0.135 C 
HETATM    9  C   UNL     1      41.765 -11.299  -1.271  1.00  0.00     0.069 C 
ENDROOT
BRANCH   5  10
HETATM   10  C   UNL     1      40.385 -15.156   0.745  1.00  0.00     0.156 C 
BRANCH  10  11
HETATM   11  C   UNL     1      41.416 -15.863   1.594  1.00  0.00     0.222 C 
HETATM   12  N   UNL     1      42.639 -16.050   1.000  1.00  0.00    -0.361 N 
HETATM   13  H   UNL     1      42.798 -15.732   0.047  1.00  0.00     0.162 HD
HETATM   14  O   UNL     1      41.141 -16.228   2.731  1.00  0.00    -0.273 OA
BRANCH  12  15
HETATM   15  C   UNL     1      43.750 -16.687   1.691  1.00  0.00     0.124 C 
BRANCH  15  16
HETATM   16  C   UNL     1      43.886 -18.159   1.291  1.00  0.00     0.053 C 
BRANCH  16  17
HETATM   17  C   UNL     1      43.193 -19.108   2.283  1.00  0.00     0.189 C 
HETATM   18  N   UNL     1      43.881 -18.974   3.650  1.00  0.00    -0.071 N 
HETATM   19  H   UNL     1      44.605 -18.245   3.597  1.00  0.00     0.279 HD
HETATM   20  C   UNL     1      42.951 -18.571   4.760  1.00  0.00     0.270 C 
HETATM   21  C   UNL     1      44.601 -20.283   3.944  1.00  0.00     0.235 C 
HETATM   22  C   UNL     1      44.659 -20.983   2.604  1.00  0.00     0.030 C 
HETATM   23  C   UNL     1      43.345 -20.591   1.956  1.00  0.00     0.035 C 
ENDBRANCH  16  17
ENDBRANCH  15  16
ENDBRANCH  12  15
ENDBRANCH  10  11
ENDBRANCH   5  10
BRANCH   6  24
HETATM   24  C   UNL     1      39.610 -12.009  -0.119  1.00  0.00    -0.024 A 
HETATM   25  C   UNL     1      39.107 -11.864   1.197  1.00  0.00    -0.053 A 
HETATM   26  C   UNL     1      39.956 -11.855   2.444  1.00  0.00     0.049 C 
HETATM   27  C   UNL     1      37.733 -11.598   1.384  1.00  0.00     0.014 A 
HETATM   28  C   UNL     1      36.846 -11.495   0.310  1.00  0.00    -0.061 A 
HETATM   29  C   UNL     1      35.397 -11.172   0.537  1.00  0.00     0.048 C 
HETATM   30  C   UNL     1      37.345 -11.605  -0.984  1.00  0.00     0.007 A 
HETATM   31  C   UNL     1      38.702 -11.850  -1.196  1.00  0.00     0.011 A 
ENDBRANCH   6  24
BRANCH   9  32
HETATM   32  C   UNL     1      42.292 -10.166  -0.466  1.00  0.00     0.293 C 
HETATM   33  O   UNL     1      43.464 -10.080  -0.145  1.00  0.00    -0.259 OA
BRANCH  32  34
HETATM   34  O   UNL     1      41.362  -9.192  -0.352  1.00  0.00    -0.323 OA
HETATM   35  C   UNL     1      41.162  -8.697   0.976  1.00  0.00     0.213 C 
ENDBRANCH  32  34
ENDBRANCH   9  32
BRANCH   1  36
HETATM   36  C   UNL     1      42.419 -10.324  -3.541  1.00  0.00     0.056 C 
HETATM   37  C   UNL     1      42.297 -10.684  -5.020  1.00  0.00     0.011 C 
ENDBRANCH   1  36
TORSDOF 9
ENDMDL
MODEL 4
REMARK VINA RESULT:      -6.4      4.340      7.829
REMARK  9 active torsions:
REMARK  status: ('A' for Active; 'I' for Inactive)
REMARK    1  A    between atoms: C_2  and  C_3 
REMARK    2  A    between atoms: C_7  and  C_8 
REMARK    3  A    between atoms: C_8  and  C_9 
REMARK       I    between atoms: C_9  and  N_10 
REMARK    4  A    between atoms: N_10  and  C_11 
REMARK    5  A    between atoms: C_11  and  C_12 
REMARK    6  A    between atoms: C_12  and  C_13 
REMARK    7  A    between atoms: C_21  and  C_22 
REMARK    8  A    between atoms: C_32  and  C_33 
REMARK    9  A    between atoms: C_33  and  O_34 
ROOT
HETATM    1  C   UNL     1      37.697 -10.592   2.546  1.00  0.00     0.051 C 
HETATM    2  N   UNL     1      38.557 -10.947   3.567  1.00  0.00    -0.228 NA
HETATM    3  C   UNL     1      39.057 -12.130   3.571  1.00  0.00     0.170 C 
HETATM    4  N   UNL     1      38.907 -13.170   2.437  1.00  0.00    -0.318 N 
HETATM    5  C   UNL     1      39.509 -14.277   2.728  1.00  0.00     0.011 C 
HETATM    6  C   UNL     1      38.289 -12.631   1.199  1.00  0.00     0.166 C 
HETATM    7  S   UNL     1      40.042 -12.716   4.870  1.00  0.00    -0.086 SA
HETATM    8  C   UNL     1      40.105 -14.362   4.117  1.00  0.00     0.135 C 
HETATM    9  C   UNL     1      37.477 -11.388   1.477  1.00  0.00     0.069 C 
ENDROOT
BRANCH   5  10
HETATM   10  C   UNL     1      39.708 -15.366   1.713  1.00  0.00     0.156 C 
BRANCH  10  11
HETATM   11  C   UNL     1      41.146 -15.501   1.271  1.00  0.00     0.222 C 
HETATM   12  N   UNL     1      41.567 -16.784   1.023  1.00  0.00    -0.361 N 
HETATM   13  H   UNL     1      40.928 -17.565   1.152  1.00  0.00     0.162 HD
HETATM   14  O   UNL     1      41.857 -14.510   1.152  1.00  0.00    -0.273 OA
BRANCH  12  15
HETATM   15  C   UNL     1      42.914 -17.085   0.562  1.00  0.00     0.124 C 
BRANCH  15  16
HETATM   16  C   UNL     1      43.787 -17.621   1.700  1.00  0.00     0.053 C 
BRANCH  16  17
HETATM   17  C   UNL     1      43.078 -18.706   2.528  1.00  0.00     0.189 C 
HETATM   18  N   UNL     1      43.465 -18.527   4.004  1.00  0.00    -0.071 N 
HETATM   19  H   UNL     1      44.062 -17.694   4.100  1.00  0.00     0.279 HD
HETATM   20  C   UNL     1      42.290 -18.319   4.917  1.00  0.00     0.270 C 
HETATM   21  C   UNL     1      44.314 -19.722   4.415  1.00  0.00     0.235 C 
HETATM   22  C   UNL     1      44.735 -20.347   3.102  1.00  0.00     0.030 C 
HETATM   23  C   UNL     1      43.522 -20.133   2.217  1.00  0.00     0.035 C 
ENDBRANCH  16  17
ENDBRANCH  15  16
ENDBRANCH  12  15
ENDBRANCH  10  11
ENDBRANCH   5  10
BRANCH   6  24
HETATM   24  C   UNL     1      39.394 -12.412   0.153  1.00  0.00    -0.024 A 
HETATM   25  C   UNL     1      39.432 -13.092  -1.088  1.00  0.00    -0.053 A 
HETATM   26  C   UNL     1      38.331 -13.980  -1.615  1.00  0.00     0.049 C 
HETATM   27  C   UNL     1      40.510 -12.861  -1.969  1.00  0.00     0.014 A 
HETATM   28  C   UNL     1      41.558 -11.995  -1.644  1.00  0.00    -0.061 A 
HETATM   29  C   UNL     1      42.672 -11.737  -2.618  1.00  0.00     0.048 C 
HETATM   30  C   UNL     1      41.506 -11.302  -0.439  1.00  0.00     0.007 A 
HETATM   31  C   UNL     1      40.441 -11.501   0.440  1.00  0.00     0.011 A 
ENDBRANCH   6  24
BRANCH   9  32
HETATM   32  C   UNL     1      36.379 -11.190   0.496  1.00  0.00     0.293 C 
HETATM   33  O   UNL     1      35.237 -11.560   0.707  1.00  0.00    -0.259 OA
BRANCH  32  34
HETATM   34  O   UNL     1      36.778 -10.375  -0.505  1.00  0.00    -0.323 OA
HETATM   35  C   UNL     1      36.416 -10.809  -1.820  1.00  0.00     0.213 C 
ENDBRANCH  32  34
ENDBRANCH   9  32
BRANCH   1  36
HETATM   36  C   UNL     1      37.065  -9.220   2.766  1.00  0.00     0.056 C 
HETATM   37  C   UNL     1      37.843  -8.081   2.114  1.00  0.00     0.011 C 
ENDBRANCH   1  36
TORSDOF 9
ENDMDL
MODEL 5
REMARK VINA RESULT:      -6.3      2.718      7.293
REMARK  9 active torsions:
REMARK  status: ('A' for Active; 'I' for Inactive)
REMARK    1  A    between atoms: C_2  and  C_3 
REMARK    2  A    between atoms: C_7  and  C_8 
REMARK    3  A    between atoms: C_8  and  C_9 
REMARK       I    between atoms: C_9  and  N_10 
REMARK    4  A    between atoms: N_10  and  C_11 
REMARK    5  A    between atoms: C_11  and  C_12 
REMARK    6  A    between atoms: C_12  and  C_13 
REMARK    7  A    between atoms: C_21  and  C_22 
REMARK    8  A    between atoms: C_32  and  C_33 
REMARK    9  A    between atoms: C_33  and  O_34 
ROOT
HETATM    1  C   UNL     1      39.048 -10.528   3.901  1.00  0.00     0.051 C 
HETATM    2  N   UNL     1      38.231 -11.068   2.928  1.00  0.00    -0.228 NA
HETATM    3  C   UNL     1      38.751 -11.831   2.036  1.00  0.00     0.170 C 
HETATM    4  N   UNL     1      40.213 -12.337   2.032  1.00  0.00    -0.318 N 
HETATM    5  C   UNL     1      40.453 -13.079   1.000  1.00  0.00     0.011 C 
HETATM    6  C   UNL     1      40.960 -12.039   3.280  1.00  0.00     0.166 C 
HETATM    7  S   UNL     1      37.840 -12.454   0.701  1.00  0.00    -0.086 SA
HETATM    8  C   UNL     1      39.333 -13.189  -0.013  1.00  0.00     0.135 C 
HETATM    9  C   UNL     1      40.344 -10.886   4.036  1.00  0.00     0.069 C 
ENDROOT
BRANCH   5  10
HETATM   10  C   UNL     1      41.719 -13.876   0.871  1.00  0.00     0.156 C 
BRANCH  10  11
HETATM   11  C   UNL     1      41.507 -15.356   1.088  1.00  0.00     0.222 C 
HETATM   12  N   UNL     1      42.558 -16.160   0.725  1.00  0.00    -0.361 N 
HETATM   13  H   UNL     1      43.401 -15.752   0.330  1.00  0.00     0.162 HD
HETATM   14  O   UNL     1      40.454 -15.771   1.559  1.00  0.00    -0.273 OA
BRANCH  12  15
HETATM   15  C   UNL     1      42.526 -17.606   0.896  1.00  0.00     0.124 C 
BRANCH  15  16
HETATM   16  C   UNL     1      43.673 -18.088   1.789  1.00  0.00     0.053 C 
BRANCH  16  17
HETATM   17  C   UNL     1      43.247 -19.221   2.738  1.00  0.00     0.189 C 
HETATM   18  N   UNL     1      44.287 -19.335   3.863  1.00  0.00    -0.071 N 
HETATM   19  H   UNL     1      44.992 -18.595   3.750  1.00  0.00     0.279 HD
HETATM   20  C   UNL     1      43.709 -19.169   5.240  1.00  0.00     0.270 C 
HETATM   21  C   UNL     1      45.015 -20.661   3.696  1.00  0.00     0.235 C 
HETATM   22  C   UNL     1      44.680 -21.093   2.285  1.00  0.00     0.030 C 
HETATM   23  C   UNL     1      43.254 -20.612   2.108  1.00  0.00     0.035 C 
ENDBRANCH  16  17
ENDBRANCH  15  16
ENDBRANCH  12  15
ENDBRANCH  10  11
ENDBRANCH   5  10
BRANCH   6  24
HETATM   24  C   UNL     1      41.058 -13.327   4.113  1.00  0.00    -0.024 A 
HETATM   25  C   UNL     1      42.260 -14.057   4.273  1.00  0.00    -0.053 A 
HETATM   26  C   UNL     1      43.615 -13.594   3.797  1.00  0.00     0.049 C 
HETATM   27  C   UNL     1      42.246 -15.254   5.021  1.00  0.00     0.014 A 
HETATM   28  C   UNL     1      41.075 -15.756   5.592  1.00  0.00    -0.061 A 
HETATM   29  C   UNL     1      41.097 -17.011   6.416  1.00  0.00     0.048 C 
HETATM   30  C   UNL     1      39.899 -15.023   5.463  1.00  0.00     0.007 A 
HETATM   31  C   UNL     1      39.891 -13.828   4.744  1.00  0.00     0.011 A 
ENDBRANCH   6  24
BRANCH   9  32
HETATM   32  C   UNL     1      41.332 -10.156   4.873  1.00  0.00     0.293 C 
HETATM   33  O   UNL     1      41.776  -9.066   4.561  1.00  0.00    -0.259 OA
BRANCH  32  34
HETATM   34  O   UNL     1      41.472 -10.758   6.074  1.00  0.00    -0.323 OA
HETATM   35  C   UNL     1      41.431  -9.877   7.202  1.00  0.00     0.213 C 
ENDBRANCH  32  34
ENDBRANCH   9  32
BRANCH   1  36
HETATM   36  C   UNL     1      38.316  -9.522   4.786  1.00  0.00     0.056 C 
HETATM   37  C   UNL     1      38.090  -8.172   4.112  1.00  0.00     0.011 C 
ENDBRANCH   1  36
TORSDOF 9
ENDMDL
MODEL 6
REMARK VINA RESULT:      -6.3      3.183      5.870
REMARK  9 active torsions:
REMARK  status: ('A' for Active; 'I' for Inactive)
REMARK    1  A    between atoms: C_2  and  C_3 
REMARK    2  A    between atoms: C_7  and  C_8 
REMARK    3  A    between atoms: C_8  and  C_9 
REMARK       I    between atoms: C_9  and  N_10 
REMARK    4  A    between atoms: N_10  and  C_11 
REMARK    5  A    between atoms: C_11  and  C_12 
REMARK    6  A    between atoms: C_12  and  C_13 
REMARK    7  A    between atoms: C_21  and  C_22 
REMARK    8  A    between atoms: C_32  and  C_33 
REMARK    9  A    between atoms: C_33  and  O_34 
ROOT
HETATM    1  C   UNL     1      40.441 -10.053   1.954  1.00  0.00     0.051 C 
HETATM    2  N   UNL     1      40.969  -9.690   3.177  1.00  0.00    -0.228 NA
HETATM    3  C   UNL     1      40.702 -10.411   4.205  1.00  0.00     0.170 C 
HETATM    4  N   UNL     1      39.953 -11.764   4.180  1.00  0.00    -0.318 N 
HETATM    5  C   UNL     1      39.821 -12.253   5.370  1.00  0.00     0.011 C 
HETATM    6  C   UNL     1      39.723 -12.304   2.816  1.00  0.00     0.166 C 
HETATM    7  S   UNL     1      41.207  -9.973   5.803  1.00  0.00    -0.086 SA
HETATM    8  C   UNL     1      40.297 -11.372   6.505  1.00  0.00     0.135 C 
HETATM    9  C   UNL     1      39.777 -11.216   1.770  1.00  0.00     0.069 C 
ENDROOT
BRANCH   5  10
HETATM   10  C   UNL     1      39.334 -13.654   5.605  1.00  0.00     0.156 C 
BRANCH  10  11
HETATM   11  C   UNL     1      40.452 -14.619   5.920  1.00  0.00     0.222 C 
HETATM   12  N   UNL     1      40.058 -15.901   6.212  1.00  0.00    -0.361 N 
HETATM   13  H   UNL     1      39.070 -16.143   6.217  1.00  0.00     0.162 HD
HETATM   14  O   UNL     1      41.620 -14.246   5.906  1.00  0.00    -0.273 OA
BRANCH  12  15
HETATM   15  C   UNL     1      41.012 -16.960   6.509  1.00  0.00     0.124 C 
BRANCH  15  16
HETATM   16  C   UNL     1      41.577 -17.579   5.228  1.00  0.00     0.053 C 
BRANCH  16  17
HETATM   17  C   UNL     1      43.103 -17.761   5.283  1.00  0.00     0.189 C 
HETATM   18  N   UNL     1      43.423 -19.259   5.155  1.00  0.00    -0.071 N 
HETATM   19  H   UNL     1      42.549 -19.781   5.008  1.00  0.00     0.279 HD
HETATM   20  C   UNL     1      44.319 -19.590   3.995  1.00  0.00     0.270 C 
HETATM   21  C   UNL     1      43.995 -19.731   6.484  1.00  0.00     0.235 C 
HETATM   22  C   UNL     1      43.628 -18.633   7.458  1.00  0.00     0.030 C 
HETATM   23  C   UNL     1      43.740 -17.377   6.616  1.00  0.00     0.035 C 
ENDBRANCH  16  17
ENDBRANCH  15  16
ENDBRANCH  12  15
ENDBRANCH  10  11
ENDBRANCH   5  10
BRANCH   6  24
HETATM   24  C   UNL     1      40.727 -13.440   2.561  1.00  0.00    -0.024 A 
HETATM   25  C   UNL     1      40.337 -14.747   2.180  1.00  0.00    -0.053 A 
HETATM   26  C   UNL     1      38.929 -15.152   1.818  1.00  0.00     0.049 C 
HETATM   27  C   UNL     1      41.327 -15.739   2.010  1.00  0.00     0.014 A 
HETATM   28  C   UNL     1      42.681 -15.478   2.229  1.00  0.00    -0.061 A 
HETATM   29  C   UNL     1      43.716 -16.543   2.002  1.00  0.00     0.048 C 
HETATM   30  C   UNL     1      43.068 -14.187   2.572  1.00  0.00     0.007 A 
HETATM   31  C   UNL     1      42.111 -13.184   2.728  1.00  0.00     0.011 A 
ENDBRANCH   6  24
BRANCH   9  32
HETATM   32  C   UNL     1      38.964 -11.536   0.568  1.00  0.00     0.293 C 
HETATM   33  O   UNL     1      39.421 -12.130  -0.392  1.00  0.00    -0.259 OA
BRANCH  32  34
HETATM   34  O   UNL     1      37.657 -11.280   0.796  1.00  0.00    -0.323 OA
HETATM   35  C   UNL     1      36.743 -12.179   0.161  1.00  0.00     0.213 C 
ENDBRANCH  32  34
ENDBRANCH   9  32
BRANCH   1  36
HETATM   36  C   UNL     1      40.714  -9.015   0.868  1.00  0.00     0.056 C 
HETATM   37  C   UNL     1      39.686  -7.888   0.834  1.00  0.00     0.011 C 
ENDBRANCH   1  36
TORSDOF 9
ENDMDL
MODEL 7
REMARK VINA RESULT:      -6.3      2.280      7.109
REMARK  9 active torsions:
REMARK  status: ('A' for Active; 'I' for Inactive)
REMARK    1  A    between atoms: C_2  and  C_3 
REMARK    2  A    between atoms: C_7  and  C_8 
REMARK    3  A    between atoms: C_8  and  C_9 
REMARK       I    between atoms: C_9  and  N_10 
REMARK    4  A    between atoms: N_10  and  C_11 
REMARK    5  A    between atoms: C_11  and  C_12 
REMARK    6  A    between atoms: C_12  and  C_13 
REMARK    7  A    between atoms: C_21  and  C_22 
REMARK    8  A    between atoms: C_32  and  C_33 
REMARK    9  A    between atoms: C_33  and  O_34 
ROOT
HETATM    1  C   UNL     1      39.427 -10.046   5.835  1.00  0.00     0.051 C 
HETATM    2  N   UNL     1      38.643 -10.217   4.711  1.00  0.00    -0.228 NA
HETATM    3  C   UNL     1      39.164 -10.760   3.670  1.00  0.00     0.170 C 
HETATM    4  N   UNL     1      40.574 -11.394   3.601  1.00  0.00    -0.318 N 
HETATM    5  C   UNL     1      40.828 -11.850   2.418  1.00  0.00     0.011 C 
HETATM    6  C   UNL     1      41.245 -11.522   4.919  1.00  0.00     0.166 C 
HETATM    7  S   UNL     1      38.308 -10.904   2.171  1.00  0.00    -0.086 SA
HETATM    8  C   UNL     1      39.785 -11.568   1.359  1.00  0.00     0.135 C 
HETATM    9  C   UNL     1      40.673 -10.558   5.931  1.00  0.00     0.069 C 
ENDROOT
BRANCH   5  10
HETATM   10  C   UNL     1      42.029 -12.708   2.138  1.00  0.00     0.156 C 
BRANCH  10  11
HETATM   11  C   UNL     1      41.668 -14.040   1.523  1.00  0.00     0.222 C 
HETATM   12  N   UNL     1      41.111 -14.954   2.383  1.00  0.00    -0.361 N 
HETATM   13  H   UNL     1      40.976 -14.717   3.363  1.00  0.00     0.162 HD
HETATM   14  O   UNL     1      41.874 -14.253   0.334  1.00  0.00    -0.273 OA
BRANCH  12  15
HETATM   15  C   UNL     1      40.680 -16.274   1.944  1.00  0.00     0.124 C 
BRANCH  15  16
HETATM   16  C   UNL     1      41.233 -17.373   2.856  1.00  0.00     0.053 C 
BRANCH  16  17
HETATM   17  C   UNL     1      42.679 -17.760   2.503  1.00  0.00     0.189 C 
HETATM   18  N   UNL     1      42.916 -19.215   2.936  1.00  0.00    -0.071 N 
HETATM   19  H   UNL     1      42.040 -19.605   3.309  1.00  0.00     0.279 HD
HETATM   20  C   UNL     1      43.343 -20.119   1.814  1.00  0.00     0.270 C 
HETATM   21  C   UNL     1      43.914 -19.206   4.085  1.00  0.00     0.235 C 
HETATM   22  C   UNL     1      43.926 -17.768   4.555  1.00  0.00     0.030 C 
HETATM   23  C   UNL     1      43.749 -16.986   3.269  1.00  0.00     0.035 C 
ENDBRANCH  16  17
ENDBRANCH  15  16
ENDBRANCH  12  15
ENDBRANCH  10  11
ENDBRANCH   5  10
BRANCH   6  24
HETATM   24  C   UNL     1      41.170 -12.990   5.368  1.00  0.00    -0.024 A 
HETATM   25  C   UNL     1      42.315 -13.790   5.597  1.00  0.00    -0.053 A 
HETATM   26  C   UNL     1      43.735 -13.278   5.592  1.00  0.00     0.049 C 
HETATM   27  C   UNL     1      42.149 -15.142   5.965  1.00  0.00     0.014 A 
HETATM   28  C   UNL     1      40.886 -15.725   6.091  1.00  0.00    -0.061 A 
HETATM   29  C   UNL     1      40.738 -17.156   6.524  1.00  0.00     0.048 C 
HETATM   30  C   UNL     1      39.760 -14.932   5.899  1.00  0.00     0.007 A 
HETATM   31  C   UNL     1      39.898 -13.588   5.551  1.00  0.00     0.011 A 
ENDBRANCH   6  24
BRANCH   9  32
HETATM   32  C   UNL     1      41.653 -10.186   6.986  1.00  0.00     0.293 C 
HETATM   33  O   UNL     1      42.150  -9.077   7.056  1.00  0.00    -0.259 OA
BRANCH  32  34
HETATM   34  O   UNL     1      41.720 -11.149   7.931  1.00  0.00    -0.323 OA
HETATM   35  C   UNL     1      42.733 -10.955   8.923  1.00  0.00     0.213 C 
ENDBRANCH  32  34
ENDBRANCH   9  32
BRANCH   1  36
HETATM   36  C   UNL     1      38.717  -9.247   6.925  1.00  0.00     0.056 C 
HETATM   37  C   UNL     1      38.698  -7.744   6.662  1.00  0.00     0.011 C 
ENDBRANCH   1  36
TORSDOF 9
ENDMDL
MODEL 8
REMARK VINA RESULT:      -6.1      3.941      7.069
REMARK  9 active torsions:
REMARK  status: ('A' for Active; 'I' for Inactive)
REMARK    1  A    between atoms: C_2  and  C_3 
REMARK    2  A    between atoms: C_7  and  C_8 
REMARK    3  A    between atoms: C_8  and  C_9 
REMARK       I    between atoms: C_9  and  N_10 
REMARK    4  A    between atoms: N_10  and  C_11 
REMARK    5  A    between atoms: C_11  and  C_12 
REMARK    6  A    between atoms: C_12  and  C_13 
REMARK    7  A    between atoms: C_21  and  C_22 
REMARK    8  A    between atoms: C_32  and  C_33 
REMARK    9  A    between atoms: C_33  and  O_34 
ROOT
HETATM    1  C   UNL     1      41.941 -12.765  -1.836  1.00  0.00     0.051 C 
HETATM    2  N   UNL     1      41.664 -14.117  -1.868  1.00  0.00    -0.228 NA
HETATM    3  C   UNL     1      41.363 -14.712  -0.771  1.00  0.00     0.170 C 
HETATM    4  N   UNL     1      41.125 -14.017   0.590  1.00  0.00    -0.318 N 
HETATM    5  C   UNL     1      40.849 -14.875   1.517  1.00  0.00     0.011 C 
HETATM    6  C   UNL     1      41.070 -12.535   0.511  1.00  0.00     0.166 C 
HETATM    7  S   UNL     1      41.124 -16.425  -0.680  1.00  0.00    -0.086 SA
HETATM    8  C   UNL     1      40.936 -16.333   1.119  1.00  0.00     0.135 C 
HETATM    9  C   UNL     1      41.765 -12.017  -0.725  1.00  0.00     0.069 C 
ENDROOT
BRANCH   5  10
HETATM   10  C   UNL     1      40.359 -14.452   2.872  1.00  0.00     0.156 C 
BRANCH  10  11
HETATM   11  C   UNL     1      41.388 -14.656   3.960  1.00  0.00     0.222 C 
HETATM   12  N   UNL     1      40.974 -15.416   5.025  1.00  0.00    -0.361 N 
HETATM   13  H   UNL     1      40.029 -15.789   5.051  1.00  0.00     0.162 HD
HETATM   14  O   UNL     1      42.505 -14.162   3.860  1.00  0.00    -0.273 OA
BRANCH  12  15
HETATM   15  C   UNL     1      41.853 -15.732   6.143  1.00  0.00     0.124 C 
BRANCH  15  16
HETATM   16  C   UNL     1      42.354 -17.177   6.068  1.00  0.00     0.053 C 
BRANCH  16  17
HETATM   17  C   UNL     1      43.691 -17.299   5.317  1.00  0.00     0.189 C 
HETATM   18  N   UNL     1      43.456 -18.099   4.027  1.00  0.00    -0.071 N 
HETATM   19  H   UNL     1      42.454 -18.318   3.940  1.00  0.00     0.279 HD
HETATM   20  C   UNL     1      43.842 -17.360   2.776  1.00  0.00     0.270 C 
HETATM   21  C   UNL     1      44.182 -19.430   4.160  1.00  0.00     0.235 C 
HETATM   22  C   UNL     1      44.475 -19.546   5.640  1.00  0.00     0.030 C 
HETATM   23  C   UNL     1      44.757 -18.113   6.047  1.00  0.00     0.035 C 
ENDBRANCH  16  17
ENDBRANCH  15  16
ENDBRANCH  12  15
ENDBRANCH  10  11
ENDBRANCH   5  10
BRANCH   6  24
HETATM   24  C   UNL     1      39.601 -12.093   0.612  1.00  0.00    -0.024 A 
HETATM   25  C   UNL     1      39.090 -11.345   1.700  1.00  0.00    -0.053 A 
HETATM   26  C   UNL     1      39.930 -10.751   2.803  1.00  0.00     0.049 C 
HETATM   27  C   UNL     1      37.716 -11.020   1.729  1.00  0.00     0.014 A 
HETATM   28  C   UNL     1      36.837 -11.434   0.725  1.00  0.00    -0.061 A 
HETATM   29  C   UNL     1      35.388 -11.040   0.761  1.00  0.00     0.048 C 
HETATM   30  C   UNL     1      37.344 -12.141  -0.361  1.00  0.00     0.007 A 
HETATM   31  C   UNL     1      38.701 -12.458  -0.421  1.00  0.00     0.011 A 
ENDBRANCH   6  24
BRANCH   9  32
HETATM   32  C   UNL     1      42.292 -10.638  -0.551  1.00  0.00     0.293 C 
HETATM   33  O   UNL     1      43.455 -10.411  -0.267  1.00  0.00    -0.259 OA
BRANCH  32  34
HETATM   34  O   UNL     1      41.381  -9.727  -0.960  1.00  0.00    -0.323 OA
HETATM   35  C   UNL     1      41.177  -8.630  -0.064  1.00  0.00     0.213 C 
ENDBRANCH  32  34
ENDBRANCH   9  32
BRANCH   1  36
HETATM   36  C   UNL     1      42.436 -12.238  -3.181  1.00  0.00     0.056 C 
HETATM   37  C   UNL     1      41.326 -11.655  -4.051  1.00  0.00     0.011 C 
ENDBRANCH   1  36
TORSDOF 9
ENDMDL
MODEL 9
REMARK VINA RESULT:      -6.0      3.569      6.673
REMARK  9 active torsions:
REMARK  status: ('A' for Active; 'I' for Inactive)
REMARK    1  A    between atoms: C_2  and  C_3 
REMARK    2  A    between atoms: C_7  and  C_8 
REMARK    3  A    between atoms: C_8  and  C_9 
REMARK       I    between atoms: C_9  and  N_10 
REMARK    4  A    between atoms: N_10  and  C_11 
REMARK    5  A    between atoms: C_11  and  C_12 
REMARK    6  A    between atoms: C_12  and  C_13 
REMARK    7  A    between atoms: C_21  and  C_22 
REMARK    8  A    between atoms: C_32  and  C_33 
REMARK    9  A    between atoms: C_33  and  O_34 
ROOT
HETATM    1  C   UNL     1      36.893 -11.213   1.253  1.00  0.00     0.051 C 
HETATM    2  N   UNL     1      37.024 -10.212   2.195  1.00  0.00    -0.228 NA
HETATM    3  C   UNL     1      37.982 -10.286   3.047  1.00  0.00     0.170 C 
HETATM    4  N   UNL     1      39.120 -11.334   3.027  1.00  0.00    -0.318 N 
HETATM    5  C   UNL     1      39.933 -11.167   4.019  1.00  0.00     0.011 C 
HETATM    6  C   UNL     1      39.156 -12.165   1.797  1.00  0.00     0.166 C 
HETATM    7  S   UNL     1      38.159  -9.154   4.346  1.00  0.00    -0.086 SA
HETATM    8  C   UNL     1      39.544 -10.103   5.023  1.00  0.00     0.135 C 
HETATM    9  C   UNL     1      37.815 -12.188   1.102  1.00  0.00     0.069 C 
ENDROOT
BRANCH   5  10
HETATM   10  C   UNL     1      41.239 -11.902   4.109  1.00  0.00     0.156 C 
BRANCH  10  11
HETATM   11  C   UNL     1      41.146 -13.169   4.925  1.00  0.00     0.222 C 
HETATM   12  N   UNL     1      41.104 -14.334   4.200  1.00  0.00    -0.361 N 
HETATM   13  H   UNL     1      41.124 -14.305   3.184  1.00  0.00     0.162 HD
HETATM   14  O   UNL     1      41.114 -13.121   6.149  1.00  0.00    -0.273 OA
BRANCH  12  15
HETATM   15  C   UNL     1      41.043 -15.644   4.834  1.00  0.00     0.124 C 
BRANCH  15  16
HETATM   16  C   UNL     1      41.254 -16.767   3.816  1.00  0.00     0.053 C 
BRANCH  16  17
HETATM   17  C   UNL     1      42.725 -16.908   3.389  1.00  0.00     0.189 C 
HETATM   18  N   UNL     1      42.815 -17.971   2.284  1.00  0.00    -0.071 N 
HETATM   19  H   UNL     1      41.868 -18.299   2.050  1.00  0.00     0.279 HD
HETATM   20  C   UNL     1      43.420 -17.465   1.004  1.00  0.00     0.270 C 
HETATM   21  C   UNL     1      43.566 -19.170   2.845  1.00  0.00     0.235 C 
HETATM   22  C   UNL     1      43.541 -18.956   4.343  1.00  0.00     0.030 C 
HETATM   23  C   UNL     1      43.652 -17.449   4.475  1.00  0.00     0.035 C 
ENDBRANCH  16  17
ENDBRANCH  15  16
ENDBRANCH  12  15
ENDBRANCH  10  11
ENDBRANCH   5  10
BRANCH   6  24
HETATM   24  C   UNL     1      40.297 -11.664   0.898  1.00  0.00    -0.024 A 
HETATM   25  C   UNL     1      41.370 -12.486   0.478  1.00  0.00    -0.053 A 
HETATM   26  C   UNL     1      41.453 -13.975   0.710  1.00  0.00     0.049 C 
HETATM   27  C   UNL     1      42.398 -11.928  -0.312  1.00  0.00     0.014 A 
HETATM   28  C   UNL     1      42.403 -10.579  -0.675  1.00  0.00    -0.061 A 
HETATM   29  C   UNL     1      43.489 -10.021  -1.550  1.00  0.00     0.048 C 
HETATM   30  C   UNL     1      41.333  -9.778  -0.290  1.00  0.00     0.007 A 
HETATM   31  C   UNL     1      40.296 -10.311   0.476  1.00  0.00     0.011 A 
ENDBRANCH   6  24
BRANCH   9  32
HETATM   32  C   UNL     1      37.604 -13.426   0.305  1.00  0.00     0.293 C 
HETATM   33  O   UNL     1      37.173 -14.454   0.795  1.00  0.00    -0.259 OA
BRANCH  32  34
HETATM   34  O   UNL     1      37.740 -13.170  -1.014  1.00  0.00    -0.323 OA
HETATM   35  C   UNL     1      38.625 -14.051  -1.715  1.00  0.00     0.213 C 
ENDBRANCH  32  34
ENDBRANCH   9  32
BRANCH   1  36
HETATM   36  C   UNL     1      35.622 -11.068   0.420  1.00  0.00     0.056 C 
HETATM   37  C   UNL     1      34.419 -10.584   1.226  1.00  0.00     0.011 C 
ENDBRANCH   1  36
TORSDOF 9
ENDMDL
MODEL 10
REMARK VINA RESULT:      -6.0      4.198      7.394
REMARK  9 active torsions:
REMARK  status: ('A' for Active; 'I' for Inactive)
REMARK    1  A    between atoms: C_2  and  C_3 
REMARK    2  A    between atoms: C_7  and  C_8 
REMARK    3  A    between atoms: C_8  and  C_9 
REMARK       I    between atoms: C_9  and  N_10 
REMARK    4  A    between atoms: N_10  and  C_11 
REMARK    5  A    between atoms: C_11  and  C_12 
REMARK    6  A    between atoms: C_12  and  C_13 
REMARK    7  A    between atoms: C_21  and  C_22 
REMARK    8  A    between atoms: C_32  and  C_33 
REMARK    9  A    between atoms: C_33  and  O_34 
ROOT
HETATM    1  C   UNL     1      37.941 -10.542   2.287  1.00  0.00     0.051 C 
HETATM    2  N   UNL     1      38.753 -10.837   3.364  1.00  0.00    -0.228 NA
HETATM    3  C   UNL     1      39.159 -12.045   3.520  1.00  0.00     0.170 C 
HETATM    4  N   UNL     1      38.947 -13.199   2.513  1.00  0.00    -0.318 N 
HETATM    5  C   UNL     1      39.456 -14.306   2.948  1.00  0.00     0.011 C 
HETATM    6  C   UNL     1      38.393 -12.767   1.204  1.00  0.00     0.166 C 
HETATM    7  S   UNL     1      40.074 -12.545   4.904  1.00  0.00    -0.086 SA
HETATM    8  C   UNL     1      40.021 -14.269   4.352  1.00  0.00     0.135 C 
HETATM    9  C   UNL     1      37.677 -11.442   1.314  1.00  0.00     0.069 C 
ENDROOT
BRANCH   5  10
HETATM   10  C   UNL     1      39.586 -15.519   2.073  1.00  0.00     0.156 C 
BRANCH  10  11
HETATM   11  C   UNL     1      40.956 -16.152   2.146  1.00  0.00     0.222 C 
HETATM   12  N   UNL     1      41.101 -17.133   3.095  1.00  0.00    -0.361 N 
HETATM   13  H   UNL     1      40.320 -17.381   3.698  1.00  0.00     0.162 HD
HETATM   14  O   UNL     1      41.851 -15.789   1.392  1.00  0.00    -0.273 OA
BRANCH  12  15
HETATM   15  C   UNL     1      42.348 -17.863   3.276  1.00  0.00     0.124 C 
BRANCH  15  16
HETATM   16  C   UNL     1      43.101 -17.381   4.519  1.00  0.00     0.053 C 
BRANCH  16  17
HETATM   17  C   UNL     1      44.346 -18.232   4.822  1.00  0.00     0.189 C 
HETATM   18  N   UNL     1      43.945 -19.715   4.788  1.00  0.00    -0.071 N 
HETATM   19  H   UNL     1      42.956 -19.794   4.518  1.00  0.00     0.279 HD
HETATM   20  C   UNL     1      44.726 -20.530   3.795  1.00  0.00     0.270 C 
HETATM   21  C   UNL     1      44.057 -20.264   6.203  1.00  0.00     0.235 C 
HETATM   22  C   UNL     1      44.120 -19.030   7.076  1.00  0.00     0.030 C 
HETATM   23  C   UNL     1      44.911 -18.052   6.229  1.00  0.00     0.035 C 
ENDBRANCH  16  17
ENDBRANCH  15  16
ENDBRANCH  12  15
ENDBRANCH  10  11
ENDBRANCH   5  10
BRANCH   6  24
HETATM   24  C   UNL     1      39.529 -12.758   0.169  1.00  0.00    -0.024 A 
HETATM   25  C   UNL     1      39.457 -13.447  -1.066  1.00  0.00    -0.053 A 
HETATM   26  C   UNL     1      38.221 -14.131  -1.597  1.00  0.00     0.049 C 
HETATM   27  C   UNL     1      40.567 -13.419  -1.937  1.00  0.00     0.014 A 
HETATM   28  C   UNL     1      41.749 -12.751  -1.609  1.00  0.00    -0.061 A 
HETATM   29  C   UNL     1      42.900 -12.704  -2.572  1.00  0.00     0.048 C 
HETATM   30  C   UNL     1      41.809 -12.047  -0.410  1.00  0.00     0.007 A 
HETATM   31  C   UNL     1      40.719 -12.044   0.459  1.00  0.00     0.011 A 
ENDBRANCH   6  24
BRANCH   9  32
HETATM   32  C   UNL     1      36.613 -11.280   0.289  1.00  0.00     0.293 C 
HETATM   33  O   UNL     1      35.449 -11.571   0.500  1.00  0.00    -0.259 OA
BRANCH  32  34
HETATM   34  O   UNL     1      37.078 -10.582  -0.771  1.00  0.00    -0.323 OA
HETATM   35  C   UNL     1      36.542 -10.977  -2.039  1.00  0.00     0.213 C 
ENDBRANCH  32  34
ENDBRANCH   9  32
BRANCH   1  36
HETATM   36  C   UNL     1      37.413  -9.111   2.327  1.00  0.00     0.056 C 
HETATM   37  C   UNL     1      36.333  -8.890   3.383  1.00  0.00     0.011 C 
ENDBRANCH   1  36
TORSDOF 9
ENDMDL
