MODEL 1
REMARK VINA RESULT:      -9.4      0.000      0.000
REMARK  5 active torsions:
REMARK  status: ('A' for Active; 'I' for Inactive)
REMARK    1  A    between atoms: C_3  and  O_4 
REMARK    2  A    between atoms: C_8  and  C_9 
REMARK       I    between atoms: N_10  and  C_11 
REMARK    3  A    between atoms: C_11  and  C_12 
REMARK    4  A    between atoms: C_12  and  C_13 
REMARK    5  A    between atoms: C_13  and  C_14 
ROOT
HETATM    1  C   UNL     1      42.409 -15.356   2.595  1.00  0.00     0.171 C 
HETATM    2  N   UNL     1      41.610 -14.910   3.768  1.00  0.00    -0.338 N 
HETATM    3  C   UNL     1      42.164 -14.352   4.916  1.00  0.00     0.221 C 
HETATM    4  O   UNL     1      41.466 -14.006   5.871  1.00  0.00    -0.273 OA
HETATM    5  C   UNL     1      40.135 -15.032   3.684  1.00  0.00     0.131 C 
HETATM    6  C   UNL     1      39.554 -14.249   2.495  1.00  0.00     0.061 C 
HETATM    7  C   UNL     1      40.327 -14.585   1.269  1.00  0.00    -0.019 A 
HETATM    8  C   UNL     1      41.603 -15.112   1.348  1.00  0.00     0.044 A 
HETATM    9  N   UNL     1      42.047 -15.309   0.066  1.00  0.00    -0.356 N 
HETATM   10  H   UNL     1      42.941 -15.700  -0.196  1.00  0.00     0.166 HD
HETATM   11  C   UNL     1      41.106 -14.864  -0.836  1.00  0.00     0.043 A 
HETATM   12  C   UNL     1      40.006 -14.413  -0.103  1.00  0.00    -0.001 A 
HETATM   13  C   UNL     1      41.149 -14.822  -2.235  1.00  0.00     0.030 A 
HETATM   14  C   UNL     1      40.039 -14.299  -2.902  1.00  0.00     0.002 A 
HETATM   15  C   UNL     1      38.926 -13.845  -2.197  1.00  0.00     0.001 A 
HETATM   16  C   UNL     1      38.895 -13.898  -0.799  1.00  0.00     0.014 A 
ENDROOT
BRANCH   1  17
HETATM   17  C   UNL     1      42.946 -16.781   2.711  1.00  0.00    -0.029 A 
HETATM   18  C   UNL     1      43.385 -17.528   1.612  1.00  0.00     0.012 A 
HETATM   19  C   UNL     1      43.891 -18.824   1.769  1.00  0.00     0.038 A 
HETATM   20  C   UNL     1      43.979 -19.406   3.034  1.00  0.00     0.074 A 
HETATM   21  C   UNL     1      43.544 -18.680   4.154  1.00  0.00    -0.028 A 
HETATM   22  C   UNL     1      43.592 -19.281   5.533  1.00  0.00     0.051 C 
HETATM   23  C   UNL     1      43.019 -17.387   3.981  1.00  0.00     0.019 A 
BRANCH  20  24
HETATM   24  O   UNL     1      44.451 -20.668   3.282  1.00  0.00    -0.355 OA
HETATM   25  C   UNL     1      44.223 -21.655   2.284  1.00  0.00     0.210 C 
ENDBRANCH  20  24
ENDBRANCH   1  17
BRANCH   3  26
HETATM   26  C   UNL     1      43.666 -14.101   4.912  1.00  0.00     0.108 C 
BRANCH  26  27
HETATM   27  C   UNL     1      44.389 -14.695   6.120  1.00  0.00     0.051 C 
BRANCH  27  28
HETATM   28  C   UNL     1      45.050 -13.695   7.011  1.00  0.00    -0.021 A 
HETATM   29  C   UNL     1      44.565 -13.077   8.146  1.00  0.00     0.120 A 
HETATM   30  N   UNL     1      45.572 -12.285   8.613  1.00  0.00    -0.285 N 
HETATM   31  C   UNL     1      45.544 -11.445   9.786  1.00  0.00     0.179 C 
HETATM   32  N   UNL     1      46.693 -12.353   7.875  1.00  0.00    -0.185 NA
HETATM   33  C   UNL     1      46.370 -13.199   6.894  1.00  0.00     0.147 A 
ENDBRANCH  27  28
ENDBRANCH  26  27
ENDBRANCH   3  26
TORSDOF 5
ENDMDL
MODEL 2
REMARK VINA RESULT:      -9.3      3.158      7.537
REMARK  5 active torsions:
REMARK  status: ('A' for Active; 'I' for Inactive)
REMARK    1  A    between atoms: C_3  and  O_4 
REMARK    2  A    between atoms: C_8  and  C_9 
REMARK       I    between atoms: N_10  and  C_11 
REMARK    3  A    between atoms: C_11  and  C_12 
REMARK    4  A    between atoms: C_12  and  C_13 
REMARK    5  A    between atoms: C_13  and  C_14 
ROOT
HETATM    1  C   UNL     1      41.417 -15.498   2.394  1.00  0.00     0.171 C 
HETATM    2  N   UNL     1      41.724 -14.592   3.532  1.00  0.00    -0.338 N 
HETATM    3  C   UNL     1      40.789 -13.750   4.128  1.00  0.00     0.221 C 
HETATM    4  O   UNL     1      41.089 -13.005   5.063  1.00  0.00    -0.273 OA
HETATM    5  C   UNL     1      43.099 -14.622   4.087  1.00  0.00     0.131 C 
HETATM    6  C   UNL     1      43.492 -16.023   4.586  1.00  0.00     0.061 C 
HETATM    7  C   UNL     1      43.171 -17.021   3.530  1.00  0.00    -0.019 A 
HETATM    8  C   UNL     1      42.250 -16.743   2.537  1.00  0.00     0.044 A 
HETATM    9  N   UNL     1      42.171 -17.846   1.727  1.00  0.00    -0.356 N 
HETATM   10  H   UNL     1      41.592 -17.935   0.904  1.00  0.00     0.166 HD
HETATM   11  C   UNL     1      42.977 -18.851   2.216  1.00  0.00     0.043 A 
HETATM   12  C   UNL     1      43.628 -18.353   3.346  1.00  0.00    -0.001 A 
HETATM   13  C   UNL     1      43.171 -20.156   1.747  1.00  0.00     0.030 A 
HETATM   14  C   UNL     1      44.052 -20.975   2.458  1.00  0.00     0.002 A 
HETATM   15  C   UNL     1      44.718 -20.504   3.587  1.00  0.00     0.001 A 
HETATM   16  C   UNL     1      44.517 -19.195   4.041  1.00  0.00     0.014 A 
ENDROOT
BRANCH   1  17
HETATM   17  C   UNL     1      41.528 -14.836   1.022  1.00  0.00    -0.029 A 
HETATM   18  C   UNL     1      42.061 -13.556   0.829  1.00  0.00     0.012 A 
HETATM   19  C   UNL     1      42.162 -12.996  -0.450  1.00  0.00     0.038 A 
HETATM   20  C   UNL     1      41.740 -13.708  -1.575  1.00  0.00     0.074 A 
HETATM   21  C   UNL     1      41.200 -14.992  -1.409  1.00  0.00    -0.028 A 
HETATM   22  C   UNL     1      40.703 -15.781  -2.591  1.00  0.00     0.051 C 
HETATM   23  C   UNL     1      41.084 -15.535  -0.117  1.00  0.00     0.019 A 
BRANCH  20  24
HETATM   24  O   UNL     1      41.793 -13.238  -2.860  1.00  0.00    -0.355 OA
HETATM   25  C   UNL     1      42.513 -12.033  -3.083  1.00  0.00     0.210 C 
ENDBRANCH  20  24
ENDBRANCH   1  17
BRANCH   3  26
HETATM   26  C   UNL     1      39.352 -13.850   3.636  1.00  0.00     0.108 C 
BRANCH  26  27
HETATM   27  C   UNL     1      38.883 -12.619   2.862  1.00  0.00     0.051 C 
BRANCH  27  28
HETATM   28  C   UNL     1      38.518 -12.874   1.437  1.00  0.00    -0.021 A 
HETATM   29  C   UNL     1      38.731 -12.085   0.324  1.00  0.00     0.120 A 
HETATM   30  N   UNL     1      38.250 -12.787  -0.743  1.00  0.00    -0.285 N 
HETATM   31  C   UNL     1      38.256 -12.376  -2.126  1.00  0.00     0.179 C 
HETATM   32  N   UNL     1      37.751 -13.990  -0.412  1.00  0.00    -0.185 NA
HETATM   33  C   UNL     1      37.902 -14.036   0.914  1.00  0.00     0.147 A 
ENDBRANCH  27  28
ENDBRANCH  26  27
ENDBRANCH   3  26
TORSDOF 5
ENDMDL
MODEL 3
REMARK VINA RESULT:      -8.7      3.586      7.050
REMARK  5 active torsions:
REMARK  status: ('A' for Active; 'I' for Inactive)
REMARK    1  A    between atoms: C_3  and  O_4 
REMARK    2  A    between atoms: C_8  and  C_9 
REMARK       I    between atoms: N_10  and  C_11 
REMARK    3  A    between atoms: C_11  and  C_12 
REMARK    4  A    between atoms: C_12  and  C_13 
REMARK    5  A    between atoms: C_13  and  C_14 
ROOT
HETATM    1  C   UNL     1      40.427 -13.405   5.132  1.00  0.00     0.171 C 
HETATM    2  N   UNL     1      40.654 -12.823   3.783  1.00  0.00    -0.338 N 
HETATM    3  C   UNL     1      40.309 -13.459   2.594  1.00  0.00     0.221 C 
HETATM    4  O   UNL     1      40.527 -12.945   1.496  1.00  0.00    -0.273 OA
HETATM    5  C   UNL     1      41.246 -11.465   3.709  1.00  0.00     0.131 C 
HETATM    6  C   UNL     1      40.393 -10.419   4.448  1.00  0.00     0.061 C 
HETATM    7  C   UNL     1      40.061 -10.935   5.804  1.00  0.00    -0.019 A 
HETATM    8  C   UNL     1      40.114 -12.287   6.089  1.00  0.00     0.044 A 
HETATM    9  N   UNL     1      39.755 -12.446   7.402  1.00  0.00    -0.356 N 
HETATM   10  H   UNL     1      39.718 -13.322   7.903  1.00  0.00     0.166 HD
HETATM   11  C   UNL     1      39.414 -11.229   7.951  1.00  0.00     0.043 A 
HETATM   12  C   UNL     1      39.608 -10.258   6.967  1.00  0.00    -0.001 A 
HETATM   13  C   UNL     1      38.944 -10.920   9.233  1.00  0.00     0.030 A 
HETATM   14  C   UNL     1      38.661  -9.581   9.514  1.00  0.00     0.002 A 
HETATM   15  C   UNL     1      38.849  -8.590   8.553  1.00  0.00     0.001 A 
HETATM   16  C   UNL     1      39.324  -8.914   7.277  1.00  0.00     0.014 A 
ENDROOT
BRANCH   1  17
HETATM   17  C   UNL     1      41.546 -14.330   5.609  1.00  0.00    -0.029 A 
HETATM   18  C   UNL     1      41.383 -15.711   5.771  1.00  0.00     0.012 A 
HETATM   19  C   UNL     1      42.443 -16.523   6.190  1.00  0.00     0.038 A 
HETATM   20  C   UNL     1      43.701 -15.976   6.451  1.00  0.00     0.074 A 
HETATM   21  C   UNL     1      43.891 -14.594   6.298  1.00  0.00    -0.028 A 
HETATM   22  C   UNL     1      45.221 -13.958   6.599  1.00  0.00     0.051 C 
HETATM   23  C   UNL     1      42.813 -13.786   5.897  1.00  0.00     0.019 A 
BRANCH  20  24
HETATM   24  O   UNL     1      44.791 -16.691   6.872  1.00  0.00    -0.355 OA
HETATM   25  C   UNL     1      44.711 -18.108   6.788  1.00  0.00     0.210 C 
ENDBRANCH  20  24
ENDBRANCH   1  17
BRANCH   3  26
HETATM   26  C   UNL     1      39.569 -14.785   2.706  1.00  0.00     0.108 C 
BRANCH  26  27
HETATM   27  C   UNL     1      40.132 -15.879   1.801  1.00  0.00     0.051 C 
BRANCH  27  28
HETATM   28  C   UNL     1      41.457 -16.423   2.222  1.00  0.00    -0.021 A 
HETATM   29  C   UNL     1      41.797 -17.706   2.602  1.00  0.00     0.120 A 
HETATM   30  N   UNL     1      43.138 -17.694   2.849  1.00  0.00    -0.285 N 
HETATM   31  C   UNL     1      43.955 -18.806   3.268  1.00  0.00     0.179 C 
HETATM   32  N   UNL     1      43.709 -16.495   2.639  1.00  0.00    -0.185 NA
HETATM   33  C   UNL     1      42.685 -15.721   2.272  1.00  0.00     0.147 A 
ENDBRANCH  27  28
ENDBRANCH  26  27
ENDBRANCH   3  26
TORSDOF 5
ENDMDL
MODEL 4
REMARK VINA RESULT:      -8.7      3.324      7.724
REMARK  5 active torsions:
REMARK  status: ('A' for Active; 'I' for Inactive)
REMARK    1  A    between atoms: C_3  and  O_4 
REMARK    2  A    between atoms: C_8  and  C_9 
REMARK       I    between atoms: N_10  and  C_11 
REMARK    3  A    between atoms: C_11  and  C_12 
REMARK    4  A    between atoms: C_12  and  C_13 
REMARK    5  A    between atoms: C_13  and  C_14 
ROOT
HETATM    1  C   UNL     1      41.842 -14.161   3.753  1.00  0.00     0.171 C 
HETATM    2  N   UNL     1      41.065 -14.568   2.551  1.00  0.00    -0.338 N 
HETATM    3  C   UNL     1      40.942 -13.786   1.406  1.00  0.00     0.221 C 
HETATM    4  O   UNL     1      40.277 -14.156   0.436  1.00  0.00    -0.273 OA
HETATM    5  C   UNL     1      40.423 -15.904   2.565  1.00  0.00     0.131 C 
HETATM    6  C   UNL     1      41.443 -17.036   2.773  1.00  0.00     0.061 C 
HETATM    7  C   UNL     1      42.314 -16.698   3.930  1.00  0.00    -0.019 A 
HETATM    8  C   UNL     1      42.451 -15.392   4.367  1.00  0.00     0.044 A 
HETATM    9  N   UNL     1      43.311 -15.403   5.434  1.00  0.00    -0.356 N 
HETATM   10  H   UNL     1      43.592 -14.597   5.974  1.00  0.00     0.166 HD
HETATM   11  C   UNL     1      43.778 -16.680   5.654  1.00  0.00     0.043 A 
HETATM   12  C   UNL     1      43.156 -17.518   4.726  1.00  0.00    -0.001 A 
HETATM   13  C   UNL     1      44.703 -17.150   6.594  1.00  0.00     0.030 A 
HETATM   14  C   UNL     1      45.003 -18.515   6.581  1.00  0.00     0.002 A 
HETATM   15  C   UNL     1      44.395 -19.376   5.669  1.00  0.00     0.001 A 
HETATM   16  C   UNL     1      43.468 -18.891   4.738  1.00  0.00     0.014 A 
ENDROOT
BRANCH   1  17
HETATM   17  C   UNL     1      41.057 -13.303   4.742  1.00  0.00    -0.029 A 
HETATM   18  C   UNL     1      39.827 -13.690   5.287  1.00  0.00     0.012 A 
HETATM   19  C   UNL     1      39.152 -12.879   6.207  1.00  0.00     0.038 A 
HETATM   20  C   UNL     1      39.695 -11.660   6.615  1.00  0.00     0.074 A 
HETATM   21  C   UNL     1      40.926 -11.246   6.083  1.00  0.00    -0.028 A 
HETATM   22  C   UNL     1      41.532  -9.924   6.471  1.00  0.00     0.051 C 
HETATM   23  C   UNL     1      41.584 -12.060   5.144  1.00  0.00     0.019 A 
BRANCH  20  24
HETATM   24  O   UNL     1      39.103 -10.800   7.502  1.00  0.00    -0.355 OA
HETATM   25  C   UNL     1      39.120 -11.169   8.875  1.00  0.00     0.210 C 
ENDBRANCH  20  24
ENDBRANCH   1  17
BRANCH   3  26
HETATM   26  C   UNL     1      41.734 -12.487   1.363  1.00  0.00     0.108 C 
BRANCH  26  27
HETATM   27  C   UNL     1      40.893 -11.269   0.985  1.00  0.00     0.051 C 
BRANCH  27  28
HETATM   28  C   UNL     1      39.974 -10.783   2.056  1.00  0.00    -0.021 A 
HETATM   29  C   UNL     1      40.043  -9.631   2.814  1.00  0.00     0.120 A 
HETATM   30  N   UNL     1      38.942  -9.633   3.620  1.00  0.00    -0.285 N 
HETATM   31  C   UNL     1      38.571  -8.629   4.587  1.00  0.00     0.179 C 
HETATM   32  N   UNL     1      38.143 -10.697   3.431  1.00  0.00    -0.185 NA
HETATM   33  C   UNL     1      38.777 -11.401   2.491  1.00  0.00     0.147 A 
ENDBRANCH  27  28
ENDBRANCH  26  27
ENDBRANCH   3  26
TORSDOF 5
ENDMDL
MODEL 5
REMARK VINA RESULT:      -8.7      2.999      6.868
REMARK  5 active torsions:
REMARK  status: ('A' for Active; 'I' for Inactive)
REMARK    1  A    between atoms: C_3  and  O_4 
REMARK    2  A    between atoms: C_8  and  C_9 
REMARK       I    between atoms: N_10  and  C_11 
REMARK    3  A    between atoms: C_11  and  C_12 
REMARK    4  A    between atoms: C_12  and  C_13 
REMARK    5  A    between atoms: C_13  and  C_14 
ROOT
HETATM    1  C   UNL     1      41.652 -15.781   3.169  1.00  0.00     0.171 C 
HETATM    2  N   UNL     1      42.069 -15.044   4.392  1.00  0.00    -0.338 N 
HETATM    3  C   UNL     1      41.211 -14.253   5.151  1.00  0.00     0.221 C 
HETATM    4  O   UNL     1      41.602 -13.649   6.152  1.00  0.00    -0.273 OA
HETATM    5  C   UNL     1      43.472 -15.200   4.846  1.00  0.00     0.131 C 
HETATM    6  C   UNL     1      43.829 -16.668   5.134  1.00  0.00     0.061 C 
HETATM    7  C   UNL     1      43.399 -17.506   3.982  1.00  0.00    -0.019 A 
HETATM    8  C   UNL     1      42.434 -17.065   3.096  1.00  0.00     0.044 A 
HETATM    9  N   UNL     1      42.254 -18.049   2.159  1.00  0.00    -0.356 N 
HETATM   10  H   UNL     1      41.624 -18.007   1.371  1.00  0.00     0.166 HD
HETATM   11  C   UNL     1      43.041 -19.139   2.460  1.00  0.00     0.043 A 
HETATM   12  C   UNL     1      43.781 -18.818   3.599  1.00  0.00    -0.001 A 
HETATM   13  C   UNL     1      43.146 -20.378   1.815  1.00  0.00     0.030 A 
HETATM   14  C   UNL     1      44.029 -21.316   2.356  1.00  0.00     0.002 A 
HETATM   15  C   UNL     1      44.784 -21.023   3.490  1.00  0.00     0.001 A 
HETATM   16  C   UNL     1      44.671 -19.778   4.120  1.00  0.00     0.014 A 
ENDROOT
BRANCH   1  17
HETATM   17  C   UNL     1      41.710 -14.950   1.890  1.00  0.00    -0.029 A 
HETATM   18  C   UNL     1      42.174 -13.630   1.853  1.00  0.00     0.012 A 
HETATM   19  C   UNL     1      42.230 -12.912   0.652  1.00  0.00     0.038 A 
HETATM   20  C   UNL     1      41.829 -13.500  -0.549  1.00  0.00     0.074 A 
HETATM   21  C   UNL     1      41.358 -14.821  -0.540  1.00  0.00    -0.028 A 
HETATM   22  C   UNL     1      40.887 -15.483  -1.807  1.00  0.00     0.051 C 
HETATM   23  C   UNL     1      41.288 -15.525   0.675  1.00  0.00     0.019 A 
BRANCH  20  24
HETATM   24  O   UNL     1      41.842 -12.873  -1.767  1.00  0.00    -0.355 OA
HETATM   25  C   UNL     1      42.454 -11.592  -1.833  1.00  0.00     0.210 C 
ENDBRANCH  20  24
ENDBRANCH   1  17
BRANCH   3  26
HETATM   26  C   UNL     1      39.744 -14.233   4.746  1.00  0.00     0.108 C 
BRANCH  26  27
HETATM   27  C   UNL     1      39.120 -12.839   4.778  1.00  0.00     0.051 C 
BRANCH  27  28
HETATM   28  C   UNL     1      39.372 -12.009   3.562  1.00  0.00    -0.021 A 
HETATM   29  C   UNL     1      38.794 -12.090   2.311  1.00  0.00     0.120 A 
HETATM   30  N   UNL     1      39.337 -11.081   1.570  1.00  0.00    -0.285 N 
HETATM   31  C   UNL     1      39.039 -10.756   0.196  1.00  0.00     0.179 C 
HETATM   32  N   UNL     1      40.218 -10.330   2.252  1.00  0.00    -0.185 NA
HETATM   33  C   UNL     1      40.248 -10.903   3.458  1.00  0.00     0.147 A 
ENDBRANCH  27  28
ENDBRANCH  26  27
ENDBRANCH   3  26
TORSDOF 5
ENDMDL
MODEL 6
REMARK VINA RESULT:      -8.6      3.136      7.650
REMARK  5 active torsions:
REMARK  status: ('A' for Active; 'I' for Inactive)
REMARK    1  A    between atoms: C_3  and  O_4 
REMARK    2  A    between atoms: C_8  and  C_9 
REMARK       I    between atoms: N_10  and  C_11 
REMARK    3  A    between atoms: C_11  and  C_12 
REMARK    4  A    between atoms: C_12  and  C_13 
REMARK    5  A    between atoms: C_13  and  C_14 
ROOT
HETATM    1  C   UNL     1      41.267 -14.689   3.381  1.00  0.00     0.171 C 
HETATM    2  N   UNL     1      41.552 -13.331   3.914  1.00  0.00    -0.338 N 
HETATM    3  C   UNL     1      40.588 -12.337   4.064  1.00  0.00     0.221 C 
HETATM    4  O   UNL     1      40.871 -11.219   4.499  1.00  0.00    -0.273 OA
HETATM    5  C   UNL     1      42.939 -13.038   4.349  1.00  0.00     0.131 C 
HETATM    6  C   UNL     1      43.416 -13.999   5.452  1.00  0.00     0.061 C 
HETATM    7  C   UNL     1      43.123 -15.397   5.036  1.00  0.00    -0.019 A 
HETATM    8  C   UNL     1      42.167 -15.674   4.077  1.00  0.00     0.044 A 
HETATM    9  N   UNL     1      42.126 -17.034   3.916  1.00  0.00    -0.356 N 
HETATM   10  H   UNL     1      41.535 -17.536   3.269  1.00  0.00     0.166 HD
HETATM   11  C   UNL     1      42.995 -17.642   4.797  1.00  0.00     0.043 A 
HETATM   12  C   UNL     1      43.645 -16.631   5.507  1.00  0.00    -0.001 A 
HETATM   13  C   UNL     1      43.246 -19.001   5.019  1.00  0.00     0.030 A 
HETATM   14  C   UNL     1      44.184 -19.335   5.999  1.00  0.00     0.002 A 
HETATM   15  C   UNL     1      44.851 -18.347   6.721  1.00  0.00     0.001 A 
HETATM   16  C   UNL     1      44.592 -16.992   6.484  1.00  0.00     0.014 A 
ENDROOT
BRANCH   1  17
HETATM   17  C   UNL     1      41.312 -14.783   1.857  1.00  0.00    -0.029 A 
HETATM   18  C   UNL     1      40.959 -15.938   1.149  1.00  0.00     0.012 A 
HETATM   19  C   UNL     1      40.995 -15.972  -0.250  1.00  0.00     0.038 A 
HETATM   20  C   UNL     1      41.377 -14.846  -0.981  1.00  0.00     0.074 A 
HETATM   21  C   UNL     1      41.737 -13.676  -0.296  1.00  0.00    -0.028 A 
HETATM   22  C   UNL     1      42.186 -12.449  -1.043  1.00  0.00     0.051 C 
HETATM   23  C   UNL     1      41.717 -13.661   1.110  1.00  0.00     0.019 A 
BRANCH  20  24
HETATM   24  O   UNL     1      41.449 -14.790  -2.347  1.00  0.00    -0.355 OA
HETATM   25  C   UNL     1      40.598 -15.663  -3.080  1.00  0.00     0.210 C 
ENDBRANCH  20  24
ENDBRANCH   1  17
BRANCH   3  26
HETATM   26  C   UNL     1      39.148 -12.715   3.749  1.00  0.00     0.108 C 
BRANCH  26  27
HETATM   27  C   UNL     1      38.487 -11.803   2.718  1.00  0.00     0.051 C 
BRANCH  27  28
HETATM   28  C   UNL     1      38.316 -12.405   1.362  1.00  0.00    -0.021 A 
HETATM   29  C   UNL     1      38.561 -11.853   0.121  1.00  0.00     0.120 A 
HETATM   30  N   UNL     1      38.287 -12.827  -0.795  1.00  0.00    -0.285 N 
HETATM   31  C   UNL     1      38.400 -12.727  -2.229  1.00  0.00     0.179 C 
HETATM   32  N   UNL     1      37.897 -13.988  -0.241  1.00  0.00    -0.185 NA
HETATM   33  C   UNL     1      37.902 -13.726   1.068  1.00  0.00     0.147 A 
ENDBRANCH  27  28
ENDBRANCH  26  27
ENDBRANCH   3  26
TORSDOF 5
ENDMDL
MODEL 7
REMARK VINA RESULT:      -8.5      3.023      6.723
REMARK  5 active torsions:
REMARK  status: ('A' for Active; 'I' for Inactive)
REMARK    1  A    between atoms: C_3  and  O_4 
REMARK    2  A    between atoms: C_8  and  C_9 
REMARK       I    between atoms: N_10  and  C_11 
REMARK    3  A    between atoms: C_11  and  C_12 
REMARK    4  A    between atoms: C_12  and  C_13 
REMARK    5  A    between atoms: C_13  and  C_14 
ROOT
HETATM    1  C   UNL     1      41.625 -15.871   3.174  1.00  0.00     0.171 C 
HETATM    2  N   UNL     1      42.084 -15.135   4.383  1.00  0.00    -0.338 N 
HETATM    3  C   UNL     1      41.254 -14.345   5.172  1.00  0.00     0.221 C 
HETATM    4  O   UNL     1      41.678 -13.742   6.160  1.00  0.00    -0.273 OA
HETATM    5  C   UNL     1      43.502 -15.292   4.788  1.00  0.00     0.131 C 
HETATM    6  C   UNL     1      43.869 -16.761   5.061  1.00  0.00     0.061 C 
HETATM    7  C   UNL     1      43.398 -17.597   3.925  1.00  0.00    -0.019 A 
HETATM    8  C   UNL     1      42.403 -17.155   3.072  1.00  0.00     0.044 A 
HETATM    9  N   UNL     1      42.191 -18.137   2.141  1.00  0.00    -0.356 N 
HETATM   10  H   UNL     1      41.534 -18.094   1.376  1.00  0.00     0.166 HD
HETATM   11  C   UNL     1      42.988 -19.228   2.413  1.00  0.00     0.043 A 
HETATM   12  C   UNL     1      43.767 -18.909   3.527  1.00  0.00    -0.001 A 
HETATM   13  C   UNL     1      43.070 -20.466   1.764  1.00  0.00     0.030 A 
HETATM   14  C   UNL     1      43.970 -21.405   2.273  1.00  0.00     0.002 A 
HETATM   15  C   UNL     1      44.764 -21.114   3.381  1.00  0.00     0.001 A 
HETATM   16  C   UNL     1      44.674 -19.869   4.015  1.00  0.00     0.014 A 
ENDROOT
BRANCH   1  17
HETATM   17  C   UNL     1      41.639 -15.038   1.895  1.00  0.00    -0.029 A 
HETATM   18  C   UNL     1      42.009 -13.688   1.862  1.00  0.00     0.012 A 
HETATM   19  C   UNL     1      42.027 -12.969   0.661  1.00  0.00     0.038 A 
HETATM   20  C   UNL     1      41.683 -13.584  -0.544  1.00  0.00     0.074 A 
HETATM   21  C   UNL     1      41.307 -14.936  -0.539  1.00  0.00    -0.028 A 
HETATM   22  C   UNL     1      40.899 -15.630  -1.811  1.00  0.00     0.051 C 
HETATM   23  C   UNL     1      41.273 -15.642   0.676  1.00  0.00     0.019 A 
BRANCH  20  24
HETATM   24  O   UNL     1      41.665 -12.958  -1.762  1.00  0.00    -0.355 OA
HETATM   25  C   UNL     1      42.875 -12.352  -2.200  1.00  0.00     0.210 C 
ENDBRANCH  20  24
ENDBRANCH   1  17
BRANCH   3  26
HETATM   26  C   UNL     1      39.773 -14.324   4.818  1.00  0.00     0.108 C 
BRANCH  26  27
HETATM   27  C   UNL     1      39.032 -13.101   5.356  1.00  0.00     0.051 C 
BRANCH  27  28
HETATM   28  C   UNL     1      38.996 -11.930   4.430  1.00  0.00    -0.021 A 
HETATM   29  C   UNL     1      39.064 -10.582   4.718  1.00  0.00     0.120 A 
HETATM   30  N   UNL     1      39.032  -9.929   3.521  1.00  0.00    -0.285 N 
HETATM   31  C   UNL     1      39.086  -8.504   3.307  1.00  0.00     0.179 C 
HETATM   32  N   UNL     1      38.965 -10.755   2.463  1.00  0.00    -0.185 NA
HETATM   33  C   UNL     1      38.930 -11.970   3.017  1.00  0.00     0.147 A 
ENDBRANCH  27  28
ENDBRANCH  26  27
ENDBRANCH   3  26
TORSDOF 5
ENDMDL
MODEL 8
REMARK VINA RESULT:      -8.4      3.415      7.199
REMARK  5 active torsions:
REMARK  status: ('A' for Active; 'I' for Inactive)
REMARK    1  A    between atoms: C_3  and  O_4 
REMARK    2  A    between atoms: C_8  and  C_9 
REMARK       I    between atoms: N_10  and  C_11 
REMARK    3  A    between atoms: C_11  and  C_12 
REMARK    4  A    between atoms: C_12  and  C_13 
REMARK    5  A    between atoms: C_13  and  C_14 
ROOT
HETATM    1  C   UNL     1      41.523 -13.690   3.730  1.00  0.00     0.171 C 
HETATM    2  N   UNL     1      41.042 -14.792   4.605  1.00  0.00    -0.338 N 
HETATM    3  C   UNL     1      41.647 -16.043   4.682  1.00  0.00     0.221 C 
HETATM    4  O   UNL     1      41.207 -16.933   5.412  1.00  0.00    -0.273 OA
HETATM    5  C   UNL     1      39.872 -14.520   5.475  1.00  0.00     0.131 C 
HETATM    6  C   UNL     1      40.121 -13.342   6.432  1.00  0.00     0.061 C 
HETATM    7  C   UNL     1      40.663 -12.194   5.656  1.00  0.00    -0.019 A 
HETATM    8  C   UNL     1      41.264 -12.381   4.424  1.00  0.00     0.044 A 
HETATM    9  N   UNL     1      41.658 -11.150   3.967  1.00  0.00    -0.356 N 
HETATM   10  H   UNL     1      42.112 -10.965   3.084  1.00  0.00     0.166 HD
HETATM   11  C   UNL     1      41.376 -10.183   4.907  1.00  0.00     0.043 A 
HETATM   12  C   UNL     1      40.738 -10.813   5.977  1.00  0.00    -0.001 A 
HETATM   13  C   UNL     1      41.643  -8.808   4.891  1.00  0.00     0.030 A 
HETATM   14  C   UNL     1      41.250  -8.059   6.003  1.00  0.00     0.002 A 
HETATM   15  C   UNL     1      40.608  -8.660   7.084  1.00  0.00     0.001 A 
HETATM   16  C   UNL     1      40.344 -10.035   7.083  1.00  0.00     0.014 A 
ENDROOT
BRANCH   1  17
HETATM   17  C   UNL     1      40.985 -13.747   2.302  1.00  0.00    -0.029 A 
HETATM   18  C   UNL     1      41.808 -13.703   1.170  1.00  0.00     0.012 A 
HETATM   19  C   UNL     1      41.272 -13.779  -0.121  1.00  0.00     0.038 A 
HETATM   20  C   UNL     1      39.896 -13.912  -0.315  1.00  0.00     0.074 A 
HETATM   21  C   UNL     1      39.048 -13.957   0.802  1.00  0.00    -0.028 A 
HETATM   22  C   UNL     1      37.556 -14.067   0.638  1.00  0.00     0.051 C 
HETATM   23  C   UNL     1      39.597 -13.858   2.093  1.00  0.00     0.019 A 
BRANCH  20  24
HETATM   24  O   UNL     1      39.284 -13.987  -1.539  1.00  0.00    -0.355 OA
HETATM   25  C   UNL     1      39.931 -14.757  -2.543  1.00  0.00     0.210 C 
ENDBRANCH  20  24
ENDBRANCH   1  17
BRANCH   3  26
HETATM   26  C   UNL     1      42.932 -16.242   3.890  1.00  0.00     0.108 C 
BRANCH  26  27
HETATM   27  C   UNL     1      42.772 -17.168   2.686  1.00  0.00     0.051 C 
BRANCH  27  28
HETATM   28  C   UNL     1      43.358 -18.531   2.859  1.00  0.00    -0.021 A 
HETATM   29  C   UNL     1      43.429 -19.575   1.958  1.00  0.00     0.120 A 
HETATM   30  N   UNL     1      44.096 -20.583   2.589  1.00  0.00    -0.285 N 
HETATM   31  C   UNL     1      44.423 -21.880   2.047  1.00  0.00     0.179 C 
HETATM   32  N   UNL     1      44.485 -20.270   3.836  1.00  0.00    -0.185 NA
HETATM   33  C   UNL     1      44.025 -19.028   4.004  1.00  0.00     0.147 A 
ENDBRANCH  27  28
ENDBRANCH  26  27
ENDBRANCH   3  26
TORSDOF 5
ENDMDL
MODEL 9
REMARK VINA RESULT:      -8.3      3.283      7.202
REMARK  5 active torsions:
REMARK  status: ('A' for Active; 'I' for Inactive)
REMARK    1  A    between atoms: C_3  and  O_4 
REMARK    2  A    between atoms: C_8  and  C_9 
REMARK       I    between atoms: N_10  and  C_11 
REMARK    3  A    between atoms: C_11  and  C_12 
REMARK    4  A    between atoms: C_12  and  C_13 
REMARK    5  A    between atoms: C_13  and  C_14 
ROOT
HETATM    1  C   UNL     1      41.414 -15.336   2.119  1.00  0.00     0.171 C 
HETATM    2  N   UNL     1      41.761 -14.361   3.188  1.00  0.00    -0.338 N 
HETATM    3  C   UNL     1      40.853 -13.469   3.749  1.00  0.00     0.221 C 
HETATM    4  O   UNL     1      41.186 -12.668   4.625  1.00  0.00    -0.273 OA
HETATM    5  C   UNL     1      43.149 -14.377   3.710  1.00  0.00     0.131 C 
HETATM    6  C   UNL     1      43.536 -15.748   4.291  1.00  0.00     0.061 C 
HETATM    7  C   UNL     1      43.174 -16.808   3.312  1.00  0.00    -0.019 A 
HETATM    8  C   UNL     1      42.233 -16.581   2.324  1.00  0.00     0.044 A 
HETATM    9  N   UNL     1      42.118 -17.734   1.592  1.00  0.00    -0.356 N 
HETATM   10  H   UNL     1      41.518 -17.868   0.791  1.00  0.00     0.166 HD
HETATM   11  C   UNL     1      42.923 -18.717   2.126  1.00  0.00     0.043 A 
HETATM   12  C   UNL     1      43.608 -18.155   3.205  1.00  0.00    -0.001 A 
HETATM   13  C   UNL     1      43.087 -20.053   1.740  1.00  0.00     0.030 A 
HETATM   14  C   UNL     1      43.974 -20.837   2.483  1.00  0.00     0.002 A 
HETATM   15  C   UNL     1      44.675 -20.303   3.563  1.00  0.00     0.001 A 
HETATM   16  C   UNL     1      44.503 -18.964   3.933  1.00  0.00     0.014 A 
ENDROOT
BRANCH   1  17
HETATM   17  C   UNL     1      41.499 -14.768   0.705  1.00  0.00    -0.029 A 
HETATM   18  C   UNL     1      42.022 -13.501   0.417  1.00  0.00     0.012 A 
HETATM   19  C   UNL     1      42.100 -13.029  -0.898  1.00  0.00     0.038 A 
HETATM   20  C   UNL     1      41.664 -13.816  -1.965  1.00  0.00     0.074 A 
HETATM   21  C   UNL     1      41.135 -15.089  -1.705  1.00  0.00    -0.028 A 
HETATM   22  C   UNL     1      40.624 -15.959  -2.823  1.00  0.00     0.051 C 
HETATM   23  C   UNL     1      41.042 -15.544  -0.378  1.00  0.00     0.019 A 
BRANCH  20  24
HETATM   24  O   UNL     1      41.695 -13.434  -3.281  1.00  0.00    -0.355 OA
HETATM   25  C   UNL     1      41.574 -12.045  -3.558  1.00  0.00     0.210 C 
ENDBRANCH  20  24
ENDBRANCH   1  17
BRANCH   3  26
HETATM   26  C   UNL     1      39.403 -13.578   3.299  1.00  0.00     0.108 C 
BRANCH  26  27
HETATM   27  C   UNL     1      39.006 -12.538   2.252  1.00  0.00     0.051 C 
BRANCH  27  28
HETATM   28  C   UNL     1      38.321 -11.328   2.796  1.00  0.00    -0.021 A 
HETATM   29  C   UNL     1      37.453 -10.457   2.170  1.00  0.00     0.120 A 
HETATM   30  N   UNL     1      37.076  -9.545   3.112  1.00  0.00    -0.285 N 
HETATM   31  C   UNL     1      36.168  -8.438   2.934  1.00  0.00     0.179 C 
HETATM   32  N   UNL     1      37.622  -9.766   4.320  1.00  0.00    -0.185 NA
HETATM   33  C   UNL     1      38.389 -10.841   4.124  1.00  0.00     0.147 A 
ENDBRANCH  27  28
ENDBRANCH  26  27
ENDBRANCH   3  26
TORSDOF 5
ENDMDL
MODEL 10
REMARK VINA RESULT:      -8.1      3.449      8.280
REMARK  5 active torsions:
REMARK  status: ('A' for Active; 'I' for Inactive)
REMARK    1  A    between atoms: C_3  and  O_4 
REMARK    2  A    between atoms: C_8  and  C_9 
REMARK       I    between atoms: N_10  and  C_11 
REMARK    3  A    between atoms: C_11  and  C_12 
REMARK    4  A    between atoms: C_12  and  C_13 
REMARK    5  A    between atoms: C_13  and  C_14 
ROOT
HETATM    1  C   UNL     1      41.848 -14.080   3.694  1.00  0.00     0.171 C 
HETATM    2  N   UNL     1      41.072 -14.478   2.489  1.00  0.00    -0.338 N 
HETATM    3  C   UNL     1      40.971 -13.700   1.339  1.00  0.00     0.221 C 
HETATM    4  O   UNL     1      40.306 -14.063   0.367  1.00  0.00    -0.273 OA
HETATM    5  C   UNL     1      40.405 -15.802   2.505  1.00  0.00     0.131 C 
HETATM    6  C   UNL     1      41.403 -16.952   2.726  1.00  0.00     0.061 C 
HETATM    7  C   UNL     1      42.272 -16.623   3.888  1.00  0.00    -0.019 A 
HETATM    8  C   UNL     1      42.429 -15.319   4.319  1.00  0.00     0.044 A 
HETATM    9  N   UNL     1      43.282 -15.339   5.392  1.00  0.00    -0.356 N 
HETATM   10  H   UNL     1      43.573 -14.536   5.930  1.00  0.00     0.166 HD
HETATM   11  C   UNL     1      43.723 -16.624   5.621  1.00  0.00     0.043 A 
HETATM   12  C   UNL     1      43.093 -17.455   4.694  1.00  0.00    -0.001 A 
HETATM   13  C   UNL     1      44.633 -17.106   6.571  1.00  0.00     0.030 A 
HETATM   14  C   UNL     1      44.908 -18.476   6.567  1.00  0.00     0.002 A 
HETATM   15  C   UNL     1      44.290 -19.330   5.655  1.00  0.00     0.001 A 
HETATM   16  C   UNL     1      43.380 -18.834   4.715  1.00  0.00     0.014 A 
ENDROOT
BRANCH   1  17
HETATM   17  C   UNL     1      41.072 -13.202   4.673  1.00  0.00    -0.029 A 
HETATM   18  C   UNL     1      39.939 -13.643   5.367  1.00  0.00     0.012 A 
HETATM   19  C   UNL     1      39.270 -12.809   6.272  1.00  0.00     0.038 A 
HETATM   20  C   UNL     1      39.724 -11.511   6.514  1.00  0.00     0.074 A 
HETATM   21  C   UNL     1      40.856 -11.043   5.830  1.00  0.00    -0.028 A 
HETATM   22  C   UNL     1      41.360  -9.640   6.037  1.00  0.00     0.051 C 
HETATM   23  C   UNL     1      41.506 -11.883   4.908  1.00  0.00     0.019 A 
BRANCH  20  24
HETATM   24  O   UNL     1      39.130 -10.625   7.373  1.00  0.00    -0.355 OA
HETATM   25  C   UNL     1      39.160 -10.943   8.759  1.00  0.00     0.210 C 
ENDBRANCH  20  24
ENDBRANCH   1  17
BRANCH   3  26
HETATM   26  C   UNL     1      41.787 -12.416   1.295  1.00  0.00     0.108 C 
BRANCH  26  27
HETATM   27  C   UNL     1      41.039 -11.235   0.679  1.00  0.00     0.051 C 
BRANCH  27  28
HETATM   28  C   UNL     1      41.655 -10.680  -0.563  1.00  0.00    -0.021 A 
HETATM   29  C   UNL     1      41.131  -9.789  -1.478  1.00  0.00     0.120 A 
HETATM   30  N   UNL     1      42.107  -9.570  -2.406  1.00  0.00    -0.285 N 
HETATM   31  C   UNL     1      42.032  -8.705  -3.558  1.00  0.00     0.179 C 
HETATM   32  N   UNL     1      43.243 -10.242  -2.155  1.00  0.00    -0.185 NA
HETATM   33  C   UNL     1      42.963 -10.926  -1.043  1.00  0.00     0.147 A 
ENDBRANCH  27  28
ENDBRANCH  26  27
ENDBRANCH   3  26
TORSDOF 5
ENDMDL
