MODEL 1
REMARK VINA RESULT:      -9.3      0.000      0.000
REMARK  6 active torsions:
REMARK  status: ('A' for Active; 'I' for Inactive)
REMARK    1  A    between atoms: C_2  and  C_3 
REMARK    2  A    between atoms: C_3  and  C_4 
REMARK    3  A    between atoms: C_6  and  N_7 
REMARK    4  A    between atoms: C_9  and  C_10 
REMARK    5  A    between atoms: C_16  and  N_17 
REMARK       I    between atoms: N_17  and  C_18 
REMARK    6  A    between atoms: C_18  and  C_19 
ROOT
HETATM    1  N   UNL     1      40.868 -15.242   1.729  1.00  0.00    -0.044 N 
HETATM    2  N   UNL     1      40.372 -14.283   0.900  1.00  0.00    -0.150 NA
HETATM    3  C   UNL     1      40.644 -14.743  -0.330  1.00  0.00     0.099 A 
HETATM    4  C   UNL     1      41.308 -15.993  -0.290  1.00  0.00     0.086 A 
HETATM    5  C   UNL     1      41.460 -16.288   1.044  1.00  0.00     0.152 A 
ENDROOT
BRANCH   5   6
HETATM    6  N   UNL     1      42.090 -17.381   1.633  1.00  0.00    -0.305 N 
HETATM    7  C   UNL     1      43.506 -17.504   1.814  1.00  0.00     0.281 C 
HETATM    8  O   UNL     1      44.276 -16.700   1.312  1.00  0.00    -0.265 OA
HETATM    9  H   UNL     1      41.501 -18.159   1.941  1.00  0.00     0.170 HD
BRANCH   7  10
HETATM   10  C   UNL     1      43.882 -18.644   2.608  1.00  0.00     0.144 A 
HETATM   11  O   UNL     1      44.027 -19.863   1.995  1.00  0.00    -0.304 OA
HETATM   12  C   UNL     1      44.307 -20.769   2.975  1.00  0.00     0.086 A 
HETATM   13  C   UNL     1      44.383 -20.139   4.212  1.00  0.00     0.001 A 
HETATM   14  C   UNL     1      44.484 -22.137   2.786  1.00  0.00     0.038 A 
HETATM   15  C   UNL     1      44.107 -18.771   3.965  1.00  0.00     0.057 A 
HETATM   16  C   UNL     1      44.673 -20.916   5.347  1.00  0.00     0.014 A 
HETATM   17  C   UNL     1      44.863 -22.296   5.186  1.00  0.00     0.001 A 
HETATM   18  C   UNL     1      44.765 -22.894   3.928  1.00  0.00     0.003 A 
ENDBRANCH   7  10
ENDBRANCH   5   6
BRANCH   1  19
HETATM   19  C   UNL     1      40.728 -15.118   3.119  1.00  0.00     0.732 A 
HETATM   20  N   UNL     1      41.117 -16.042   3.942  1.00  0.00    -0.067 NA
HETATM   21  C   UNL     1      40.883 -15.784   5.279  1.00  0.00     0.059 A 
HETATM   22  C   UNL     1      40.298 -14.663   5.733  1.00  0.00     0.102 A 
HETATM   23  C   UNL     1      39.885 -13.631   4.768  1.00  0.00     0.261 A 
HETATM   24  N   UNL     1      40.136 -13.937   3.469  1.00  0.00    -0.152 N 
HETATM   25  O   UNL     1      39.352 -12.591   5.127  1.00  0.00    -0.268 OA
HETATM   26  H   UNL     1      39.862 -13.272   2.752  1.00  0.00     0.187 HD
BRANCH  21  27
HETATM   27  C   UNL     1      41.289 -16.876   6.245  1.00  0.00     0.060 C 
BRANCH  27  28
HETATM   28  C   UNL     1      42.685 -16.637   6.824  1.00  0.00     0.002 C 
HETATM   29  C   UNL     1      43.134 -17.811   7.680  1.00  0.00     0.005 C 
ENDBRANCH  27  28
ENDBRANCH  21  27
ENDBRANCH   1  19
BRANCH   3  30
HETATM   30  C   UNL     1      40.276 -13.972  -1.564  1.00  0.00     0.035 A 
HETATM   31  S   UNL     1      38.715 -13.351  -1.880  1.00  0.00    -0.100 SA
HETATM   32  C   UNL     1      39.207 -12.698  -3.382  1.00  0.00     0.050 A 
HETATM   33  C   UNL     1      40.537 -12.945  -3.639  1.00  0.00     0.008 A 
HETATM   34  C   UNL     1      41.156 -13.681  -2.586  1.00  0.00     0.022 A 
ENDBRANCH   3  30
TORSDOF 6
ENDMDL
MODEL 2
REMARK VINA RESULT:      -9.2      3.756      6.512
REMARK  6 active torsions:
REMARK  status: ('A' for Active; 'I' for Inactive)
REMARK    1  A    between atoms: C_2  and  C_3 
REMARK    2  A    between atoms: C_3  and  C_4 
REMARK    3  A    between atoms: C_6  and  N_7 
REMARK    4  A    between atoms: C_9  and  C_10 
REMARK    5  A    between atoms: C_16  and  N_17 
REMARK       I    between atoms: N_17  and  C_18 
REMARK    6  A    between atoms: C_18  and  C_19 
ROOT
HETATM    1  N   UNL     1      42.843 -14.149   5.903  1.00  0.00    -0.044 N 
HETATM    2  N   UNL     1      42.888 -13.049   6.703  1.00  0.00    -0.150 NA
HETATM    3  C   UNL     1      43.989 -13.230   7.445  1.00  0.00     0.099 A 
HETATM    4  C   UNL     1      44.650 -14.440   7.120  1.00  0.00     0.086 A 
HETATM    5  C   UNL     1      43.886 -15.026   6.138  1.00  0.00     0.152 A 
ENDROOT
BRANCH   5   6
HETATM    6  N   UNL     1      44.066 -16.251   5.503  1.00  0.00    -0.305 N 
HETATM    7  C   UNL     1      43.828 -17.526   6.110  1.00  0.00     0.281 C 
HETATM    8  O   UNL     1      43.590 -17.618   7.305  1.00  0.00    -0.265 OA
HETATM    9  H   UNL     1      44.412 -16.239   4.539  1.00  0.00     0.170 HD
BRANCH   7  10
HETATM   10  C   UNL     1      43.918 -18.625   5.184  1.00  0.00     0.144 A 
HETATM   11  O   UNL     1      44.333 -19.849   5.642  1.00  0.00    -0.304 OA
HETATM   12  C   UNL     1      44.401 -20.676   4.559  1.00  0.00     0.086 A 
HETATM   13  C   UNL     1      43.995 -20.006   3.411  1.00  0.00     0.001 A 
HETATM   14  C   UNL     1      44.825 -22.002   4.578  1.00  0.00     0.038 A 
HETATM   15  C   UNL     1      43.686 -18.685   3.823  1.00  0.00     0.057 A 
HETATM   16  C   UNL     1      43.990 -20.702   2.190  1.00  0.00     0.014 A 
HETATM   17  C   UNL     1      44.406 -22.042   2.180  1.00  0.00     0.001 A 
HETATM   18  C   UNL     1      44.819 -22.676   3.353  1.00  0.00     0.003 A 
ENDBRANCH   7  10
ENDBRANCH   5   6
BRANCH   1  19
HETATM   19  C   UNL     1      41.825 -14.289   4.946  1.00  0.00     0.732 A 
HETATM   20  N   UNL     1      41.703 -15.351   4.211  1.00  0.00    -0.067 NA
HETATM   21  C   UNL     1      40.669 -15.324   3.295  1.00  0.00     0.059 A 
HETATM   22  C   UNL     1      39.827 -14.288   3.150  1.00  0.00     0.102 A 
HETATM   23  C   UNL     1      39.989 -13.107   4.014  1.00  0.00     0.261 A 
HETATM   24  N   UNL     1      41.021 -13.186   4.893  1.00  0.00    -0.152 N 
HETATM   25  O   UNL     1      39.248 -12.139   3.926  1.00  0.00    -0.268 OA
HETATM   26  H   UNL     1      41.194 -12.397   5.509  1.00  0.00     0.187 HD
BRANCH  21  27
HETATM   27  C   UNL     1      40.547 -16.537   2.400  1.00  0.00     0.060 C 
BRANCH  27  28
HETATM   28  C   UNL     1      41.733 -16.663   1.443  1.00  0.00     0.002 C 
HETATM   29  C   UNL     1      41.415 -16.045   0.089  1.00  0.00     0.005 C 
ENDBRANCH  27  28
ENDBRANCH  21  27
ENDBRANCH   1  19
BRANCH   3  30
HETATM   30  C   UNL     1      44.412 -12.240   8.491  1.00  0.00     0.035 A 
HETATM   31  S   UNL     1      43.335 -11.222   9.342  1.00  0.00    -0.100 SA
HETATM   32  C   UNL     1      44.611 -10.503  10.227  1.00  0.00     0.050 A 
HETATM   33  C   UNL     1      45.835 -11.030   9.883  1.00  0.00     0.008 A 
HETATM   34  C   UNL     1      45.721 -12.036   8.879  1.00  0.00     0.022 A 
ENDBRANCH   3  30
TORSDOF 6
ENDMDL
MODEL 3
REMARK VINA RESULT:      -8.8      4.502      8.332
REMARK  6 active torsions:
REMARK  status: ('A' for Active; 'I' for Inactive)
REMARK    1  A    between atoms: C_2  and  C_3 
REMARK    2  A    between atoms: C_3  and  C_4 
REMARK    3  A    between atoms: C_6  and  N_7 
REMARK    4  A    between atoms: C_9  and  C_10 
REMARK    5  A    between atoms: C_16  and  N_17 
REMARK       I    between atoms: N_17  and  C_18 
REMARK    6  A    between atoms: C_18  and  C_19 
ROOT
HETATM    1  N   UNL     1      42.933 -15.558   4.738  1.00  0.00    -0.044 N 
HETATM    2  N   UNL     1      43.034 -16.627   3.901  1.00  0.00    -0.150 NA
HETATM    3  C   UNL     1      43.692 -17.545   4.623  1.00  0.00     0.099 A 
HETATM    4  C   UNL     1      44.009 -17.070   5.918  1.00  0.00     0.086 A 
HETATM    5  C   UNL     1      43.528 -15.782   5.967  1.00  0.00     0.152 A 
ENDROOT
BRANCH   5   6
HETATM    6  N   UNL     1      43.620 -14.851   6.998  1.00  0.00    -0.305 N 
HETATM    7  C   UNL     1      44.564 -13.776   7.043  1.00  0.00     0.281 C 
HETATM    8  O   UNL     1      45.470 -13.700   6.227  1.00  0.00    -0.265 OA
HETATM    9  H   UNL     1      42.978 -14.956   7.789  1.00  0.00     0.170 HD
BRANCH   7  10
HETATM   10  C   UNL     1      44.330 -12.856   8.125  1.00  0.00     0.144 A 
HETATM   11  O   UNL     1      43.226 -12.044   8.082  1.00  0.00    -0.304 OA
HETATM   12  C   UNL     1      43.287 -11.231   9.176  1.00  0.00     0.086 A 
HETATM   13  C   UNL     1      44.401 -11.539   9.947  1.00  0.00     0.001 A 
HETATM   14  C   UNL     1      42.378 -10.224   9.487  1.00  0.00     0.038 A 
HETATM   15  C   UNL     1      45.068 -12.586   9.262  1.00  0.00     0.057 A 
HETATM   16  C   UNL     1      44.628 -10.807  11.125  1.00  0.00     0.014 A 
HETATM   17  C   UNL     1      43.726  -9.790  11.469  1.00  0.00     0.001 A 
HETATM   18  C   UNL     1      42.624  -9.503  10.660  1.00  0.00     0.003 A 
ENDBRANCH   7  10
ENDBRANCH   5   6
BRANCH   1  19
HETATM   19  C   UNL     1      42.256 -14.399   4.330  1.00  0.00     0.732 A 
HETATM   20  N   UNL     1      41.305 -13.865   5.032  1.00  0.00    -0.067 NA
HETATM   21  C   UNL     1      40.717 -12.743   4.480  1.00  0.00     0.059 A 
HETATM   22  C   UNL     1      41.081 -12.212   3.301  1.00  0.00     0.102 A 
HETATM   23  C   UNL     1      42.176 -12.838   2.542  1.00  0.00     0.261 A 
HETATM   24  N   UNL     1      42.715 -13.937   3.129  1.00  0.00    -0.152 N 
HETATM   25  O   UNL     1      42.549 -12.393   1.466  1.00  0.00    -0.268 OA
HETATM   26  H   UNL     1      43.467 -14.424   2.648  1.00  0.00     0.187 HD
BRANCH  21  27
HETATM   27  C   UNL     1      39.574 -12.141   5.267  1.00  0.00     0.060 C 
BRANCH  27  28
HETATM   28  C   UNL     1      40.047 -11.539   6.591  1.00  0.00     0.002 C 
HETATM   29  C   UNL     1      39.961 -10.021   6.568  1.00  0.00     0.005 C 
ENDBRANCH  27  28
ENDBRANCH  21  27
ENDBRANCH   1  19
BRANCH   3  30
HETATM   30  C   UNL     1      44.036 -18.895   4.064  1.00  0.00     0.035 A 
HETATM   31  S   UNL     1      44.747 -20.158   4.970  1.00  0.00    -0.100 SA
HETATM   32  C   UNL     1      44.775 -21.202   3.614  1.00  0.00     0.050 A 
HETATM   33  C   UNL     1      44.251 -20.602   2.492  1.00  0.00     0.008 A 
HETATM   34  C   UNL     1      43.821 -19.267   2.752  1.00  0.00     0.022 A 
ENDBRANCH   3  30
TORSDOF 6
ENDMDL
MODEL 4
REMARK VINA RESULT:      -8.7      2.992      3.920
REMARK  6 active torsions:
REMARK  status: ('A' for Active; 'I' for Inactive)
REMARK    1  A    between atoms: C_2  and  C_3 
REMARK    2  A    between atoms: C_3  and  C_4 
REMARK    3  A    between atoms: C_6  and  N_7 
REMARK    4  A    between atoms: C_9  and  C_10 
REMARK    5  A    between atoms: C_16  and  N_17 
REMARK       I    between atoms: N_17  and  C_18 
REMARK    6  A    between atoms: C_18  and  C_19 
ROOT
HETATM    1  N   UNL     1      41.457 -14.129   4.699  1.00  0.00    -0.044 N 
HETATM    2  N   UNL     1      40.829 -12.922   4.718  1.00  0.00    -0.150 NA
HETATM    3  C   UNL     1      39.891 -13.027   3.766  1.00  0.00     0.099 A 
HETATM    4  C   UNL     1      39.915 -14.297   3.141  1.00  0.00     0.086 A 
HETATM    5  C   UNL     1      40.942 -14.986   3.742  1.00  0.00     0.152 A 
ENDROOT
BRANCH   5   6
HETATM    6  N   UNL     1      41.419 -16.264   3.466  1.00  0.00    -0.305 N 
HETATM    7  C   UNL     1      42.478 -16.556   2.547  1.00  0.00     0.281 C 
HETATM    8  O   UNL     1      42.936 -15.689   1.818  1.00  0.00    -0.265 OA
HETATM    9  H   UNL     1      40.968 -17.051   3.939  1.00  0.00     0.170 HD
BRANCH   7  10
HETATM   10  C   UNL     1      42.897 -17.933   2.580  1.00  0.00     0.144 A 
HETATM   11  O   UNL     1      43.565 -18.400   3.683  1.00  0.00    -0.304 OA
HETATM   12  C   UNL     1      43.907 -19.695   3.422  1.00  0.00     0.086 A 
HETATM   13  C   UNL     1      43.431 -20.080   2.174  1.00  0.00     0.001 A 
HETATM   14  C   UNL     1      44.638 -20.524   4.268  1.00  0.00     0.038 A 
HETATM   15  C   UNL     1      42.782 -18.939   1.639  1.00  0.00     0.057 A 
HETATM   16  C   UNL     1      43.681 -21.391   1.734  1.00  0.00     0.014 A 
HETATM   17  C   UNL     1      44.410 -22.252   2.567  1.00  0.00     0.001 A 
HETATM   18  C   UNL     1      44.882 -21.823   3.809  1.00  0.00     0.003 A 
ENDBRANCH   7  10
ENDBRANCH   5   6
BRANCH   1  19
HETATM   19  C   UNL     1      42.492 -14.405   5.605  1.00  0.00     0.732 A 
HETATM   20  N   UNL     1      43.012 -15.587   5.728  1.00  0.00    -0.067 NA
HETATM   21  C   UNL     1      44.002 -15.704   6.685  1.00  0.00     0.059 A 
HETATM   22  C   UNL     1      44.423 -14.686   7.453  1.00  0.00     0.102 A 
HETATM   23  C   UNL     1      43.818 -13.356   7.272  1.00  0.00     0.261 A 
HETATM   24  N   UNL     1      42.851 -13.298   6.321  1.00  0.00    -0.152 N 
HETATM   25  O   UNL     1      44.167 -12.394   7.941  1.00  0.00    -0.268 OA
HETATM   26  H   UNL     1      42.384 -12.411   6.157  1.00  0.00     0.187 HD
BRANCH  21  27
HETATM   27  C   UNL     1      44.583 -17.089   6.870  1.00  0.00     0.060 C 
BRANCH  27  28
HETATM   28  C   UNL     1      43.793 -17.907   7.893  1.00  0.00     0.002 C 
HETATM   29  C   UNL     1      43.747 -19.377   7.504  1.00  0.00     0.005 C 
ENDBRANCH  27  28
ENDBRANCH  21  27
ENDBRANCH   1  19
BRANCH   3  30
HETATM   30  C   UNL     1      38.965 -11.893   3.438  1.00  0.00     0.035 A 
HETATM   31  S   UNL     1      38.169 -11.704   1.937  1.00  0.00    -0.100 SA
HETATM   32  C   UNL     1      37.413 -10.256   2.445  1.00  0.00     0.050 A 
HETATM   33  C   UNL     1      37.757  -9.922   3.735  1.00  0.00     0.008 A 
HETATM   34  C   UNL     1      38.654 -10.869   4.311  1.00  0.00     0.022 A 
ENDBRANCH   3  30
TORSDOF 6
ENDMDL
MODEL 5
REMARK VINA RESULT:      -8.4      2.778      6.013
REMARK  6 active torsions:
REMARK  status: ('A' for Active; 'I' for Inactive)
REMARK    1  A    between atoms: C_2  and  C_3 
REMARK    2  A    between atoms: C_3  and  C_4 
REMARK    3  A    between atoms: C_6  and  N_7 
REMARK    4  A    between atoms: C_9  and  C_10 
REMARK    5  A    between atoms: C_16  and  N_17 
REMARK       I    between atoms: N_17  and  C_18 
REMARK    6  A    between atoms: C_18  and  C_19 
ROOT
HETATM    1  N   UNL     1      40.310 -13.775   3.629  1.00  0.00    -0.044 N 
HETATM    2  N   UNL     1      39.950 -12.664   4.328  1.00  0.00    -0.150 NA
HETATM    3  C   UNL     1      40.512 -12.840   5.532  1.00  0.00     0.099 A 
HETATM    4  C   UNL     1      41.233 -14.057   5.604  1.00  0.00     0.086 A 
HETATM    5  C   UNL     1      41.075 -14.653   4.375  1.00  0.00     0.152 A 
ENDROOT
BRANCH   5   6
HETATM    6  N   UNL     1      41.541 -15.889   3.935  1.00  0.00    -0.305 N 
HETATM    7  C   UNL     1      42.846 -16.119   3.392  1.00  0.00     0.281 C 
HETATM    8  O   UNL     1      43.595 -15.188   3.137  1.00  0.00    -0.265 OA
HETATM    9  H   UNL     1      40.898 -16.683   3.986  1.00  0.00     0.170 HD
BRANCH   7  10
HETATM   10  C   UNL     1      43.138 -17.514   3.182  1.00  0.00     0.144 A 
HETATM   11  O   UNL     1      43.788 -18.214   4.165  1.00  0.00    -0.304 OA
HETATM   12  C   UNL     1      44.003 -19.471   3.682  1.00  0.00     0.086 A 
HETATM   13  C   UNL     1      43.461 -19.601   2.409  1.00  0.00     0.001 A 
HETATM   14  C   UNL     1      44.676 -20.490   4.350  1.00  0.00     0.038 A 
HETATM   15  C   UNL     1      42.907 -18.335   2.094  1.00  0.00     0.057 A 
HETATM   16  C   UNL     1      43.578 -20.836   1.750  1.00  0.00     0.014 A 
HETATM   17  C   UNL     1      44.246 -21.884   2.400  1.00  0.00     0.001 A 
HETATM   18  C   UNL     1      44.788 -21.710   3.675  1.00  0.00     0.003 A 
ENDBRANCH   7  10
ENDBRANCH   5   6
BRANCH   1  19
HETATM   19  C   UNL     1      39.926 -13.924   2.288  1.00  0.00     0.732 A 
HETATM   20  N   UNL     1      40.708 -14.446   1.394  1.00  0.00    -0.067 NA
HETATM   21  C   UNL     1      40.196 -14.496   0.112  1.00  0.00     0.059 A 
HETATM   22  C   UNL     1      38.976 -14.046  -0.224  1.00  0.00     0.102 A 
HETATM   23  C   UNL     1      38.112 -13.475   0.822  1.00  0.00     0.261 A 
HETATM   24  N   UNL     1      38.665 -13.448   2.062  1.00  0.00    -0.152 N 
HETATM   25  O   UNL     1      36.991 -13.054   0.573  1.00  0.00    -0.268 OA
HETATM   26  H   UNL     1      38.124 -13.053   2.826  1.00  0.00     0.187 HD
BRANCH  21  27
HETATM   27  C   UNL     1      41.118 -15.059  -0.947  1.00  0.00     0.060 C 
BRANCH  27  28
HETATM   28  C   UNL     1      40.670 -14.674  -2.358  1.00  0.00     0.002 C 
HETATM   29  C   UNL     1      40.340 -15.906  -3.186  1.00  0.00     0.005 C 
ENDBRANCH  27  28
ENDBRANCH  21  27
ENDBRANCH   1  19
BRANCH   3  30
HETATM   30  C   UNL     1      40.350 -11.837   6.636  1.00  0.00     0.035 A 
HETATM   31  S   UNL     1      41.338 -10.456   6.834  1.00  0.00    -0.100 SA
HETATM   32  C   UNL     1      40.488  -9.968   8.236  1.00  0.00     0.050 A 
HETATM   33  C   UNL     1      39.468 -10.838   8.548  1.00  0.00     0.008 A 
HETATM   34  C   UNL     1      39.387 -11.919   7.622  1.00  0.00     0.022 A 
ENDBRANCH   3  30
TORSDOF 6
ENDMDL
MODEL 6
REMARK VINA RESULT:      -8.4      2.872      7.928
REMARK  6 active torsions:
REMARK  status: ('A' for Active; 'I' for Inactive)
REMARK    1  A    between atoms: C_2  and  C_3 
REMARK    2  A    between atoms: C_3  and  C_4 
REMARK    3  A    between atoms: C_6  and  N_7 
REMARK    4  A    between atoms: C_9  and  C_10 
REMARK    5  A    between atoms: C_16  and  N_17 
REMARK       I    between atoms: N_17  and  C_18 
REMARK    6  A    between atoms: C_18  and  C_19 
ROOT
HETATM    1  N   UNL     1      43.112 -17.221   3.260  1.00  0.00    -0.044 N 
HETATM    2  N   UNL     1      43.467 -18.247   4.080  1.00  0.00    -0.150 NA
HETATM    3  C   UNL     1      43.840 -19.223   3.240  1.00  0.00     0.099 A 
HETATM    4  C   UNL     1      43.729 -18.822   1.886  1.00  0.00     0.086 A 
HETATM    5  C   UNL     1      43.241 -17.537   1.920  1.00  0.00     0.152 A 
ENDROOT
BRANCH   5   6
HETATM    6  N   UNL     1      42.906 -16.700   0.859  1.00  0.00    -0.305 N 
HETATM    7  C   UNL     1      41.593 -16.579   0.301  1.00  0.00     0.281 C 
HETATM    8  O   UNL     1      40.696 -17.339   0.634  1.00  0.00    -0.265 OA
HETATM    9  H   UNL     1      43.656 -16.146   0.438  1.00  0.00     0.170 HD
BRANCH   7  10
HETATM   10  C   UNL     1      41.479 -15.517  -0.664  1.00  0.00     0.144 A 
HETATM   11  O   UNL     1      41.934 -14.266  -0.334  1.00  0.00    -0.304 OA
HETATM   12  C   UNL     1      41.638 -13.445  -1.383  1.00  0.00     0.086 A 
HETATM   13  C   UNL     1      41.031 -14.165  -2.405  1.00  0.00     0.001 A 
HETATM   14  C   UNL     1      41.891 -12.078  -1.436  1.00  0.00     0.038 A 
HETATM   15  C   UNL     1      40.932 -15.498  -1.933  1.00  0.00     0.057 A 
HETATM   16  C   UNL     1      40.660 -13.486  -3.578  1.00  0.00     0.014 A 
HETATM   17  C   UNL     1      40.907 -12.108  -3.664  1.00  0.00     0.001 A 
HETATM   18  C   UNL     1      41.508 -11.418  -2.609  1.00  0.00     0.003 A 
ENDBRANCH   7  10
ENDBRANCH   5   6
BRANCH   1  19
HETATM   19  C   UNL     1      42.696 -15.994   3.799  1.00  0.00     0.732 A 
HETATM   20  N   UNL     1      41.637 -15.373   3.378  1.00  0.00    -0.067 NA
HETATM   21  C   UNL     1      41.377 -14.161   3.989  1.00  0.00     0.059 A 
HETATM   22  C   UNL     1      42.144 -13.633   4.957  1.00  0.00     0.102 A 
HETATM   23  C   UNL     1      43.327 -14.376   5.418  1.00  0.00     0.261 A 
HETATM   24  N   UNL     1      43.537 -15.558   4.783  1.00  0.00    -0.152 N 
HETATM   25  O   UNL     1      44.057 -13.943   6.299  1.00  0.00    -0.268 OA
HETATM   26  H   UNL     1      44.346 -16.113   5.046  1.00  0.00     0.187 HD
BRANCH  21  27
HETATM   27  C   UNL     1      40.172 -13.406   3.473  1.00  0.00     0.060 C 
BRANCH  27  28
HETATM   28  C   UNL     1      39.507 -14.125   2.298  1.00  0.00     0.002 C 
HETATM   29  C   UNL     1      39.015 -13.134   1.254  1.00  0.00     0.005 C 
ENDBRANCH  27  28
ENDBRANCH  21  27
ENDBRANCH   1  19
BRANCH   3  30
HETATM   30  C   UNL     1      44.299 -20.563   3.735  1.00  0.00     0.035 A 
HETATM   31  S   UNL     1      44.370 -21.972   2.769  1.00  0.00    -0.100 SA
HETATM   32  C   UNL     1      44.944 -22.917   4.074  1.00  0.00     0.050 A 
HETATM   33  C   UNL     1      45.082 -22.174   5.225  1.00  0.00     0.008 A 
HETATM   34  C   UNL     1      44.710 -20.812   5.028  1.00  0.00     0.022 A 
ENDBRANCH   3  30
TORSDOF 6
ENDMDL
MODEL 7
REMARK VINA RESULT:      -8.4      3.798      8.163
REMARK  6 active torsions:
REMARK  status: ('A' for Active; 'I' for Inactive)
REMARK    1  A    between atoms: C_2  and  C_3 
REMARK    2  A    between atoms: C_3  and  C_4 
REMARK    3  A    between atoms: C_6  and  N_7 
REMARK    4  A    between atoms: C_9  and  C_10 
REMARK    5  A    between atoms: C_16  and  N_17 
REMARK       I    between atoms: N_17  and  C_18 
REMARK    6  A    between atoms: C_18  and  C_19 
ROOT
HETATM    1  N   UNL     1      43.632 -15.226   6.093  1.00  0.00    -0.044 N 
HETATM    2  N   UNL     1      44.214 -14.753   7.229  1.00  0.00    -0.150 NA
HETATM    3  C   UNL     1      43.946 -13.440   7.210  1.00  0.00     0.099 A 
HETATM    4  C   UNL     1      43.192 -13.073   6.069  1.00  0.00     0.086 A 
HETATM    5  C   UNL     1      43.017 -14.233   5.353  1.00  0.00     0.152 A 
ENDROOT
BRANCH   5   6
HETATM    6  N   UNL     1      42.386 -14.418   4.126  1.00  0.00    -0.305 N 
HETATM    7  C   UNL     1      40.974 -14.585   3.953  1.00  0.00     0.281 C 
HETATM    8  O   UNL     1      40.236 -14.729   4.916  1.00  0.00    -0.265 OA
HETATM    9  H   UNL     1      42.976 -14.457   3.291  1.00  0.00     0.170 HD
BRANCH   7  10
HETATM   10  C   UNL     1      40.564 -14.578   2.573  1.00  0.00     0.144 A 
HETATM   11  O   UNL     1      41.322 -15.250   1.649  1.00  0.00    -0.304 OA
HETATM   12  C   UNL     1      40.759 -15.020   0.429  1.00  0.00     0.086 A 
HETATM   13  C   UNL     1      39.619 -14.236   0.561  1.00  0.00     0.001 A 
HETATM   14  C   UNL     1      41.248 -15.485  -0.789  1.00  0.00     0.038 A 
HETATM   15  C   UNL     1      39.501 -13.956   1.946  1.00  0.00     0.057 A 
HETATM   16  C   UNL     1      38.895 -13.899  -0.595  1.00  0.00     0.014 A 
HETATM   17  C   UNL     1      39.359 -14.359  -1.836  1.00  0.00     0.001 A 
HETATM   18  C   UNL     1      40.517 -15.134  -1.929  1.00  0.00     0.003 A 
ENDBRANCH   7  10
ENDBRANCH   5   6
BRANCH   1  19
HETATM   19  C   UNL     1      43.675 -16.596   5.793  1.00  0.00     0.732 A 
HETATM   20  N   UNL     1      43.634 -17.042   4.575  1.00  0.00    -0.067 NA
HETATM   21  C   UNL     1      43.656 -18.418   4.445  1.00  0.00     0.059 A 
HETATM   22  C   UNL     1      43.716 -19.266   5.486  1.00  0.00     0.102 A 
HETATM   23  C   UNL     1      43.777 -18.719   6.851  1.00  0.00     0.261 A 
HETATM   24  N   UNL     1      43.751 -17.364   6.920  1.00  0.00    -0.152 N 
HETATM   25  O   UNL     1      43.837 -19.446   7.833  1.00  0.00    -0.268 OA
HETATM   26  H   UNL     1      43.776 -16.924   7.836  1.00  0.00     0.187 HD
BRANCH  21  27
HETATM   27  C   UNL     1      43.561 -18.950   3.033  1.00  0.00     0.060 C 
BRANCH  27  28
HETATM   28  C   UNL     1      44.367 -20.237   2.852  1.00  0.00     0.002 C 
HETATM   29  C   UNL     1      43.729 -21.145   1.811  1.00  0.00     0.005 C 
ENDBRANCH  27  28
ENDBRANCH  21  27
ENDBRANCH   1  19
BRANCH   3  30
HETATM   30  C   UNL     1      44.426 -12.517   8.291  1.00  0.00     0.035 A 
HETATM   31  S   UNL     1      43.429 -11.399   9.115  1.00  0.00    -0.100 SA
HETATM   32  C   UNL     1      44.734 -10.837  10.067  1.00  0.00     0.050 A 
HETATM   33  C   UNL     1      45.909 -11.489   9.767  1.00  0.00     0.008 A 
HETATM   34  C   UNL     1      45.730 -12.463   8.740  1.00  0.00     0.022 A 
ENDBRANCH   3  30
TORSDOF 6
ENDMDL
MODEL 8
REMARK VINA RESULT:      -8.1      1.631      1.990
REMARK  6 active torsions:
REMARK  status: ('A' for Active; 'I' for Inactive)
REMARK    1  A    between atoms: C_2  and  C_3 
REMARK    2  A    between atoms: C_3  and  C_4 
REMARK    3  A    between atoms: C_6  and  N_7 
REMARK    4  A    between atoms: C_9  and  C_10 
REMARK    5  A    between atoms: C_16  and  N_17 
REMARK       I    between atoms: N_17  and  C_18 
REMARK    6  A    between atoms: C_18  and  C_19 
ROOT
HETATM    1  N   UNL     1      40.740 -13.513   1.487  1.00  0.00    -0.044 N 
HETATM    2  N   UNL     1      40.167 -12.624   0.630  1.00  0.00    -0.150 NA
HETATM    3  C   UNL     1      40.257 -13.220  -0.567  1.00  0.00     0.099 A 
HETATM    4  C   UNL     1      40.881 -14.488  -0.479  1.00  0.00     0.086 A 
HETATM    5  C   UNL     1      41.202 -14.650   0.848  1.00  0.00     0.152 A 
ENDROOT
BRANCH   5   6
HETATM    6  N   UNL     1      41.872 -15.703   1.465  1.00  0.00    -0.305 N 
HETATM    7  C   UNL     1      41.238 -16.877   1.987  1.00  0.00     0.281 C 
HETATM    8  O   UNL     1      40.022 -16.955   2.059  1.00  0.00    -0.265 OA
HETATM    9  H   UNL     1      42.887 -15.623   1.568  1.00  0.00     0.170 HD
BRANCH   7  10
HETATM   10  C   UNL     1      42.172 -17.888   2.409  1.00  0.00     0.144 A 
HETATM   11  O   UNL     1      42.371 -18.985   1.611  1.00  0.00    -0.304 OA
HETATM   12  C   UNL     1      43.233 -19.808   2.275  1.00  0.00     0.086 A 
HETATM   13  C   UNL     1      43.623 -19.234   3.478  1.00  0.00     0.001 A 
HETATM   14  C   UNL     1      43.664 -21.056   1.831  1.00  0.00     0.038 A 
HETATM   15  C   UNL     1      42.934 -17.997   3.557  1.00  0.00     0.057 A 
HETATM   16  C   UNL     1      44.521 -19.936   4.301  1.00  0.00     0.014 A 
HETATM   17  C   UNL     1      44.977 -21.192   3.877  1.00  0.00     0.001 A 
HETATM   18  C   UNL     1      44.552 -21.742   2.666  1.00  0.00     0.003 A 
ENDBRANCH   7  10
ENDBRANCH   5   6
BRANCH   1  19
HETATM   19  C   UNL     1      40.792 -13.240   2.862  1.00  0.00     0.732 A 
HETATM   20  N   UNL     1      41.820 -13.544   3.593  1.00  0.00    -0.067 NA
HETATM   21  C   UNL     1      41.707 -13.237   4.935  1.00  0.00     0.059 A 
HETATM   22  C   UNL     1      40.622 -12.663   5.481  1.00  0.00     0.102 A 
HETATM   23  C   UNL     1      39.482 -12.319   4.615  1.00  0.00     0.261 A 
HETATM   24  N   UNL     1      39.646 -12.644   3.307  1.00  0.00    -0.152 N 
HETATM   25  O   UNL     1      38.472 -11.792   5.060  1.00  0.00    -0.268 OA
HETATM   26  H   UNL     1      38.889 -12.445   2.659  1.00  0.00     0.187 HD
BRANCH  21  27
HETATM   27  C   UNL     1      42.880 -13.630   5.805  1.00  0.00     0.060 C 
BRANCH  27  28
HETATM   28  C   UNL     1      43.010 -15.148   5.938  1.00  0.00     0.002 C 
HETATM   29  C   UNL     1      43.973 -15.522   7.054  1.00  0.00     0.005 C 
ENDBRANCH  27  28
ENDBRANCH  21  27
ENDBRANCH   1  19
BRANCH   3  30
HETATM   30  C   UNL     1      39.751 -12.564  -1.819  1.00  0.00     0.035 A 
HETATM   31  S   UNL     1      38.096 -12.366  -2.198  1.00  0.00    -0.100 SA
HETATM   32  C   UNL     1      38.461 -11.601  -3.685  1.00  0.00     0.050 A 
HETATM   33  C   UNL     1      39.818 -11.496  -3.889  1.00  0.00     0.008 A 
HETATM   34  C   UNL     1      40.565 -12.052  -2.808  1.00  0.00     0.022 A 
ENDBRANCH   3  30
TORSDOF 6
ENDMDL
MODEL 9
REMARK VINA RESULT:      -8.0      2.898      7.624
REMARK  6 active torsions:
REMARK  status: ('A' for Active; 'I' for Inactive)
REMARK    1  A    between atoms: C_2  and  C_3 
REMARK    2  A    between atoms: C_3  and  C_4 
REMARK    3  A    between atoms: C_6  and  N_7 
REMARK    4  A    between atoms: C_9  and  C_10 
REMARK    5  A    between atoms: C_16  and  N_17 
REMARK       I    between atoms: N_17  and  C_18 
REMARK    6  A    between atoms: C_18  and  C_19 
ROOT
HETATM    1  N   UNL     1      43.146 -17.166   3.598  1.00  0.00    -0.044 N 
HETATM    2  N   UNL     1      43.469 -18.286   4.301  1.00  0.00    -0.150 NA
HETATM    3  C   UNL     1      43.866 -19.157   3.363  1.00  0.00     0.099 A 
HETATM    4  C   UNL     1      43.802 -18.598   2.064  1.00  0.00     0.086 A 
HETATM    5  C   UNL     1      43.318 -17.322   2.234  1.00  0.00     0.152 A 
ENDROOT
BRANCH   5   6
HETATM    6  N   UNL     1      43.022 -16.361   1.271  1.00  0.00    -0.305 N 
HETATM    7  C   UNL     1      41.700 -16.027   0.834  1.00  0.00     0.281 C 
HETATM    8  O   UNL     1      40.736 -16.692   1.183  1.00  0.00    -0.265 OA
HETATM    9  H   UNL     1      43.808 -15.873   0.832  1.00  0.00     0.170 HD
BRANCH   7  10
HETATM   10  C   UNL     1      41.660 -14.880  -0.035  1.00  0.00     0.144 A 
HETATM   11  O   UNL     1      41.417 -15.066  -1.372  1.00  0.00    -0.304 OA
HETATM   12  C   UNL     1      41.509 -13.843  -1.967  1.00  0.00     0.086 A 
HETATM   13  C   UNL     1      41.771 -12.861  -1.019  1.00  0.00     0.001 A 
HETATM   14  C   UNL     1      41.375 -13.593  -3.330  1.00  0.00     0.038 A 
HETATM   15  C   UNL     1      41.867 -13.539   0.223  1.00  0.00     0.057 A 
HETATM   16  C   UNL     1      41.892 -11.527  -1.445  1.00  0.00     0.014 A 
HETATM   17  C   UNL     1      41.755 -11.244  -2.812  1.00  0.00     0.001 A 
HETATM   18  C   UNL     1      41.505 -12.261  -3.736  1.00  0.00     0.003 A 
ENDBRANCH   7  10
ENDBRANCH   5   6
BRANCH   1  19
HETATM   19  C   UNL     1      42.717 -16.009   4.266  1.00  0.00     0.732 A 
HETATM   20  N   UNL     1      43.539 -15.218   4.883  1.00  0.00    -0.067 NA
HETATM   21  C   UNL     1      42.959 -14.136   5.518  1.00  0.00     0.059 A 
HETATM   22  C   UNL     1      41.638 -13.888   5.515  1.00  0.00     0.102 A 
HETATM   23  C   UNL     1      40.741 -14.802   4.790  1.00  0.00     0.261 A 
HETATM   24  N   UNL     1      41.363 -15.848   4.188  1.00  0.00    -0.152 N 
HETATM   25  O   UNL     1      39.532 -14.621   4.753  1.00  0.00    -0.268 OA
HETATM   26  H   UNL     1      40.797 -16.523   3.682  1.00  0.00     0.187 HD
BRANCH  21  27
HETATM   27  C   UNL     1      43.902 -13.233   6.281  1.00  0.00     0.060 C 
BRANCH  27  28
HETATM   28  C   UNL     1      44.626 -13.979   7.402  1.00  0.00     0.002 C 
HETATM   29  C   UNL     1      45.168 -13.013   8.445  1.00  0.00     0.005 C 
ENDBRANCH  27  28
ENDBRANCH  21  27
ENDBRANCH   1  19
BRANCH   3  30
HETATM   30  C   UNL     1      44.302 -20.551   3.709  1.00  0.00     0.035 A 
HETATM   31  S   UNL     1      44.345 -21.849   2.597  1.00  0.00    -0.100 SA
HETATM   32  C   UNL     1      44.906 -22.938   3.791  1.00  0.00     0.050 A 
HETATM   33  C   UNL     1      45.061 -22.326   5.014  1.00  0.00     0.008 A 
HETATM   34  C   UNL     1      44.712 -20.944   4.967  1.00  0.00     0.022 A 
ENDBRANCH   3  30
TORSDOF 6
ENDMDL
MODEL 10
REMARK VINA RESULT:      -8.0      5.186      8.748
REMARK  6 active torsions:
REMARK  status: ('A' for Active; 'I' for Inactive)
REMARK    1  A    between atoms: C_2  and  C_3 
REMARK    2  A    between atoms: C_3  and  C_4 
REMARK    3  A    between atoms: C_6  and  N_7 
REMARK    4  A    between atoms: C_9  and  C_10 
REMARK    5  A    between atoms: C_16  and  N_17 
REMARK       I    between atoms: N_17  and  C_18 
REMARK    6  A    between atoms: C_18  and  C_19 
ROOT
HETATM    1  N   UNL     1      40.800 -12.589   5.323  1.00  0.00    -0.044 N 
HETATM    2  N   UNL     1      40.105 -12.514   4.155  1.00  0.00    -0.150 NA
HETATM    3  C   UNL     1      39.276 -11.475   4.336  1.00  0.00     0.099 A 
HETATM    4  C   UNL     1      39.443 -10.884   5.612  1.00  0.00     0.086 A 
HETATM    5  C   UNL     1      40.415 -11.628   6.240  1.00  0.00     0.152 A 
ENDROOT
BRANCH   5   6
HETATM    6  N   UNL     1      40.920 -11.498   7.530  1.00  0.00    -0.305 N 
HETATM    7  C   UNL     1      41.717 -10.400   7.986  1.00  0.00     0.281 C 
HETATM    8  O   UNL     1      42.139  -9.562   7.204  1.00  0.00    -0.265 OA
HETATM    9  H   UNL     1      40.722 -12.252   8.194  1.00  0.00     0.170 HD
BRANCH   7  10
HETATM   10  C   UNL     1      41.958 -10.420   9.406  1.00  0.00     0.144 A 
HETATM   11  O   UNL     1      40.909 -10.662  10.255  1.00  0.00    -0.304 OA
HETATM   12  C   UNL     1      41.393 -10.550  11.526  1.00  0.00     0.086 A 
HETATM   13  C   UNL     1      42.755 -10.276  11.504  1.00  0.00     0.001 A 
HETATM   14  C   UNL     1      40.642 -10.677  12.691  1.00  0.00     0.038 A 
HETATM   15  C   UNL     1      43.110 -10.194  10.134  1.00  0.00     0.057 A 
HETATM   16  C   UNL     1      43.434 -10.134  12.726  1.00  0.00     0.014 A 
HETATM   17  C   UNL     1      42.705 -10.263  13.918  1.00  0.00     0.001 A 
HETATM   18  C   UNL     1      41.334 -10.525  13.898  1.00  0.00     0.003 A 
ENDBRANCH   7  10
ENDBRANCH   5   6
BRANCH   1  19
HETATM   19  C   UNL     1      41.805 -13.555   5.488  1.00  0.00     0.732 A 
HETATM   20  N   UNL     1      42.885 -13.324   6.169  1.00  0.00    -0.067 NA
HETATM   21  C   UNL     1      43.792 -14.366   6.214  1.00  0.00     0.059 A 
HETATM   22  C   UNL     1      43.602 -15.549   5.608  1.00  0.00     0.102 A 
HETATM   23  C   UNL     1      42.356 -15.777   4.858  1.00  0.00     0.261 A 
HETATM   24  N   UNL     1      41.503 -14.721   4.844  1.00  0.00    -0.152 N 
HETATM   25  O   UNL     1      42.131 -16.836   4.291  1.00  0.00    -0.268 OA
HETATM   26  H   UNL     1      40.630 -14.810   4.331  1.00  0.00     0.187 HD
BRANCH  21  27
HETATM   27  C   UNL     1      45.076 -14.092   6.966  1.00  0.00     0.060 C 
BRANCH  27  28
HETATM   28  C   UNL     1      44.851 -13.170   8.165  1.00  0.00     0.002 C 
HETATM   29  C   UNL     1      46.073 -12.304   8.430  1.00  0.00     0.005 C 
ENDBRANCH  27  28
ENDBRANCH  21  27
ENDBRANCH   1  19
BRANCH   3  30
HETATM   30  C   UNL     1      38.302 -11.045   3.279  1.00  0.00     0.035 A 
HETATM   31  S   UNL     1      38.033 -11.892   1.818  1.00  0.00    -0.100 SA
HETATM   32  C   UNL     1      36.871 -10.750   1.294  1.00  0.00     0.050 A 
HETATM   33  C   UNL     1      36.688  -9.743   2.215  1.00  0.00     0.008 A 
HETATM   34  C   UNL     1      37.515  -9.915   3.365  1.00  0.00     0.022 A 
ENDBRANCH   3  30
TORSDOF 6
ENDMDL
