MODEL 1
REMARK VINA RESULT:      -7.8      0.000      0.000
REMARK  9 active torsions:
REMARK  status: ('A' for Active; 'I' for Inactive)
REMARK    1  A    between atoms: C_2  and  C_3 
REMARK    2  A    between atoms: C_7  and  C_8 
REMARK    3  A    between atoms: C_8  and  C_9 
REMARK       I    between atoms: C_9  and  N_10 
REMARK    4  A    between atoms: N_10  and  C_11 
REMARK    5  A    between atoms: C_11  and  C_12 
REMARK    6  A    between atoms: C_12  and  C_13 
REMARK    7  A    between atoms: C_21  and  C_22 
REMARK    8  A    between atoms: C_32  and  C_33 
REMARK    9  A    between atoms: C_33  and  O_34 
ROOT
HETATM    1  C   UNL     1      41.664 -12.668   5.421  1.00  0.00     0.051 C 
HETATM    2  N   UNL     1      40.947 -11.946   4.487  1.00  0.00    -0.228 NA
HETATM    3  C   UNL     1      40.899 -12.410   3.286  1.00  0.00     0.170 C 
HETATM    4  N   UNL     1      41.270 -13.883   2.862  1.00  0.00    -0.318 N 
HETATM    5  C   UNL     1      40.888 -14.064   1.637  1.00  0.00     0.011 C 
HETATM    6  C   UNL     1      41.504 -14.732   4.049  1.00  0.00     0.166 C 
HETATM    7  S   UNL     1      40.287 -11.478   1.951  1.00  0.00    -0.086 SA
HETATM    8  C   UNL     1      40.774 -12.801   0.812  1.00  0.00     0.135 C 
HETATM    9  C   UNL     1      42.115 -13.912   5.152  1.00  0.00     0.069 C 
ENDROOT
BRANCH   5  10
HETATM   10  C   UNL     1      40.274 -15.350   1.155  1.00  0.00     0.156 C 
BRANCH  10  11
HETATM   11  C   UNL     1      40.919 -15.690  -0.178  1.00  0.00     0.222 C 
HETATM   12  N   UNL     1      40.260 -15.275  -1.305  1.00  0.00    -0.361 N 
HETATM   13  H   UNL     1      39.546 -14.554  -1.229  1.00  0.00     0.162 HD
HETATM   14  O   UNL     1      41.933 -16.385  -0.205  1.00  0.00    -0.273 OA
BRANCH  12  15
HETATM   15  C   UNL     1      40.783 -15.566  -2.636  1.00  0.00     0.124 C 
BRANCH  15  16
HETATM   16  C   UNL     1      41.610 -14.399  -3.197  1.00  0.00     0.053 C 
BRANCH  16  17
HETATM   17  C   UNL     1      41.049 -13.022  -2.800  1.00  0.00     0.189 C 
HETATM   18  N   UNL     1      40.088 -12.545  -3.904  1.00  0.00    -0.071 N 
HETATM   19  H   UNL     1      40.051 -13.252  -4.649  1.00  0.00     0.279 HD
HETATM   20  C   UNL     1      38.674 -12.342  -3.437  1.00  0.00     0.270 C 
HETATM   21  C   UNL     1      40.677 -11.290  -4.529  1.00  0.00     0.235 C 
HETATM   22  C   UNL     1      42.137 -11.344  -4.138  1.00  0.00     0.030 C 
HETATM   23  C   UNL     1      42.091 -11.907  -2.731  1.00  0.00     0.035 C 
ENDBRANCH  16  17
ENDBRANCH  15  16
ENDBRANCH  12  15
ENDBRANCH  10  11
ENDBRANCH   5  10
BRANCH   6  24
HETATM   24  C   UNL     1      42.185 -16.078   3.805  1.00  0.00    -0.024 A 
HETATM   25  C   UNL     1      41.878 -17.197   4.622  1.00  0.00    -0.053 A 
HETATM   26  C   UNL     1      40.848 -17.153   5.722  1.00  0.00     0.049 C 
HETATM   27  C   UNL     1      42.564 -18.408   4.425  1.00  0.00     0.014 A 
HETATM   28  C   UNL     1      43.557 -18.535   3.450  1.00  0.00    -0.061 A 
HETATM   29  C   UNL     1      44.339 -19.812   3.323  1.00  0.00     0.048 C 
HETATM   30  C   UNL     1      43.878 -17.428   2.667  1.00  0.00     0.007 A 
HETATM   31  C   UNL     1      43.202 -16.218   2.838  1.00  0.00     0.011 A 
ENDBRANCH   6  24
BRANCH   9  32
HETATM   32  C   UNL     1      43.564 -14.059   5.402  1.00  0.00     0.293 C 
HETATM   33  O   UNL     1      44.360 -13.558   4.620  1.00  0.00    -0.259 OA
BRANCH  32  34
HETATM   34  O   UNL     1      43.833 -14.686   6.560  1.00  0.00    -0.323 OA
HETATM   35  C   UNL     1      44.866 -14.042   7.314  1.00  0.00     0.213 C 
ENDBRANCH  32  34
ENDBRANCH   9  32
BRANCH   1  36
HETATM   36  C   UNL     1      42.022 -11.884   6.675  1.00  0.00     0.056 C 
HETATM   37  C   UNL     1      41.318 -10.528   6.700  1.00  0.00     0.011 C 
ENDBRANCH   1  36
TORSDOF 9
ENDMDL
MODEL 2
REMARK VINA RESULT:      -7.6      2.751      7.849
REMARK  9 active torsions:
REMARK  status: ('A' for Active; 'I' for Inactive)
REMARK    1  A    between atoms: C_2  and  C_3 
REMARK    2  A    between atoms: C_7  and  C_8 
REMARK    3  A    between atoms: C_8  and  C_9 
REMARK       I    between atoms: C_9  and  N_10 
REMARK    4  A    between atoms: N_10  and  C_11 
REMARK    5  A    between atoms: C_11  and  C_12 
REMARK    6  A    between atoms: C_12  and  C_13 
REMARK    7  A    between atoms: C_21  and  C_22 
REMARK    8  A    between atoms: C_32  and  C_33 
REMARK    9  A    between atoms: C_33  and  O_34 
ROOT
HETATM    1  C   UNL     1      42.521 -11.414  -0.798  1.00  0.00     0.051 C 
HETATM    2  N   UNL     1      42.572 -11.546   0.576  1.00  0.00    -0.228 NA
HETATM    3  C   UNL     1      41.527 -12.014   1.167  1.00  0.00     0.170 C 
HETATM    4  N   UNL     1      40.343 -12.778   0.457  1.00  0.00    -0.318 N 
HETATM    5  C   UNL     1      39.589 -13.302   1.372  1.00  0.00     0.011 C 
HETATM    6  C   UNL     1      40.669 -13.061  -0.957  1.00  0.00     0.166 C 
HETATM    7  S   UNL     1      41.333 -11.967   2.895  1.00  0.00    -0.086 SA
HETATM    8  C   UNL     1      39.651 -12.616   2.719  1.00  0.00     0.135 C 
HETATM    9  C   UNL     1      41.513 -11.950  -1.519  1.00  0.00     0.069 C 
ENDROOT
BRANCH   5  10
HETATM   10  C   UNL     1      38.970 -14.667   1.236  1.00  0.00     0.156 C 
BRANCH  10  11
HETATM   11  C   UNL     1      40.027 -15.686   1.625  1.00  0.00     0.222 C 
HETATM   12  N   UNL     1      39.983 -16.160   2.910  1.00  0.00    -0.361 N 
HETATM   13  H   UNL     1      39.134 -16.039   3.457  1.00  0.00     0.162 HD
HETATM   14  O   UNL     1      40.917 -15.977   0.828  1.00  0.00    -0.273 OA
BRANCH  12  15
HETATM   15  C   UNL     1      40.962 -17.128   3.392  1.00  0.00     0.124 C 
BRANCH  15  16
HETATM   16  C   UNL     1      42.029 -16.474   4.283  1.00  0.00     0.053 C 
BRANCH  16  17
HETATM   17  C   UNL     1      43.458 -16.923   3.935  1.00  0.00     0.189 C 
HETATM   18  N   UNL     1      43.399 -17.835   2.697  1.00  0.00    -0.071 N 
HETATM   19  H   UNL     1      42.421 -17.937   2.398  1.00  0.00     0.279 HD
HETATM   20  C   UNL     1      44.156 -17.307   1.511  1.00  0.00     0.270 C 
HETATM   21  C   UNL     1      43.869 -19.221   3.112  1.00  0.00     0.235 C 
HETATM   22  C   UNL     1      43.722 -19.215   4.618  1.00  0.00     0.030 C 
HETATM   23  C   UNL     1      44.125 -17.802   4.992  1.00  0.00     0.035 C 
ENDBRANCH  16  17
ENDBRANCH  15  16
ENDBRANCH  12  15
ENDBRANCH  10  11
ENDBRANCH   5  10
BRANCH   6  24
HETATM   24  C   UNL     1      39.509 -13.494  -1.853  1.00  0.00    -0.024 A 
HETATM   25  C   UNL     1      39.656 -14.598  -2.732  1.00  0.00    -0.053 A 
HETATM   26  C   UNL     1      40.912 -15.430  -2.804  1.00  0.00     0.049 C 
HETATM   27  C   UNL     1      38.602 -14.939  -3.597  1.00  0.00     0.014 A 
HETATM   28  C   UNL     1      37.412 -14.208  -3.624  1.00  0.00    -0.061 A 
HETATM   29  C   UNL     1      36.338 -14.537  -4.621  1.00  0.00     0.048 C 
HETATM   30  C   UNL     1      37.279 -13.107  -2.779  1.00  0.00     0.007 A 
HETATM   31  C   UNL     1      38.309 -12.755  -1.904  1.00  0.00     0.011 A 
ENDBRANCH   6  24
BRANCH   9  32
HETATM   32  C   UNL     1      40.860 -10.964  -2.404  1.00  0.00     0.293 C 
HETATM   33  O   UNL     1      40.282 -10.006  -1.909  1.00  0.00    -0.259 OA
BRANCH  32  34
HETATM   34  O   UNL     1      41.065 -11.217  -3.708  1.00  0.00    -0.323 OA
HETATM   35  C   UNL     1      40.030 -10.689  -4.546  1.00  0.00     0.213 C 
ENDBRANCH  32  34
ENDBRANCH   9  32
BRANCH   1  36
HETATM   36  C   UNL     1      43.590 -10.498  -1.376  1.00  0.00     0.056 C 
HETATM   37  C   UNL     1      43.619  -9.154  -0.649  1.00  0.00     0.011 C 
ENDBRANCH   1  36
TORSDOF 9
ENDMDL
MODEL 3
REMARK VINA RESULT:      -7.5      1.864      2.554
REMARK  9 active torsions:
REMARK  status: ('A' for Active; 'I' for Inactive)
REMARK    1  A    between atoms: C_2  and  C_3 
REMARK    2  A    between atoms: C_7  and  C_8 
REMARK    3  A    between atoms: C_8  and  C_9 
REMARK       I    between atoms: C_9  and  N_10 
REMARK    4  A    between atoms: N_10  and  C_11 
REMARK    5  A    between atoms: C_11  and  C_12 
REMARK    6  A    between atoms: C_12  and  C_13 
REMARK    7  A    between atoms: C_21  and  C_22 
REMARK    8  A    between atoms: C_32  and  C_33 
REMARK    9  A    between atoms: C_33  and  O_34 
ROOT
HETATM    1  C   UNL     1      41.677 -12.841   3.682  1.00  0.00     0.051 C 
HETATM    2  N   UNL     1      41.225 -12.145   2.579  1.00  0.00    -0.228 NA
HETATM    3  C   UNL     1      41.451 -12.658   1.418  1.00  0.00     0.170 C 
HETATM    4  N   UNL     1      41.869 -14.154   1.149  1.00  0.00    -0.318 N 
HETATM    5  C   UNL     1      41.785 -14.378  -0.125  1.00  0.00     0.011 C 
HETATM    6  C   UNL     1      41.788 -14.957   2.387  1.00  0.00     0.166 C 
HETATM    7  S   UNL     1      41.203 -11.770  -0.058  1.00  0.00    -0.086 SA
HETATM    8  C   UNL     1      41.909 -13.149  -0.998  1.00  0.00     0.135 C 
HETATM    9  C   UNL     1      42.142 -14.104   3.573  1.00  0.00     0.069 C 
ENDROOT
BRANCH   5  10
HETATM   10  C   UNL     1      41.267 -15.671  -0.694  1.00  0.00     0.156 C 
BRANCH  10  11
HETATM   11  C   UNL     1      40.663 -15.361  -2.052  1.00  0.00     0.222 C 
HETATM   12  N   UNL     1      39.340 -15.006  -2.073  1.00  0.00    -0.361 N 
HETATM   13  H   UNL     1      38.891 -14.706  -1.211  1.00  0.00     0.162 HD
HETATM   14  O   UNL     1      41.336 -15.521  -3.070  1.00  0.00    -0.273 OA
BRANCH  12  15
HETATM   15  C   UNL     1      38.658 -14.706  -3.328  1.00  0.00     0.124 C 
BRANCH  15  16
HETATM   16  C   UNL     1      38.436 -13.197  -3.516  1.00  0.00     0.053 C 
BRANCH  16  17
HETATM   17  C   UNL     1      36.948 -12.812  -3.564  1.00  0.00     0.189 C 
HETATM   18  N   UNL     1      36.419 -13.068  -4.986  1.00  0.00    -0.071 N 
HETATM   19  H   UNL     1      37.183 -13.429  -5.571  1.00  0.00     0.279 HD
HETATM   20  C   UNL     1      35.314 -14.084  -5.053  1.00  0.00     0.270 C 
HETATM   21  C   UNL     1      36.013 -11.731  -5.584  1.00  0.00     0.235 C 
HETATM   22  C   UNL     1      36.742 -10.717  -4.731  1.00  0.00     0.030 C 
HETATM   23  C   UNL     1      36.668 -11.326  -3.344  1.00  0.00     0.035 C 
ENDBRANCH  16  17
ENDBRANCH  15  16
ENDBRANCH  12  15
ENDBRANCH  10  11
ENDBRANCH   5  10
BRANCH   6  24
HETATM   24  C   UNL     1      42.468 -16.326   2.361  1.00  0.00    -0.024 A 
HETATM   25  C   UNL     1      42.023 -17.365   3.219  1.00  0.00    -0.053 A 
HETATM   26  C   UNL     1      40.848 -17.213   4.151  1.00  0.00     0.049 C 
HETATM   27  C   UNL     1      42.704 -18.594   3.230  1.00  0.00     0.014 A 
HETATM   28  C   UNL     1      43.824 -18.816   2.423  1.00  0.00    -0.061 A 
HETATM   29  C   UNL     1      44.588 -20.106   2.521  1.00  0.00     0.048 C 
HETATM   30  C   UNL     1      44.277 -17.786   1.601  1.00  0.00     0.007 A 
HETATM   31  C   UNL     1      43.610 -16.559   1.567  1.00  0.00     0.011 A 
ENDBRANCH   6  24
BRANCH   9  32
HETATM   32  C   UNL     1      43.484 -14.269   4.169  1.00  0.00     0.293 C 
HETATM   33  O   UNL     1      44.436 -13.683   3.671  1.00  0.00    -0.259 OA
BRANCH  32  34
HETATM   34  O   UNL     1      43.472 -15.015   5.286  1.00  0.00    -0.323 OA
HETATM   35  C   UNL     1      44.018 -14.329   6.419  1.00  0.00     0.213 C 
ENDBRANCH  32  34
ENDBRANCH   9  32
BRANCH   1  36
HETATM   36  C   UNL     1      41.748 -12.012   4.956  1.00  0.00     0.056 C 
HETATM   37  C   UNL     1      41.234 -10.593   4.723  1.00  0.00     0.011 C 
ENDBRANCH   1  36
TORSDOF 9
ENDMDL
MODEL 4
REMARK VINA RESULT:      -7.4      2.278      3.304
REMARK  9 active torsions:
REMARK  status: ('A' for Active; 'I' for Inactive)
REMARK    1  A    between atoms: C_2  and  C_3 
REMARK    2  A    between atoms: C_7  and  C_8 
REMARK    3  A    between atoms: C_8  and  C_9 
REMARK       I    between atoms: C_9  and  N_10 
REMARK    4  A    between atoms: N_10  and  C_11 
REMARK    5  A    between atoms: C_11  and  C_12 
REMARK    6  A    between atoms: C_12  and  C_13 
REMARK    7  A    between atoms: C_21  and  C_22 
REMARK    8  A    between atoms: C_32  and  C_33 
REMARK    9  A    between atoms: C_33  and  O_34 
ROOT
HETATM    1  C   UNL     1      41.346 -12.515   2.761  1.00  0.00     0.051 C 
HETATM    2  N   UNL     1      41.145 -11.777   1.611  1.00  0.00    -0.228 NA
HETATM    3  C   UNL     1      41.529 -12.298   0.496  1.00  0.00     0.170 C 
HETATM    4  N   UNL     1      41.873 -13.820   0.272  1.00  0.00    -0.318 N 
HETATM    5  C   UNL     1      41.994 -14.028  -1.001  1.00  0.00     0.011 C 
HETATM    6  C   UNL     1      41.519 -14.624   1.461  1.00  0.00     0.166 C 
HETATM    7  S   UNL     1      41.607 -11.383  -0.981  1.00  0.00    -0.086 SA
HETATM    8  C   UNL     1      42.359 -12.805  -1.815  1.00  0.00     0.135 C 
HETATM    9  C   UNL     1      41.726 -13.809   2.708  1.00  0.00     0.069 C 
ENDROOT
BRANCH   5  10
HETATM   10  C   UNL     1      41.485 -15.272  -1.677  1.00  0.00     0.156 C 
BRANCH  10  11
HETATM   11  C   UNL     1      40.334 -14.862  -2.578  1.00  0.00     0.222 C 
HETATM   12  N   UNL     1      39.135 -14.603  -1.967  1.00  0.00    -0.361 N 
HETATM   13  H   UNL     1      39.113 -14.429  -0.965  1.00  0.00     0.162 HD
HETATM   14  O   UNL     1      40.483 -14.865  -3.799  1.00  0.00    -0.273 OA
BRANCH  12  15
HETATM   15  C   UNL     1      37.959 -14.220  -2.743  1.00  0.00     0.124 C 
BRANCH  15  16
HETATM   16  C   UNL     1      37.460 -12.814  -2.375  1.00  0.00     0.053 C 
BRANCH  16  17
HETATM   17  C   UNL     1      38.045 -12.299  -1.048  1.00  0.00     0.189 C 
HETATM   18  N   UNL     1      37.149 -12.785   0.105  1.00  0.00    -0.071 N 
HETATM   19  H   UNL     1      36.369 -13.332  -0.280  1.00  0.00     0.279 HD
HETATM   20  C   UNL     1      37.852 -13.677   1.090  1.00  0.00     0.270 C 
HETATM   21  C   UNL     1      36.534 -11.563   0.769  1.00  0.00     0.235 C 
HETATM   22  C   UNL     1      36.679 -10.476  -0.273  1.00  0.00     0.030 C 
HETATM   23  C   UNL     1      38.028 -10.779  -0.893  1.00  0.00     0.035 C 
ENDBRANCH  16  17
ENDBRANCH  15  16
ENDBRANCH  12  15
ENDBRANCH  10  11
ENDBRANCH   5  10
BRANCH   6  24
HETATM   24  C   UNL     1      42.088 -16.041   1.524  1.00  0.00    -0.024 A 
HETATM   25  C   UNL     1      41.266 -17.127   1.922  1.00  0.00    -0.053 A 
HETATM   26  C   UNL     1      39.802 -16.973   2.249  1.00  0.00     0.049 C 
HETATM   27  C   UNL     1      41.824 -18.411   2.040  1.00  0.00     0.014 A 
HETATM   28  C   UNL     1      43.179 -18.645   1.788  1.00  0.00    -0.061 A 
HETATM   29  C   UNL     1      43.769 -20.009   2.010  1.00  0.00     0.048 C 
HETATM   30  C   UNL     1      43.991 -17.573   1.424  1.00  0.00     0.007 A 
HETATM   31  C   UNL     1      43.456 -16.290   1.292  1.00  0.00     0.011 A 
ENDBRANCH   6  24
BRANCH   9  32
HETATM   32  C   UNL     1      42.928 -14.083   3.522  1.00  0.00     0.293 C 
HETATM   33  O   UNL     1      43.986 -13.543   3.226  1.00  0.00    -0.259 OA
BRANCH  32  34
HETATM   34  O   UNL     1      42.674 -14.865   4.585  1.00  0.00    -0.323 OA
HETATM   35  C   UNL     1      43.533 -14.589   5.697  1.00  0.00     0.213 C 
ENDBRANCH  32  34
ENDBRANCH   9  32
BRANCH   1  36
HETATM   36  C   UNL     1      41.258 -11.703   4.046  1.00  0.00     0.056 C 
HETATM   37  C   UNL     1      40.043 -12.112   4.877  1.00  0.00     0.011 C 
ENDBRANCH   1  36
TORSDOF 9
ENDMDL
MODEL 5
REMARK VINA RESULT:      -7.1      2.468      4.972
REMARK  9 active torsions:
REMARK  status: ('A' for Active; 'I' for Inactive)
REMARK    1  A    between atoms: C_2  and  C_3 
REMARK    2  A    between atoms: C_7  and  C_8 
REMARK    3  A    between atoms: C_8  and  C_9 
REMARK       I    between atoms: C_9  and  N_10 
REMARK    4  A    between atoms: N_10  and  C_11 
REMARK    5  A    between atoms: C_11  and  C_12 
REMARK    6  A    between atoms: C_12  and  C_13 
REMARK    7  A    between atoms: C_21  and  C_22 
REMARK    8  A    between atoms: C_32  and  C_33 
REMARK    9  A    between atoms: C_33  and  O_34 
ROOT
HETATM    1  C   UNL     1      43.600 -17.993   4.592  1.00  0.00     0.051 C 
HETATM    2  N   UNL     1      43.854 -18.121   3.240  1.00  0.00    -0.228 NA
HETATM    3  C   UNL     1      43.265 -17.298   2.443  1.00  0.00     0.170 C 
HETATM    4  N   UNL     1      42.571 -15.950   2.876  1.00  0.00    -0.318 N 
HETATM    5  C   UNL     1      42.292 -15.273   1.806  1.00  0.00     0.011 C 
HETATM    6  C   UNL     1      42.844 -15.646   4.297  1.00  0.00     0.166 C 
HETATM    7  S   UNL     1      43.258 -17.515   0.717  1.00  0.00    -0.086 SA
HETATM    8  C   UNL     1      42.136 -16.102   0.550  1.00  0.00     0.135 C 
HETATM    9  C   UNL     1      42.937 -16.924   5.083  1.00  0.00     0.069 C 
ENDROOT
BRANCH   5  10
HETATM   10  C   UNL     1      42.447 -13.779   1.722  1.00  0.00     0.156 C 
BRANCH  10  11
HETATM   11  C   UNL     1      41.612 -13.301   0.547  1.00  0.00     0.222 C 
HETATM   12  N   UNL     1      40.252 -13.300   0.716  1.00  0.00    -0.361 N 
HETATM   13  H   UNL     1      39.867 -13.350   1.656  1.00  0.00     0.162 HD
HETATM   14  O   UNL     1      42.160 -13.025  -0.519  1.00  0.00    -0.273 OA
BRANCH  12  15
HETATM   15  C   UNL     1      39.358 -12.877  -0.357  1.00  0.00     0.124 C 
BRANCH  15  16
HETATM   16  C   UNL     1      38.682 -14.072  -1.048  1.00  0.00     0.053 C 
BRANCH  16  17
HETATM   17  C   UNL     1      38.835 -14.043  -2.578  1.00  0.00     0.189 C 
HETATM   18  N   UNL     1      38.025 -15.207  -3.175  1.00  0.00    -0.071 N 
HETATM   19  H   UNL     1      37.578 -15.734  -2.414  1.00  0.00     0.279 HD
HETATM   20  C   UNL     1      36.922 -14.773  -4.099  1.00  0.00     0.270 C 
HETATM   21  C   UNL     1      38.999 -16.162  -3.847  1.00  0.00     0.235 C 
HETATM   22  C   UNL     1      40.333 -15.812  -3.225  1.00  0.00     0.030 C 
HETATM   23  C   UNL     1      40.254 -14.305  -3.081  1.00  0.00     0.035 C 
ENDBRANCH  16  17
ENDBRANCH  15  16
ENDBRANCH  12  15
ENDBRANCH  10  11
ENDBRANCH   5  10
BRANCH   6  24
HETATM   24  C   UNL     1      41.981 -14.562   4.943  1.00  0.00    -0.024 A 
HETATM   25  C   UNL     1      42.553 -13.642   5.860  1.00  0.00    -0.053 A 
HETATM   26  C   UNL     1      44.020 -13.635   6.209  1.00  0.00     0.049 C 
HETATM   27  C   UNL     1      41.731 -12.696   6.495  1.00  0.00     0.014 A 
HETATM   28  C   UNL     1      40.355 -12.647   6.258  1.00  0.00    -0.061 A 
HETATM   29  C   UNL     1      39.485 -11.687   7.019  1.00  0.00     0.048 C 
HETATM   30  C   UNL     1      39.789 -13.568   5.378  1.00  0.00     0.007 A 
HETATM   31  C   UNL     1      40.589 -14.511   4.728  1.00  0.00     0.011 A 
ENDBRANCH   6  24
BRANCH   9  32
HETATM   32  C   UNL     1      41.783 -17.306   5.922  1.00  0.00     0.293 C 
HETATM   33  O   UNL     1      40.920 -18.037   5.455  1.00  0.00    -0.259 OA
BRANCH  32  34
HETATM   34  O   UNL     1      41.876 -16.845   7.181  1.00  0.00    -0.323 OA
HETATM   35  C   UNL     1      43.175 -17.043   7.751  1.00  0.00     0.213 C 
ENDBRANCH  32  34
ENDBRANCH   9  32
BRANCH   1  36
HETATM   36  C   UNL     1      43.982 -19.213   5.417  1.00  0.00     0.056 C 
HETATM   37  C   UNL     1      44.786 -20.213   4.587  1.00  0.00     0.011 C 
ENDBRANCH   1  36
TORSDOF 9
ENDMDL
MODEL 6
REMARK VINA RESULT:      -6.9      3.169      7.148
REMARK  9 active torsions:
REMARK  status: ('A' for Active; 'I' for Inactive)
REMARK    1  A    between atoms: C_2  and  C_3 
REMARK    2  A    between atoms: C_7  and  C_8 
REMARK    3  A    between atoms: C_8  and  C_9 
REMARK       I    between atoms: C_9  and  N_10 
REMARK    4  A    between atoms: N_10  and  C_11 
REMARK    5  A    between atoms: C_11  and  C_12 
REMARK    6  A    between atoms: C_12  and  C_13 
REMARK    7  A    between atoms: C_21  and  C_22 
REMARK    8  A    between atoms: C_32  and  C_33 
REMARK    9  A    between atoms: C_33  and  O_34 
ROOT
HETATM    1  C   UNL     1      41.212 -11.475   4.897  1.00  0.00     0.051 C 
HETATM    2  N   UNL     1      41.852 -12.661   5.196  1.00  0.00    -0.228 NA
HETATM    3  C   UNL     1      41.501 -13.710   4.534  1.00  0.00     0.170 C 
HETATM    4  N   UNL     1      40.678 -13.706   3.189  1.00  0.00    -0.318 N 
HETATM    5  C   UNL     1      40.707 -14.901   2.689  1.00  0.00     0.011 C 
HETATM    6  C   UNL     1      40.518 -12.330   2.671  1.00  0.00     0.166 C 
HETATM    7  S   UNL     1      42.002 -15.312   4.991  1.00  0.00    -0.086 SA
HETATM    8  C   UNL     1      40.944 -16.007   3.695  1.00  0.00     0.135 C 
HETATM    9  C   UNL     1      40.409 -11.363   3.817  1.00  0.00     0.069 C 
ENDROOT
BRANCH   5  10
HETATM   10  C   UNL     1      40.844 -15.167   1.215  1.00  0.00     0.156 C 
BRANCH  10  11
HETATM   11  C   UNL     1      41.547 -16.503   1.057  1.00  0.00     0.222 C 
HETATM   12  N   UNL     1      42.914 -16.474   0.966  1.00  0.00    -0.361 N 
HETATM   13  H   UNL     1      43.416 -15.642   1.266  1.00  0.00     0.162 HD
HETATM   14  O   UNL     1      40.883 -17.531   0.927  1.00  0.00    -0.273 OA
BRANCH  12  15
HETATM   15  C   UNL     1      43.686 -17.700   0.793  1.00  0.00     0.124 C 
BRANCH  15  16
HETATM   16  C   UNL     1      44.381 -18.131   2.094  1.00  0.00     0.053 C 
BRANCH  16  17
HETATM   17  C   UNL     1      43.594 -19.202   2.868  1.00  0.00     0.189 C 
HETATM   18  N   UNL     1      44.557 -19.924   3.826  1.00  0.00    -0.071 N 
HETATM   19  H   UNL     1      45.499 -19.528   3.720  1.00  0.00     0.279 HD
HETATM   20  C   UNL     1      44.195 -19.783   5.278  1.00  0.00     0.270 C 
HETATM   21  C   UNL     1      44.648 -21.379   3.392  1.00  0.00     0.235 C 
HETATM   22  C   UNL     1      44.153 -21.360   1.962  1.00  0.00     0.030 C 
HETATM   23  C   UNL     1      43.039 -20.333   2.003  1.00  0.00     0.035 C 
ENDBRANCH  16  17
ENDBRANCH  15  16
ENDBRANCH  12  15
ENDBRANCH  10  11
ENDBRANCH   5  10
BRANCH   6  24
HETATM   24  C   UNL     1      39.479 -12.131   1.568  1.00  0.00    -0.024 A 
HETATM   25  C   UNL     1      39.746 -11.258   0.481  1.00  0.00    -0.053 A 
HETATM   26  C   UNL     1      41.055 -10.530   0.314  1.00  0.00     0.049 C 
HETATM   27  C   UNL     1      38.752 -11.036  -0.487  1.00  0.00     0.014 A 
HETATM   28  C   UNL     1      37.496 -11.642  -0.400  1.00  0.00    -0.061 A 
HETATM   29  C   UNL     1      36.421 -11.315  -1.397  1.00  0.00     0.048 C 
HETATM   30  C   UNL     1      37.226 -12.477   0.683  1.00  0.00     0.007 A 
HETATM   31  C   UNL     1      38.201 -12.721   1.652  1.00  0.00     0.011 A 
ENDBRANCH   6  24
BRANCH   9  32
HETATM   32  C   UNL     1      39.070 -10.838   4.155  1.00  0.00     0.293 C 
HETATM   33  O   UNL     1      38.372 -11.450   4.952  1.00  0.00    -0.259 OA
BRANCH  32  34
HETATM   34  O   UNL     1      38.812  -9.653   3.575  1.00  0.00    -0.323 OA
HETATM   35  C   UNL     1      38.739  -8.577   4.518  1.00  0.00     0.213 C 
ENDBRANCH  32  34
ENDBRANCH   9  32
BRANCH   1  36
HETATM   36  C   UNL     1      41.366 -10.398   5.960  1.00  0.00     0.056 C 
HETATM   37  C   UNL     1      41.724 -11.005   7.316  1.00  0.00     0.011 C 
ENDBRANCH   1  36
TORSDOF 9
ENDMDL
MODEL 7
REMARK VINA RESULT:      -6.9      2.578      7.509
REMARK  9 active torsions:
REMARK  status: ('A' for Active; 'I' for Inactive)
REMARK    1  A    between atoms: C_2  and  C_3 
REMARK    2  A    between atoms: C_7  and  C_8 
REMARK    3  A    between atoms: C_8  and  C_9 
REMARK       I    between atoms: C_9  and  N_10 
REMARK    4  A    between atoms: N_10  and  C_11 
REMARK    5  A    between atoms: C_11  and  C_12 
REMARK    6  A    between atoms: C_12  and  C_13 
REMARK    7  A    between atoms: C_21  and  C_22 
REMARK    8  A    between atoms: C_32  and  C_33 
REMARK    9  A    between atoms: C_33  and  O_34 
ROOT
HETATM    1  C   UNL     1      40.324 -11.666  -1.623  1.00  0.00     0.051 C 
HETATM    2  N   UNL     1      40.296 -12.924  -2.193  1.00  0.00    -0.228 NA
HETATM    3  C   UNL     1      40.594 -13.925  -1.439  1.00  0.00     0.170 C 
HETATM    4  N   UNL     1      40.638 -13.898   0.137  1.00  0.00    -0.318 N 
HETATM    5  C   UNL     1      40.743 -15.117   0.564  1.00  0.00     0.011 C 
HETATM    6  C   UNL     1      40.109 -12.620   0.659  1.00  0.00     0.166 C 
HETATM    7  S   UNL     1      40.880 -15.519  -2.075  1.00  0.00    -0.086 SA
HETATM    8  C   UNL     1      41.357 -16.087  -0.422  1.00  0.00     0.135 C 
HETATM    9  C   UNL     1      40.445 -11.502  -0.288  1.00  0.00     0.069 C 
ENDROOT
BRANCH   5  10
HETATM   10  C   UNL     1      40.015 -15.621   1.780  1.00  0.00     0.156 C 
BRANCH  10  11
HETATM   11  C   UNL     1      41.061 -15.963   2.827  1.00  0.00     0.222 C 
HETATM   12  N   UNL     1      40.603 -16.467   4.016  1.00  0.00    -0.361 N 
HETATM   13  H   UNL     1      39.658 -16.840   4.068  1.00  0.00     0.162 HD
HETATM   14  O   UNL     1      42.244 -15.698   2.616  1.00  0.00    -0.273 OA
BRANCH  12  15
HETATM   15  C   UNL     1      41.523 -16.810   5.095  1.00  0.00     0.124 C 
BRANCH  15  16
HETATM   16  C   UNL     1      42.092 -18.228   4.937  1.00  0.00     0.053 C 
BRANCH  16  17
HETATM   17  C   UNL     1      43.535 -18.239   4.406  1.00  0.00     0.189 C 
HETATM   18  N   UNL     1      43.636 -19.277   3.275  1.00  0.00    -0.071 N 
HETATM   19  H   UNL     1      42.719 -19.725   3.144  1.00  0.00     0.279 HD
HETATM   20  C   UNL     1      44.021 -18.696   1.944  1.00  0.00     0.270 C 
HETATM   21  C   UNL     1      44.590 -20.372   3.726  1.00  0.00     0.235 C 
HETATM   22  C   UNL     1      44.634 -20.215   5.230  1.00  0.00     0.030 C 
HETATM   23  C   UNL     1      44.582 -18.711   5.414  1.00  0.00     0.035 C 
ENDBRANCH  16  17
ENDBRANCH  15  16
ENDBRANCH  12  15
ENDBRANCH  10  11
ENDBRANCH   5  10
BRANCH   6  24
HETATM   24  C   UNL     1      40.389 -12.313   2.130  1.00  0.00    -0.024 A 
HETATM   25  C   UNL     1      39.391 -11.711   2.940  1.00  0.00    -0.053 A 
HETATM   26  C   UNL     1      38.007 -11.390   2.435  1.00  0.00     0.049 C 
HETATM   27  C   UNL     1      39.689 -11.375   4.271  1.00  0.00     0.014 A 
HETATM   28  C   UNL     1      40.955 -11.605   4.818  1.00  0.00    -0.061 A 
HETATM   29  C   UNL     1      41.275 -11.153   6.214  1.00  0.00     0.048 C 
HETATM   30  C   UNL     1      41.942 -12.172   4.014  1.00  0.00     0.007 A 
HETATM   31  C   UNL     1      41.666 -12.523   2.691  1.00  0.00     0.011 A 
ENDBRANCH   6  24
BRANCH   9  32
HETATM   32  C   UNL     1      41.554 -10.596   0.075  1.00  0.00     0.293 C 
HETATM   33  O   UNL     1      41.304  -9.550   0.660  1.00  0.00    -0.259 OA
BRANCH  32  34
HETATM   34  O   UNL     1      42.762 -11.101  -0.226  1.00  0.00    -0.323 OA
HETATM   35  C   UNL     1      43.615 -10.153  -0.877  1.00  0.00     0.213 C 
ENDBRANCH  32  34
ENDBRANCH   9  32
BRANCH   1  36
HETATM   36  C   UNL     1      40.370 -10.526  -2.630  1.00  0.00     0.056 C 
HETATM   37  C   UNL     1      41.370 -10.815  -3.749  1.00  0.00     0.011 C 
ENDBRANCH   1  36
TORSDOF 9
ENDMDL
MODEL 8
REMARK VINA RESULT:      -6.9      2.973      6.202
REMARK  9 active torsions:
REMARK  status: ('A' for Active; 'I' for Inactive)
REMARK    1  A    between atoms: C_2  and  C_3 
REMARK    2  A    between atoms: C_7  and  C_8 
REMARK    3  A    between atoms: C_8  and  C_9 
REMARK       I    between atoms: C_9  and  N_10 
REMARK    4  A    between atoms: N_10  and  C_11 
REMARK    5  A    between atoms: C_11  and  C_12 
REMARK    6  A    between atoms: C_12  and  C_13 
REMARK    7  A    between atoms: C_21  and  C_22 
REMARK    8  A    between atoms: C_32  and  C_33 
REMARK    9  A    between atoms: C_33  and  O_34 
ROOT
HETATM    1  C   UNL     1      38.027 -10.859   2.328  1.00  0.00     0.051 C 
HETATM    2  N   UNL     1      37.556 -11.510   1.206  1.00  0.00    -0.228 NA
HETATM    3  C   UNL     1      38.261 -12.486   0.745  1.00  0.00     0.170 C 
HETATM    4  N   UNL     1      39.406 -13.233   1.529  1.00  0.00    -0.318 N 
HETATM    5  C   UNL     1      39.734 -14.294   0.861  1.00  0.00     0.011 C 
HETATM    6  C   UNL     1      39.450 -12.799   2.942  1.00  0.00     0.166 C 
HETATM    7  S   UNL     1      37.952 -13.206  -0.808  1.00  0.00    -0.086 SA
HETATM    8  C   UNL     1      39.435 -14.231  -0.621  1.00  0.00     0.135 C 
HETATM    9  C   UNL     1      39.062 -11.350   3.043  1.00  0.00     0.069 C 
ENDROOT
BRANCH   5  10
HETATM   10  C   UNL     1      40.060 -15.606   1.520  1.00  0.00     0.156 C 
BRANCH  10  11
HETATM   11  C   UNL     1      41.501 -15.941   1.180  1.00  0.00     0.222 C 
HETATM   12  N   UNL     1      42.310 -16.315   2.221  1.00  0.00    -0.361 N 
HETATM   13  H   UNL     1      41.888 -16.612   3.098  1.00  0.00     0.162 HD
HETATM   14  O   UNL     1      41.909 -15.783   0.030  1.00  0.00    -0.273 OA
BRANCH  12  15
HETATM   15  C   UNL     1      43.716 -16.641   2.006  1.00  0.00     0.124 C 
BRANCH  15  16
HETATM   16  C   UNL     1      43.905 -18.086   1.520  1.00  0.00     0.053 C 
BRANCH  16  17
HETATM   17  C   UNL     1      43.269 -19.122   2.462  1.00  0.00     0.189 C 
HETATM   18  N   UNL     1      44.082 -19.165   3.768  1.00  0.00    -0.071 N 
HETATM   19  H   UNL     1      44.862 -18.498   3.703  1.00  0.00     0.279 HD
HETATM   20  C   UNL     1      43.296 -18.784   4.990  1.00  0.00     0.270 C 
HETATM   21  C   UNL     1      44.705 -20.547   3.888  1.00  0.00     0.235 C 
HETATM   22  C   UNL     1      44.656 -21.088   2.476  1.00  0.00     0.030 C 
HETATM   23  C   UNL     1      43.332 -20.563   1.958  1.00  0.00     0.035 C 
ENDBRANCH  16  17
ENDBRANCH  15  16
ENDBRANCH  12  15
ENDBRANCH  10  11
ENDBRANCH   5  10
BRANCH   6  24
HETATM   24  C   UNL     1      40.698 -13.181   3.737  1.00  0.00    -0.024 A 
HETATM   25  C   UNL     1      40.598 -13.518   5.112  1.00  0.00    -0.053 A 
HETATM   26  C   UNL     1      39.284 -13.575   5.850  1.00  0.00     0.049 C 
HETATM   27  C   UNL     1      41.765 -13.800   5.842  1.00  0.00     0.014 A 
HETATM   28  C   UNL     1      43.030 -13.742   5.251  1.00  0.00    -0.061 A 
HETATM   29  C   UNL     1      44.266 -13.958   6.077  1.00  0.00     0.048 C 
HETATM   30  C   UNL     1      43.130 -13.384   3.908  1.00  0.00     0.007 A 
HETATM   31  C   UNL     1      41.983 -13.109   3.160  1.00  0.00     0.011 A 
ENDBRANCH   6  24
BRANCH   9  32
HETATM   32  C   UNL     1      40.137 -10.357   3.244  1.00  0.00     0.293 C 
HETATM   33  O   UNL     1      40.842 -10.039   2.296  1.00  0.00    -0.259 OA
BRANCH  32  34
HETATM   34  O   UNL     1      40.150  -9.845   4.486  1.00  0.00    -0.323 OA
HETATM   35  C   UNL     1      41.467  -9.776   5.046  1.00  0.00     0.213 C 
ENDBRANCH  32  34
ENDBRANCH   9  32
BRANCH   1  36
HETATM   36  C   UNL     1      37.393  -9.497   2.571  1.00  0.00     0.056 C 
HETATM   37  C   UNL     1      35.892  -9.526   2.281  1.00  0.00     0.011 C 
ENDBRANCH   1  36
TORSDOF 9
ENDMDL
MODEL 9
REMARK VINA RESULT:      -6.6      3.086      5.504
REMARK  9 active torsions:
REMARK  status: ('A' for Active; 'I' for Inactive)
REMARK    1  A    between atoms: C_2  and  C_3 
REMARK    2  A    between atoms: C_7  and  C_8 
REMARK    3  A    between atoms: C_8  and  C_9 
REMARK       I    between atoms: C_9  and  N_10 
REMARK    4  A    between atoms: N_10  and  C_11 
REMARK    5  A    between atoms: C_11  and  C_12 
REMARK    6  A    between atoms: C_12  and  C_13 
REMARK    7  A    between atoms: C_21  and  C_22 
REMARK    8  A    between atoms: C_32  and  C_33 
REMARK    9  A    between atoms: C_33  and  O_34 
ROOT
HETATM    1  C   UNL     1      44.003 -18.157   5.027  1.00  0.00     0.051 C 
HETATM    2  N   UNL     1      43.940 -18.696   3.757  1.00  0.00    -0.228 NA
HETATM    3  C   UNL     1      43.064 -18.209   2.947  1.00  0.00     0.170 C 
HETATM    4  N   UNL     1      42.309 -16.838   3.138  1.00  0.00    -0.318 N 
HETATM    5  C   UNL     1      41.686 -16.558   2.036  1.00  0.00     0.011 C 
HETATM    6  C   UNL     1      42.869 -16.079   4.276  1.00  0.00     0.166 C 
HETATM    7  S   UNL     1      42.673 -18.968   1.431  1.00  0.00    -0.086 SA
HETATM    8  C   UNL     1      41.353 -17.754   1.171  1.00  0.00     0.135 C 
HETATM    9  C   UNL     1      43.332 -17.030   5.346  1.00  0.00     0.069 C 
ENDROOT
BRANCH   5  10
HETATM   10  C   UNL     1      41.600 -15.164   1.479  1.00  0.00     0.156 C 
BRANCH  10  11
HETATM   11  C   UNL     1      40.152 -14.915   1.097  1.00  0.00     0.222 C 
HETATM   12  N   UNL     1      39.929 -14.102   0.017  1.00  0.00    -0.361 N 
HETATM   13  H   UNL     1      40.690 -13.918  -0.634  1.00  0.00     0.162 HD
HETATM   14  O   UNL     1      39.249 -15.364   1.802  1.00  0.00    -0.273 OA
BRANCH  12  15
HETATM   15  C   UNL     1      38.575 -13.783  -0.423  1.00  0.00     0.124 C 
BRANCH  15  16
HETATM   16  C   UNL     1      38.232 -12.302  -0.205  1.00  0.00     0.053 C 
BRANCH  16  17
HETATM   17  C   UNL     1      37.446 -12.054   1.093  1.00  0.00     0.189 C 
HETATM   18  N   UNL     1      36.809 -10.654   1.024  1.00  0.00    -0.071 N 
HETATM   19  H   UNL     1      37.063 -10.211   0.131  1.00  0.00     0.279 HD
HETATM   20  C   UNL     1      35.308 -10.663   1.084  1.00  0.00     0.270 C 
HETATM   21  C   UNL     1      37.427  -9.801   2.120  1.00  0.00     0.235 C 
HETATM   22  C   UNL     1      38.706 -10.531   2.466  1.00  0.00     0.030 C 
HETATM   23  C   UNL     1      38.305 -11.989   2.355  1.00  0.00     0.035 C 
ENDBRANCH  16  17
ENDBRANCH  15  16
ENDBRANCH  12  15
ENDBRANCH  10  11
ENDBRANCH   5  10
BRANCH   6  24
HETATM   24  C   UNL     1      42.042 -14.900   4.787  1.00  0.00    -0.024 A 
HETATM   25  C   UNL     1      42.682 -13.756   5.330  1.00  0.00    -0.053 A 
HETATM   26  C   UNL     1      44.181 -13.605   5.390  1.00  0.00     0.049 C 
HETATM   27  C   UNL     1      41.903 -12.712   5.856  1.00  0.00     0.014 A 
HETATM   28  C   UNL     1      40.507 -12.777   5.872  1.00  0.00    -0.061 A 
HETATM   29  C   UNL     1      39.702 -11.688   6.524  1.00  0.00     0.048 C 
HETATM   30  C   UNL     1      39.880 -13.912   5.364  1.00  0.00     0.007 A 
HETATM   31  C   UNL     1      40.633 -14.959   4.827  1.00  0.00     0.011 A 
ENDBRANCH   6  24
BRANCH   9  32
HETATM   32  C   UNL     1      42.481 -17.193   6.542  1.00  0.00     0.293 C 
HETATM   33  O   UNL     1      41.530 -17.961   6.500  1.00  0.00    -0.259 OA
BRANCH  32  34
HETATM   34  O   UNL     1      42.933 -16.502   7.603  1.00  0.00    -0.323 OA
HETATM   35  C   UNL     1      43.462 -17.346   8.632  1.00  0.00     0.213 C 
ENDBRANCH  32  34
ENDBRANCH   9  32
BRANCH   1  36
HETATM   36  C   UNL     1      44.743 -19.023   6.036  1.00  0.00     0.056 C 
HETATM   37  C   UNL     1      44.320 -20.487   5.925  1.00  0.00     0.011 C 
ENDBRANCH   1  36
TORSDOF 9
ENDMDL
MODEL 10
REMARK VINA RESULT:      -6.6      2.319      4.700
REMARK  9 active torsions:
REMARK  status: ('A' for Active; 'I' for Inactive)
REMARK    1  A    between atoms: C_2  and  C_3 
REMARK    2  A    between atoms: C_7  and  C_8 
REMARK    3  A    between atoms: C_8  and  C_9 
REMARK       I    between atoms: C_9  and  N_10 
REMARK    4  A    between atoms: N_10  and  C_11 
REMARK    5  A    between atoms: C_11  and  C_12 
REMARK    6  A    between atoms: C_12  and  C_13 
REMARK    7  A    between atoms: C_21  and  C_22 
REMARK    8  A    between atoms: C_32  and  C_33 
REMARK    9  A    between atoms: C_33  and  O_34 
ROOT
HETATM    1  C   UNL     1      44.158 -18.063   5.071  1.00  0.00     0.051 C 
HETATM    2  N   UNL     1      44.220 -18.575   3.790  1.00  0.00    -0.228 NA
HETATM    3  C   UNL     1      43.464 -18.035   2.896  1.00  0.00     0.170 C 
HETATM    4  N   UNL     1      42.750 -16.635   3.032  1.00  0.00    -0.318 N 
HETATM    5  C   UNL     1      42.271 -16.308   1.873  1.00  0.00     0.011 C 
HETATM    6  C   UNL     1      43.207 -15.923   4.244  1.00  0.00     0.166 C 
HETATM    7  S   UNL     1      43.219 -18.747   1.328  1.00  0.00    -0.086 SA
HETATM    8  C   UNL     1      41.990 -17.472   0.948  1.00  0.00     0.135 C 
HETATM    9  C   UNL     1      43.503 -16.913   5.337  1.00  0.00     0.069 C 
ENDROOT
BRANCH   5  10
HETATM   10  C   UNL     1      42.308 -14.901   1.343  1.00  0.00     0.156 C 
BRANCH  10  11
HETATM   11  C   UNL     1      41.274 -14.805   0.235  1.00  0.00     0.222 C 
HETATM   12  N   UNL     1      41.746 -14.807  -1.052  1.00  0.00    -0.361 N 
HETATM   13  H   UNL     1      42.692 -15.133  -1.235  1.00  0.00     0.162 HD
HETATM   14  O   UNL     1      40.088 -14.640   0.519  1.00  0.00    -0.273 OA
BRANCH  12  15
HETATM   15  C   UNL     1      40.838 -14.701  -2.189  1.00  0.00     0.124 C 
BRANCH  15  16
HETATM   16  C   UNL     1      41.404 -13.795  -3.294  1.00  0.00     0.053 C 
BRANCH  16  17
HETATM   17  C   UNL     1      41.062 -12.310  -3.085  1.00  0.00     0.189 C 
HETATM   18  N   UNL     1      40.151 -11.848  -4.236  1.00  0.00    -0.071 N 
HETATM   19  H   UNL     1      39.990 -12.635  -4.877  1.00  0.00     0.279 HD
HETATM   20  C   UNL     1      38.796 -11.376  -3.791  1.00  0.00     0.270 C 
HETATM   21  C   UNL     1      40.900 -10.790  -5.031  1.00  0.00     0.235 C 
HETATM   22  C   UNL     1      42.347 -11.007  -4.648  1.00  0.00     0.030 C 
HETATM   23  C   UNL     1      42.257 -11.363  -3.177  1.00  0.00     0.035 C 
ENDBRANCH  16  17
ENDBRANCH  15  16
ENDBRANCH  12  15
ENDBRANCH  10  11
ENDBRANCH   5  10
BRANCH   6  24
HETATM   24  C   UNL     1      42.377 -14.718   4.684  1.00  0.00    -0.024 A 
HETATM   25  C   UNL     1      42.937 -13.734   5.539  1.00  0.00    -0.053 A 
HETATM   26  C   UNL     1      44.367 -13.779   6.016  1.00  0.00     0.049 C 
HETATM   27  C   UNL     1      42.137 -12.670   5.988  1.00  0.00     0.014 A 
HETATM   28  C   UNL     1      40.792 -12.562   5.624  1.00  0.00    -0.061 A 
HETATM   29  C   UNL     1      39.936 -11.465   6.191  1.00  0.00     0.048 C 
HETATM   30  C   UNL     1      40.235 -13.543   4.807  1.00  0.00     0.007 A 
HETATM   31  C   UNL     1      41.014 -14.605   4.341  1.00  0.00     0.011 A 
ENDBRANCH   6  24
BRANCH   9  32
HETATM   32  C   UNL     1      42.514 -17.060   6.424  1.00  0.00     0.293 C 
HETATM   33  O   UNL     1      42.759 -16.583   7.524  1.00  0.00    -0.259 OA
BRANCH  32  34
HETATM   34  O   UNL     1      41.380 -17.658   6.022  1.00  0.00    -0.323 OA
HETATM   35  C   UNL     1      40.205 -17.051   6.572  1.00  0.00     0.213 C 
ENDBRANCH  32  34
ENDBRANCH   9  32
BRANCH   1  36
HETATM   36  C   UNL     1      44.741 -18.979   6.137  1.00  0.00     0.056 C 
HETATM   37  C   UNL     1      44.273 -20.421   5.944  1.00  0.00     0.011 C 
ENDBRANCH   1  36
TORSDOF 9
ENDMDL
