MODEL 1
REMARK VINA RESULT:      -9.2      0.000      0.000
REMARK  7 active torsions:
REMARK  status: ('A' for Active; 'I' for Inactive)
REMARK    1  A    between atoms: C_2  and  O_3 
REMARK    2  A    between atoms: O_3  and  C_4 
REMARK    3  A    between atoms: C_7  and  N_8 
REMARK       I    between atoms: N_8  and  C_9 
REMARK    4  A    between atoms: C_9  and  C_10 
REMARK    5  A    between atoms: C_10  and  S_11 
REMARK    6  A    between atoms: S_11  and  C_12 
REMARK    7  A    between atoms: N_13  and  C_14 
ROOT
HETATM    1  C   UNL     1      42.980 -13.873   6.110  1.00  0.00     0.178 A 
HETATM    2  N   UNL     1      42.211 -15.064   6.036  1.00  0.00    -0.255 N 
HETATM    3  C   UNL     1      40.816 -15.025   5.811  1.00  0.00     0.270 A 
HETATM    4  O   UNL     1      40.074 -15.995   5.696  1.00  0.00    -0.266 OA
HETATM    5  C   UNL     1      40.299 -13.689   5.749  1.00  0.00     0.099 A 
HETATM    6  C   UNL     1      41.153 -12.633   5.883  1.00  0.00     0.164 A 
HETATM    7  N   UNL     1      40.386 -11.511   5.774  1.00  0.00    -0.260 N 
HETATM    8  H   UNL     1      40.692 -10.545   5.808  1.00  0.00     0.191 HD
HETATM    9  N   UNL     1      39.073 -11.783   5.602  1.00  0.00    -0.184 NA
HETATM   10  C   UNL     1      39.029 -13.122   5.583  1.00  0.00     0.159 A 
HETATM   11  N   UNL     1      42.487 -12.665   6.064  1.00  0.00    -0.204 NA
ENDROOT
BRANCH   1  12
HETATM   12  S   UNL     1      44.731 -13.999   6.298  1.00  0.00    -0.082 SA
BRANCH  12  13
HETATM   13  C   UNL     1      44.942 -13.604   8.054  1.00  0.00     0.185 C 
BRANCH  13  14
HETATM   14  C   UNL     1      45.907 -12.449   8.217  1.00  0.00     0.231 C 
HETATM   15  N   UNL     1      45.583 -11.320   8.915  1.00  0.00    -0.327 N 
HETATM   16  H   UNL     1      46.267 -10.590   8.743  1.00  0.00     0.169 HD
HETATM   17  O   UNL     1      47.010 -12.472   7.655  1.00  0.00    -0.272 OA
BRANCH  15  18
HETATM   18  C   UNL     1      44.558 -10.992   9.821  1.00  0.00     0.034 A 
HETATM   19  C   UNL     1      44.710 -10.882  11.200  1.00  0.00     0.032 A 
HETATM   20  C   UNL     1      43.627 -10.517  12.010  1.00  0.00     0.039 A 
HETATM   21  C   UNL     1      42.380 -10.229  11.456  1.00  0.00     0.068 A 
HETATM   22  C   UNL     1      42.221 -10.321  10.078  1.00  0.00     0.039 A 
HETATM   23  C   UNL     1      43.305 -10.690   9.268  1.00  0.00     0.032 A 
BRANCH  21  24
HETATM   24  O   UNL     1      41.420  -9.875  12.360  1.00  0.00    -0.352 OA
BRANCH  24  25
HETATM   25  C   UNL     1      41.113 -10.821  13.383  1.00  0.00     0.171 C 
HETATM   26  C   UNL     1      40.186 -11.866  12.788  1.00  0.00     0.034 C 
ENDBRANCH  24  25
ENDBRANCH  21  24
ENDBRANCH  15  18
ENDBRANCH  13  14
ENDBRANCH  12  13
ENDBRANCH   1  12
BRANCH   2  27
HETATM   27  C   UNL     1      42.788 -16.369   6.173  1.00  0.00     0.056 A 
HETATM   28  C   UNL     1      43.225 -17.127   5.048  1.00  0.00     0.002 A 
HETATM   29  C   UNL     1      43.756 -18.423   5.277  1.00  0.00    -0.024 A 
HETATM   30  C   UNL     1      43.196 -16.664   3.708  1.00  0.00     0.014 A 
HETATM   31  C   UNL     1      44.170 -19.216   4.195  1.00  0.00     0.012 A 
HETATM   32  C   UNL     1      43.883 -18.907   6.588  1.00  0.00     0.012 A 
HETATM   33  C   UNL     1      44.088 -18.747   2.886  1.00  0.00     0.001 A 
HETATM   34  C   UNL     1      43.610 -17.466   2.642  1.00  0.00     0.001 A 
HETATM   35  C   UNL     1      43.500 -18.134   7.680  1.00  0.00     0.003 A 
HETATM   36  C   UNL     1      42.955 -16.872   7.475  1.00  0.00     0.031 A 
ENDBRANCH   2  27
TORSDOF 7
ENDMDL
MODEL 2
REMARK VINA RESULT:      -8.9      4.336      7.746
REMARK  7 active torsions:
REMARK  status: ('A' for Active; 'I' for Inactive)
REMARK    1  A    between atoms: C_2  and  O_3 
REMARK    2  A    between atoms: O_3  and  C_4 
REMARK    3  A    between atoms: C_7  and  N_8 
REMARK       I    between atoms: N_8  and  C_9 
REMARK    4  A    between atoms: C_9  and  C_10 
REMARK    5  A    between atoms: C_10  and  S_11 
REMARK    6  A    between atoms: S_11  and  C_12 
REMARK    7  A    between atoms: N_13  and  C_14 
ROOT
HETATM    1  C   UNL     1      42.407 -15.305   2.276  1.00  0.00     0.178 A 
HETATM    2  N   UNL     1      41.352 -15.940   1.569  1.00  0.00    -0.255 N 
HETATM    3  C   UNL     1      41.323 -17.342   1.396  1.00  0.00     0.270 A 
HETATM    4  O   UNL     1      40.441 -17.985   0.836  1.00  0.00    -0.266 OA
HETATM    5  C   UNL     1      42.482 -17.994   1.935  1.00  0.00     0.099 A 
HETATM    6  C   UNL     1      43.445 -17.248   2.550  1.00  0.00     0.164 A 
HETATM    7  N   UNL     1      44.401 -18.129   2.959  1.00  0.00    -0.260 N 
HETATM    8  H   UNL     1      45.255 -17.927   3.467  1.00  0.00     0.191 HD
HETATM    9  N   UNL     1      44.123 -19.408   2.618  1.00  0.00    -0.184 NA
HETATM   10  C   UNL     1      42.940 -19.316   1.994  1.00  0.00     0.159 A 
HETATM   11  N   UNL     1      43.460 -15.916   2.747  1.00  0.00    -0.204 NA
ENDROOT
BRANCH   1  12
HETATM   12  S   UNL     1      42.330 -13.561   2.536  1.00  0.00    -0.082 SA
BRANCH  12  13
HETATM   13  C   UNL     1      43.158 -13.392   4.140  1.00  0.00     0.185 C 
BRANCH  13  14
HETATM   14  C   UNL     1      42.144 -13.467   5.261  1.00  0.00     0.231 C 
HETATM   15  N   UNL     1      41.923 -14.615   5.969  1.00  0.00    -0.327 N 
HETATM   16  H   UNL     1      41.081 -14.527   6.529  1.00  0.00     0.169 HD
HETATM   17  O   UNL     1      41.430 -12.491   5.525  1.00  0.00    -0.272 OA
BRANCH  15  18
HETATM   18  C   UNL     1      42.622 -15.828   6.107  1.00  0.00     0.034 A 
HETATM   19  C   UNL     1      43.955 -15.948   6.491  1.00  0.00     0.032 A 
HETATM   20  C   UNL     1      44.545 -17.211   6.628  1.00  0.00     0.039 A 
HETATM   21  C   UNL     1      43.811 -18.375   6.412  1.00  0.00     0.068 A 
HETATM   22  C   UNL     1      42.474 -18.268   6.043  1.00  0.00     0.039 A 
HETATM   23  C   UNL     1      41.885 -17.003   5.902  1.00  0.00     0.032 A 
BRANCH  21  24
HETATM   24  O   UNL     1      44.509 -19.535   6.595  1.00  0.00    -0.352 OA
BRANCH  24  25
HETATM   25  C   UNL     1      43.830 -20.753   6.295  1.00  0.00     0.171 C 
HETATM   26  C   UNL     1      44.736 -21.585   5.404  1.00  0.00     0.034 C 
ENDBRANCH  24  25
ENDBRANCH  21  24
ENDBRANCH  15  18
ENDBRANCH  13  14
ENDBRANCH  12  13
ENDBRANCH   1  12
BRANCH   2  27
HETATM   27  C   UNL     1      40.255 -15.215   0.999  1.00  0.00     0.056 A 
HETATM   28  C   UNL     1      40.291 -14.707  -0.332  1.00  0.00     0.002 A 
HETATM   29  C   UNL     1      39.169 -13.975  -0.801  1.00  0.00    -0.024 A 
HETATM   30  C   UNL     1      41.362 -14.907  -1.239  1.00  0.00     0.014 A 
HETATM   31  C   UNL     1      39.175 -13.430  -2.095  1.00  0.00     0.012 A 
HETATM   32  C   UNL     1      38.046 -13.810   0.022  1.00  0.00     0.012 A 
HETATM   33  C   UNL     1      40.263 -13.610  -2.947  1.00  0.00     0.001 A 
HETATM   34  C   UNL     1      41.354 -14.357  -2.522  1.00  0.00     0.001 A 
HETATM   35  C   UNL     1      38.004 -14.357   1.301  1.00  0.00     0.003 A 
HETATM   36  C   UNL     1      39.103 -15.055   1.788  1.00  0.00     0.031 A 
ENDBRANCH   2  27
TORSDOF 7
ENDMDL
MODEL 3
REMARK VINA RESULT:      -8.7      6.521     10.208
REMARK  7 active torsions:
REMARK  status: ('A' for Active; 'I' for Inactive)
REMARK    1  A    between atoms: C_2  and  O_3 
REMARK    2  A    between atoms: O_3  and  C_4 
REMARK    3  A    between atoms: C_7  and  N_8 
REMARK       I    between atoms: N_8  and  C_9 
REMARK    4  A    between atoms: C_9  and  C_10 
REMARK    5  A    between atoms: C_10  and  S_11 
REMARK    6  A    between atoms: S_11  and  C_12 
REMARK    7  A    between atoms: N_13  and  C_14 
ROOT
HETATM    1  C   UNL     1      40.417 -13.112  -0.302  1.00  0.00     0.178 A 
HETATM    2  N   UNL     1      40.673 -13.295  -1.686  1.00  0.00    -0.255 N 
HETATM    3  C   UNL     1      41.682 -12.561  -2.350  1.00  0.00     0.270 A 
HETATM    4  O   UNL     1      42.002 -12.672  -3.529  1.00  0.00    -0.266 OA
HETATM    5  C   UNL     1      42.325 -11.602  -1.499  1.00  0.00     0.099 A 
HETATM    6  C   UNL     1      41.943 -11.503  -0.192  1.00  0.00     0.164 A 
HETATM    7  N   UNL     1      42.723 -10.529   0.356  1.00  0.00    -0.260 N 
HETATM    8  H   UNL     1      42.725 -10.203   1.315  1.00  0.00     0.191 HD
HETATM    9  N   UNL     1      43.576  -9.971  -0.533  1.00  0.00    -0.184 NA
HETATM   10  C   UNL     1      43.328 -10.639  -1.668  1.00  0.00     0.159 A 
HETATM   11  N   UNL     1      41.006 -12.223   0.453  1.00  0.00    -0.204 NA
ENDROOT
BRANCH   1  12
HETATM   12  S   UNL     1      39.209 -14.130   0.484  1.00  0.00    -0.082 SA
BRANCH  12  13
HETATM   13  C   UNL     1      40.242 -15.420   1.228  1.00  0.00     0.185 C 
BRANCH  13  14
HETATM   14  C   UNL     1      40.518 -15.094   2.680  1.00  0.00     0.231 C 
HETATM   15  N   UNL     1      41.292 -15.894   3.473  1.00  0.00    -0.327 N 
HETATM   16  H   UNL     1      41.195 -15.625   4.447  1.00  0.00     0.169 HD
HETATM   17  O   UNL     1      39.985 -14.112   3.213  1.00  0.00    -0.272 OA
BRANCH  15  18
HETATM   18  C   UNL     1      42.194 -16.943   3.218  1.00  0.00     0.034 A 
HETATM   19  C   UNL     1      42.955 -17.085   2.062  1.00  0.00     0.032 A 
HETATM   20  C   UNL     1      43.849 -18.156   1.924  1.00  0.00     0.039 A 
HETATM   21  C   UNL     1      44.019 -19.087   2.947  1.00  0.00     0.068 A 
HETATM   22  C   UNL     1      43.274 -18.946   4.114  1.00  0.00     0.039 A 
HETATM   23  C   UNL     1      42.377 -17.876   4.249  1.00  0.00     0.032 A 
BRANCH  21  24
HETATM   24  O   UNL     1      44.931 -20.068   2.683  1.00  0.00    -0.352 OA
BRANCH  24  25
HETATM   25  C   UNL     1      44.497 -21.417   2.849  1.00  0.00     0.171 C 
HETATM   26  C   UNL     1      43.978 -21.908   1.509  1.00  0.00     0.034 C 
ENDBRANCH  24  25
ENDBRANCH  21  24
ENDBRANCH  15  18
ENDBRANCH  13  14
ENDBRANCH  12  13
ENDBRANCH   1  12
BRANCH   2  27
HETATM   27  C   UNL     1      39.944 -14.229  -2.492  1.00  0.00     0.056 A 
HETATM   28  C   UNL     1      38.698 -13.897  -3.100  1.00  0.00     0.002 A 
HETATM   29  C   UNL     1      38.033 -14.896  -3.857  1.00  0.00    -0.024 A 
HETATM   30  C   UNL     1      38.086 -12.619  -3.028  1.00  0.00     0.014 A 
HETATM   31  C   UNL     1      36.789 -14.621  -4.447  1.00  0.00     0.012 A 
HETATM   32  C   UNL     1      38.626 -16.155  -4.029  1.00  0.00     0.012 A 
HETATM   33  C   UNL     1      36.194 -13.367  -4.322  1.00  0.00     0.001 A 
HETATM   34  C   UNL     1      36.848 -12.362  -3.620  1.00  0.00     0.001 A 
HETATM   35  C   UNL     1      39.868 -16.449  -3.472  1.00  0.00     0.003 A 
HETATM   36  C   UNL     1      40.523 -15.491  -2.708  1.00  0.00     0.031 A 
ENDBRANCH   2  27
TORSDOF 7
ENDMDL
MODEL 4
REMARK VINA RESULT:      -8.7      3.694      6.068
REMARK  7 active torsions:
REMARK  status: ('A' for Active; 'I' for Inactive)
REMARK    1  A    between atoms: C_2  and  O_3 
REMARK    2  A    between atoms: O_3  and  C_4 
REMARK    3  A    between atoms: C_7  and  N_8 
REMARK       I    between atoms: N_8  and  C_9 
REMARK    4  A    between atoms: C_9  and  C_10 
REMARK    5  A    between atoms: C_10  and  S_11 
REMARK    6  A    between atoms: S_11  and  C_12 
REMARK    7  A    between atoms: N_13  and  C_14 
ROOT
HETATM    1  C   UNL     1      42.495 -13.523   2.898  1.00  0.00     0.178 A 
HETATM    2  N   UNL     1      41.616 -14.580   2.544  1.00  0.00    -0.255 N 
HETATM    3  C   UNL     1      40.655 -14.425   1.519  1.00  0.00     0.270 A 
HETATM    4  O   UNL     1      39.879 -15.286   1.118  1.00  0.00    -0.266 OA
HETATM    5  C   UNL     1      40.637 -13.101   0.968  1.00  0.00     0.099 A 
HETATM    6  C   UNL     1      41.514 -12.167   1.440  1.00  0.00     0.164 A 
HETATM    7  N   UNL     1      41.269 -11.028   0.732  1.00  0.00    -0.260 N 
HETATM    8  H   UNL     1      41.746 -10.137   0.806  1.00  0.00     0.191 HD
HETATM    9  N   UNL     1      40.260 -11.165  -0.158  1.00  0.00    -0.184 NA
HETATM   10  C   UNL     1      39.881 -12.442  -0.010  1.00  0.00     0.159 A 
HETATM   11  N   UNL     1      42.453 -12.320   2.392  1.00  0.00    -0.204 NA
ENDROOT
BRANCH   1  12
HETATM   12  S   UNL     1      43.734 -13.818   4.120  1.00  0.00    -0.082 SA
BRANCH  12  13
HETATM   13  C   UNL     1      42.761 -13.768   5.649  1.00  0.00     0.185 C 
BRANCH  13  14
HETATM   14  C   UNL     1      43.679 -13.686   6.849  1.00  0.00     0.231 C 
HETATM   15  N   UNL     1      44.122 -14.799   7.507  1.00  0.00    -0.327 N 
HETATM   16  H   UNL     1      44.551 -14.540   8.389  1.00  0.00     0.169 HD
HETATM   17  O   UNL     1      44.004 -12.585   7.314  1.00  0.00    -0.272 OA
BRANCH  15  18
HETATM   18  C   UNL     1      44.142 -16.172   7.200  1.00  0.00     0.034 A 
HETATM   19  C   UNL     1      44.954 -16.769   6.240  1.00  0.00     0.032 A 
HETATM   20  C   UNL     1      44.916 -18.154   6.037  1.00  0.00     0.039 A 
HETATM   21  C   UNL     1      44.089 -18.971   6.806  1.00  0.00     0.068 A 
HETATM   22  C   UNL     1      43.285 -18.387   7.780  1.00  0.00     0.039 A 
HETATM   23  C   UNL     1      43.321 -17.000   7.979  1.00  0.00     0.032 A 
BRANCH  21  24
HETATM   24  O   UNL     1      44.164 -20.302   6.510  1.00  0.00    -0.352 OA
BRANCH  24  25
HETATM   25  C   UNL     1      44.815 -20.659   5.292  1.00  0.00     0.171 C 
HETATM   26  C   UNL     1      44.722 -22.167   5.138  1.00  0.00     0.034 C 
ENDBRANCH  24  25
ENDBRANCH  21  24
ENDBRANCH  15  18
ENDBRANCH  13  14
ENDBRANCH  12  13
ENDBRANCH   1  12
BRANCH   2  27
HETATM   27  C   UNL     1      41.647 -15.862   3.185  1.00  0.00     0.056 A 
HETATM   28  C   UNL     1      42.460 -16.931   2.705  1.00  0.00     0.002 A 
HETATM   29  C   UNL     1      42.404 -18.174   3.386  1.00  0.00    -0.024 A 
HETATM   30  C   UNL     1      43.350 -16.830   1.606  1.00  0.00     0.014 A 
HETATM   31  C   UNL     1      43.163 -19.263   2.929  1.00  0.00     0.012 A 
HETATM   32  C   UNL     1      41.600 -18.313   4.527  1.00  0.00     0.012 A 
HETATM   33  C   UNL     1      43.997 -19.143   1.819  1.00  0.00     0.001 A 
HETATM   34  C   UNL     1      44.099 -17.923   1.163  1.00  0.00     0.001 A 
HETATM   35  C   UNL     1      40.852 -17.245   5.015  1.00  0.00     0.003 A 
HETATM   36  C   UNL     1      40.875 -16.026   4.347  1.00  0.00     0.031 A 
ENDBRANCH   2  27
TORSDOF 7
ENDMDL
MODEL 5
REMARK VINA RESULT:      -8.5      3.985      7.528
REMARK  7 active torsions:
REMARK  status: ('A' for Active; 'I' for Inactive)
REMARK    1  A    between atoms: C_2  and  O_3 
REMARK    2  A    between atoms: O_3  and  C_4 
REMARK    3  A    between atoms: C_7  and  N_8 
REMARK       I    between atoms: N_8  and  C_9 
REMARK    4  A    between atoms: C_9  and  C_10 
REMARK    5  A    between atoms: C_10  and  S_11 
REMARK    6  A    between atoms: S_11  and  C_12 
REMARK    7  A    between atoms: N_13  and  C_14 
ROOT
HETATM    1  C   UNL     1      41.379 -13.384   3.121  1.00  0.00     0.178 A 
HETATM    2  N   UNL     1      41.438 -13.247   4.533  1.00  0.00    -0.255 N 
HETATM    3  C   UNL     1      40.518 -12.433   5.232  1.00  0.00     0.270 A 
HETATM    4  O   UNL     1      40.466 -12.279   6.448  1.00  0.00    -0.266 OA
HETATM    5  C   UNL     1      39.614 -11.740   4.361  1.00  0.00     0.099 A 
HETATM    6  C   UNL     1      39.702 -11.933   3.012  1.00  0.00     0.164 A 
HETATM    7  N   UNL     1      38.726 -11.161   2.456  1.00  0.00    -0.260 N 
HETATM    8  H   UNL     1      38.490 -11.072   1.475  1.00  0.00     0.191 HD
HETATM    9  N   UNL     1      38.024 -10.456   3.371  1.00  0.00    -0.184 NA
HETATM   10  C   UNL     1      38.572 -10.821   4.538  1.00  0.00     0.159 A 
HETATM   11  N   UNL     1      40.555 -12.733   2.345  1.00  0.00    -0.204 NA
ENDROOT
BRANCH   1  12
HETATM   12  S   UNL     1      42.498 -14.491   2.324  1.00  0.00    -0.082 SA
BRANCH  12  13
HETATM   13  C   UNL     1      41.437 -15.928   2.016  1.00  0.00     0.185 C 
BRANCH  13  14
HETATM   14  C   UNL     1      41.947 -16.707   0.823  1.00  0.00     0.231 C 
HETATM   15  N   UNL     1      42.923 -17.657   0.935  1.00  0.00    -0.327 N 
HETATM   16  H   UNL     1      43.269 -17.918   0.017  1.00  0.00     0.169 HD
HETATM   17  O   UNL     1      41.532 -16.452  -0.315  1.00  0.00    -0.272 OA
BRANCH  15  18
HETATM   18  C   UNL     1      43.493 -18.349   2.019  1.00  0.00     0.034 A 
HETATM   19  C   UNL     1      43.811 -17.788   3.252  1.00  0.00     0.032 A 
HETATM   20  C   UNL     1      44.348 -18.578   4.277  1.00  0.00     0.039 A 
HETATM   21  C   UNL     1      44.552 -19.946   4.099  1.00  0.00     0.068 A 
HETATM   22  C   UNL     1      44.223 -20.520   2.876  1.00  0.00     0.039 A 
HETATM   23  C   UNL     1      43.690 -19.727   1.849  1.00  0.00     0.032 A 
BRANCH  21  24
HETATM   24  O   UNL     1      45.068 -20.594   5.184  1.00  0.00    -0.352 OA
BRANCH  24  25
HETATM   25  C   UNL     1      44.272 -21.628   5.761  1.00  0.00     0.171 C 
HETATM   26  C   UNL     1      43.671 -21.091   7.048  1.00  0.00     0.034 C 
ENDBRANCH  24  25
ENDBRANCH  21  24
ENDBRANCH  15  18
ENDBRANCH  13  14
ENDBRANCH  12  13
ENDBRANCH   1  12
BRANCH   2  27
HETATM   27  C   UNL     1      42.414 -13.922   5.336  1.00  0.00     0.056 A 
HETATM   28  C   UNL     1      42.188 -15.223   5.873  1.00  0.00     0.002 A 
HETATM   29  C   UNL     1      43.199 -15.801   6.682  1.00  0.00    -0.024 A 
HETATM   30  C   UNL     1      41.027 -16.000   5.628  1.00  0.00     0.014 A 
HETATM   31  C   UNL     1      43.005 -17.067   7.257  1.00  0.00     0.012 A 
HETATM   32  C   UNL     1      44.403 -15.113   6.898  1.00  0.00     0.012 A 
HETATM   33  C   UNL     1      41.833 -17.788   7.030  1.00  0.00     0.001 A 
HETATM   34  C   UNL     1      40.848 -17.258   6.208  1.00  0.00     0.001 A 
HETATM   35  C   UNL     1      44.632 -13.866   6.324  1.00  0.00     0.003 A 
HETATM   36  C   UNL     1      43.643 -13.273   5.548  1.00  0.00     0.031 A 
ENDBRANCH   2  27
TORSDOF 7
ENDMDL
MODEL 6
REMARK VINA RESULT:      -8.3      4.384      7.048
REMARK  7 active torsions:
REMARK  status: ('A' for Active; 'I' for Inactive)
REMARK    1  A    between atoms: C_2  and  O_3 
REMARK    2  A    between atoms: O_3  and  C_4 
REMARK    3  A    between atoms: C_7  and  N_8 
REMARK       I    between atoms: N_8  and  C_9 
REMARK    4  A    between atoms: C_9  and  C_10 
REMARK    5  A    between atoms: C_10  and  S_11 
REMARK    6  A    between atoms: S_11  and  C_12 
REMARK    7  A    between atoms: N_13  and  C_14 
ROOT
HETATM    1  C   UNL     1      42.233 -12.992   0.940  1.00  0.00     0.178 A 
HETATM    2  N   UNL     1      41.681 -14.137   0.308  1.00  0.00    -0.255 N 
HETATM    3  C   UNL     1      41.549 -14.210  -1.097  1.00  0.00     0.270 A 
HETATM    4  O   UNL     1      41.120 -15.165  -1.736  1.00  0.00    -0.266 OA
HETATM    5  C   UNL     1      41.954 -13.003  -1.758  1.00  0.00     0.099 A 
HETATM    6  C   UNL     1      42.425 -11.958  -1.015  1.00  0.00     0.164 A 
HETATM    7  N   UNL     1      42.733 -10.972  -1.905  1.00  0.00    -0.260 N 
HETATM    8  H   UNL     1      43.124 -10.059  -1.707  1.00  0.00     0.191 HD
HETATM    9  N   UNL     1      42.462 -11.312  -3.185  1.00  0.00    -0.184 NA
HETATM   10  C   UNL     1      41.989 -12.562  -3.086  1.00  0.00     0.159 A 
HETATM   11  N   UNL     1      42.584 -11.897   0.320  1.00  0.00    -0.204 NA
ENDROOT
BRANCH   1  12
HETATM   12  S   UNL     1      42.457 -13.008   2.690  1.00  0.00    -0.082 SA
BRANCH  12  13
HETATM   13  C   UNL     1      40.781 -12.648   3.279  1.00  0.00     0.185 C 
BRANCH  13  14
HETATM   14  C   UNL     1      40.806 -12.314   4.755  1.00  0.00     0.231 C 
HETATM   15  N   UNL     1      41.022 -13.263   5.714  1.00  0.00    -0.327 N 
HETATM   16  H   UNL     1      40.804 -12.892   6.633  1.00  0.00     0.169 HD
HETATM   17  O   UNL     1      40.562 -11.163   5.140  1.00  0.00    -0.272 OA
BRANCH  15  18
HETATM   18  C   UNL     1      41.508 -14.583   5.691  1.00  0.00     0.034 A 
HETATM   19  C   UNL     1      42.836 -14.946   5.484  1.00  0.00     0.032 A 
HETATM   20  C   UNL     1      43.218 -16.294   5.512  1.00  0.00     0.039 A 
HETATM   21  C   UNL     1      42.289 -17.299   5.774  1.00  0.00     0.068 A 
HETATM   22  C   UNL     1      40.963 -16.946   5.997  1.00  0.00     0.039 A 
HETATM   23  C   UNL     1      40.580 -15.597   5.965  1.00  0.00     0.032 A 
BRANCH  21  24
HETATM   24  O   UNL     1      42.803 -18.565   5.784  1.00  0.00    -0.352 OA
BRANCH  24  25
HETATM   25  C   UNL     1      44.223 -18.688   5.729  1.00  0.00     0.171 C 
HETATM   26  C   UNL     1      44.551 -20.085   5.235  1.00  0.00     0.034 C 
ENDBRANCH  24  25
ENDBRANCH  21  24
ENDBRANCH  15  18
ENDBRANCH  13  14
ENDBRANCH  12  13
ENDBRANCH   1  12
BRANCH   2  27
HETATM   27  C   UNL     1      41.235 -15.286   1.040  1.00  0.00     0.056 A 
HETATM   28  C   UNL     1      42.110 -16.362   1.372  1.00  0.00     0.002 A 
HETATM   29  C   UNL     1      41.573 -17.472   2.072  1.00  0.00    -0.024 A 
HETATM   30  C   UNL     1      43.497 -16.387   1.077  1.00  0.00     0.014 A 
HETATM   31  C   UNL     1      42.392 -18.567   2.392  1.00  0.00     0.012 A 
HETATM   32  C   UNL     1      40.225 -17.471   2.460  1.00  0.00     0.012 A 
HETATM   33  C   UNL     1      43.743 -18.579   2.050  1.00  0.00     0.001 A 
HETATM   34  C   UNL     1      44.298 -17.484   1.401  1.00  0.00     0.001 A 
HETATM   35  C   UNL     1      39.395 -16.391   2.175  1.00  0.00     0.003 A 
HETATM   36  C   UNL     1      39.896 -15.304   1.468  1.00  0.00     0.031 A 
ENDBRANCH   2  27
TORSDOF 7
ENDMDL
MODEL 7
REMARK VINA RESULT:      -8.3      2.632      3.330
REMARK  7 active torsions:
REMARK  status: ('A' for Active; 'I' for Inactive)
REMARK    1  A    between atoms: C_2  and  O_3 
REMARK    2  A    between atoms: O_3  and  C_4 
REMARK    3  A    between atoms: C_7  and  N_8 
REMARK       I    between atoms: N_8  and  C_9 
REMARK    4  A    between atoms: C_9  and  C_10 
REMARK    5  A    between atoms: C_10  and  S_11 
REMARK    6  A    between atoms: S_11  and  C_12 
REMARK    7  A    between atoms: N_13  and  C_14 
ROOT
HETATM    1  C   UNL     1      40.930 -13.614   3.520  1.00  0.00     0.178 A 
HETATM    2  N   UNL     1      40.630 -14.977   3.262  1.00  0.00    -0.255 N 
HETATM    3  C   UNL     1      39.614 -15.347   2.351  1.00  0.00     0.270 A 
HETATM    4  O   UNL     1      39.306 -16.492   2.036  1.00  0.00    -0.266 OA
HETATM    5  C   UNL     1      38.912 -14.219   1.811  1.00  0.00     0.099 A 
HETATM    6  C   UNL     1      39.280 -12.959   2.186  1.00  0.00     0.164 A 
HETATM    7  N   UNL     1      38.452 -12.109   1.515  1.00  0.00    -0.260 N 
HETATM    8  H   UNL     1      38.452 -11.096   1.539  1.00  0.00     0.191 HD
HETATM    9  N   UNL     1      37.548 -12.752   0.743  1.00  0.00    -0.184 NA
HETATM   10  C   UNL     1      37.841 -14.047   0.927  1.00  0.00     0.159 A 
HETATM   11  N   UNL     1      40.269 -12.601   3.027  1.00  0.00    -0.204 NA
ENDROOT
BRANCH   1  12
HETATM   12  S   UNL     1      42.274 -13.225   4.596  1.00  0.00    -0.082 SA
BRANCH  12  13
HETATM   13  C   UNL     1      41.410 -12.502   6.016  1.00  0.00     0.185 C 
BRANCH  13  14
HETATM   14  C   UNL     1      41.581 -10.998   6.020  1.00  0.00     0.231 C 
HETATM   15  N   UNL     1      41.757 -10.287   7.174  1.00  0.00    -0.327 N 
HETATM   16  H   UNL     1      41.649  -9.293   6.996  1.00  0.00     0.169 HD
HETATM   17  O   UNL     1      41.497 -10.356   4.965  1.00  0.00    -0.272 OA
BRANCH  15  18
HETATM   18  C   UNL     1      42.088 -10.635   8.496  1.00  0.00     0.034 A 
HETATM   19  C   UNL     1      43.341 -11.062   8.925  1.00  0.00     0.032 A 
HETATM   20  C   UNL     1      43.570 -11.355  10.275  1.00  0.00     0.039 A 
HETATM   21  C   UNL     1      42.562 -11.200  11.226  1.00  0.00     0.068 A 
HETATM   22  C   UNL     1      41.310 -10.759  10.811  1.00  0.00     0.039 A 
HETATM   23  C   UNL     1      41.081 -10.471   9.458  1.00  0.00     0.032 A 
BRANCH  21  24
HETATM   24  O   UNL     1      42.929 -11.508  12.505  1.00  0.00    -0.352 OA
BRANCH  24  25
HETATM   25  C   UNL     1      42.422 -10.671  13.543  1.00  0.00     0.171 C 
HETATM   26  C   UNL     1      43.348  -9.475  13.671  1.00  0.00     0.034 C 
ENDBRANCH  24  25
ENDBRANCH  21  24
ENDBRANCH  15  18
ENDBRANCH  13  14
ENDBRANCH  12  13
ENDBRANCH   1  12
BRANCH   2  27
HETATM   27  C   UNL     1      41.332 -16.057   3.890  1.00  0.00     0.056 A 
HETATM   28  C   UNL     1      42.332 -16.811   3.208  1.00  0.00     0.002 A 
HETATM   29  C   UNL     1      42.953 -17.882   3.900  1.00  0.00    -0.024 A 
HETATM   30  C   UNL     1      42.775 -16.546   1.888  1.00  0.00     0.014 A 
HETATM   31  C   UNL     1      43.920 -18.671   3.257  1.00  0.00     0.012 A 
HETATM   32  C   UNL     1      42.613 -18.145   5.236  1.00  0.00     0.012 A 
HETATM   33  C   UNL     1      44.303 -18.409   1.942  1.00  0.00     0.001 A 
HETATM   34  C   UNL     1      43.737 -17.340   1.260  1.00  0.00     0.001 A 
HETATM   35  C   UNL     1      41.673 -17.367   5.906  1.00  0.00     0.003 A 
HETATM   36  C   UNL     1      41.035 -16.329   5.237  1.00  0.00     0.031 A 
ENDBRANCH   2  27
TORSDOF 7
ENDMDL
MODEL 8
REMARK VINA RESULT:      -8.3      4.619      7.972
REMARK  7 active torsions:
REMARK  status: ('A' for Active; 'I' for Inactive)
REMARK    1  A    between atoms: C_2  and  O_3 
REMARK    2  A    between atoms: O_3  and  C_4 
REMARK    3  A    between atoms: C_7  and  N_8 
REMARK       I    between atoms: N_8  and  C_9 
REMARK    4  A    between atoms: C_9  and  C_10 
REMARK    5  A    between atoms: C_10  and  S_11 
REMARK    6  A    between atoms: S_11  and  C_12 
REMARK    7  A    between atoms: N_13  and  C_14 
ROOT
HETATM    1  C   UNL     1      39.534 -12.970   2.966  1.00  0.00     0.178 A 
HETATM    2  N   UNL     1      40.517 -12.782   3.973  1.00  0.00    -0.255 N 
HETATM    3  C   UNL     1      40.431 -11.713   4.894  1.00  0.00     0.270 A 
HETATM    4  O   UNL     1      41.207 -11.488   5.817  1.00  0.00    -0.266 OA
HETATM    5  C   UNL     1      39.318 -10.845   4.638  1.00  0.00     0.099 A 
HETATM    6  C   UNL     1      38.476 -11.124   3.600  1.00  0.00     0.164 A 
HETATM    7  N   UNL     1      37.527 -10.145   3.611  1.00  0.00    -0.260 N 
HETATM    8  H   UNL     1      36.732 -10.045   2.991  1.00  0.00     0.191 HD
HETATM    9  N   UNL     1      37.724  -9.229   4.586  1.00  0.00    -0.184 NA
HETATM   10  C   UNL     1      38.823  -9.669   5.214  1.00  0.00     0.159 A 
HETATM   11  N   UNL     1      38.534 -12.159   2.742  1.00  0.00    -0.204 NA
ENDROOT
BRANCH   1  12
HETATM   12  S   UNL     1      39.652 -14.379   1.911  1.00  0.00    -0.082 SA
BRANCH  12  13
HETATM   13  C   UNL     1      40.924 -13.852   0.733  1.00  0.00     0.185 C 
BRANCH  13  14
HETATM   14  C   UNL     1      40.968 -14.800  -0.446  1.00  0.00     0.231 C 
HETATM   15  N   UNL     1      41.572 -16.024  -0.376  1.00  0.00    -0.327 N 
HETATM   16  H   UNL     1      41.677 -16.420  -1.305  1.00  0.00     0.169 HD
HETATM   17  O   UNL     1      40.508 -14.457  -1.543  1.00  0.00    -0.272 OA
BRANCH  15  18
HETATM   18  C   UNL     1      42.022 -16.833   0.684  1.00  0.00     0.034 A 
HETATM   19  C   UNL     1      41.214 -17.375   1.679  1.00  0.00     0.032 A 
HETATM   20  C   UNL     1      41.762 -18.195   2.673  1.00  0.00     0.039 A 
HETATM   21  C   UNL     1      43.119 -18.512   2.676  1.00  0.00     0.068 A 
HETATM   22  C   UNL     1      43.933 -17.989   1.678  1.00  0.00     0.039 A 
HETATM   23  C   UNL     1      43.384 -17.164   0.685  1.00  0.00     0.032 A 
BRANCH  21  24
HETATM   24  O   UNL     1      43.513 -19.332   3.695  1.00  0.00    -0.352 OA
BRANCH  24  25
HETATM   25  C   UNL     1      44.636 -20.177   3.449  1.00  0.00     0.171 C 
HETATM   26  C   UNL     1      45.133 -20.694   4.787  1.00  0.00     0.034 C 
ENDBRANCH  24  25
ENDBRANCH  21  24
ENDBRANCH  15  18
ENDBRANCH  13  14
ENDBRANCH  12  13
ENDBRANCH   1  12
BRANCH   2  27
HETATM   27  C   UNL     1      41.642 -13.655   4.129  1.00  0.00     0.056 A 
HETATM   28  C   UNL     1      41.590 -14.822   4.946  1.00  0.00     0.002 A 
HETATM   29  C   UNL     1      42.762 -15.611   5.066  1.00  0.00    -0.024 A 
HETATM   30  C   UNL     1      40.431 -15.272   5.629  1.00  0.00     0.014 A 
HETATM   31  C   UNL     1      42.764 -16.752   5.885  1.00  0.00     0.012 A 
HETATM   32  C   UNL     1      43.919 -15.261   4.353  1.00  0.00     0.012 A 
HETATM   33  C   UNL     1      41.619 -17.143   6.577  1.00  0.00     0.001 A 
HETATM   34  C   UNL     1      40.449 -16.408   6.441  1.00  0.00     0.001 A 
HETATM   35  C   UNL     1      43.939 -14.148   3.517  1.00  0.00     0.003 A 
HETATM   36  C   UNL     1      42.808 -13.348   3.406  1.00  0.00     0.031 A 
ENDBRANCH   2  27
TORSDOF 7
ENDMDL
MODEL 9
REMARK VINA RESULT:      -8.3      4.110      7.610
REMARK  7 active torsions:
REMARK  status: ('A' for Active; 'I' for Inactive)
REMARK    1  A    between atoms: C_2  and  O_3 
REMARK    2  A    between atoms: O_3  and  C_4 
REMARK    3  A    between atoms: C_7  and  N_8 
REMARK       I    between atoms: N_8  and  C_9 
REMARK    4  A    between atoms: C_9  and  C_10 
REMARK    5  A    between atoms: C_10  and  S_11 
REMARK    6  A    between atoms: S_11  and  C_12 
REMARK    7  A    between atoms: N_13  and  C_14 
ROOT
HETATM    1  C   UNL     1      39.848 -13.796   3.478  1.00  0.00     0.178 A 
HETATM    2  N   UNL     1      40.121 -13.767   4.871  1.00  0.00    -0.255 N 
HETATM    3  C   UNL     1      39.742 -12.665   5.672  1.00  0.00     0.270 A 
HETATM    4  O   UNL     1      39.901 -12.562   6.884  1.00  0.00    -0.266 OA
HETATM    5  C   UNL     1      39.147 -11.604   4.913  1.00  0.00     0.099 A 
HETATM    6  C   UNL     1      38.987 -11.751   3.565  1.00  0.00     0.164 A 
HETATM    7  N   UNL     1      38.398 -10.603   3.127  1.00  0.00    -0.260 N 
HETATM    8  H   UNL     1      38.116 -10.372   2.181  1.00  0.00     0.191 HD
HETATM    9  N   UNL     1      38.189  -9.705   4.116  1.00  0.00    -0.184 NA
HETATM   10  C   UNL     1      38.647 -10.330   5.210  1.00  0.00     0.159 A 
HETATM   11  N   UNL     1      39.316 -12.812   2.804  1.00  0.00    -0.204 NA
ENDROOT
BRANCH   1  12
HETATM   12  S   UNL     1      40.263 -15.244   2.558  1.00  0.00    -0.082 SA
BRANCH  12  13
HETATM   13  C   UNL     1      41.743 -14.699   1.664  1.00  0.00     0.185 C 
BRANCH  13  14
HETATM   14  C   UNL     1      41.980 -15.585   0.460  1.00  0.00     0.231 C 
HETATM   15  N   UNL     1      42.715 -16.734   0.533  1.00  0.00    -0.327 N 
HETATM   16  H   UNL     1      42.930 -17.076  -0.398  1.00  0.00     0.169 HD
HETATM   17  O   UNL     1      41.561 -15.250  -0.656  1.00  0.00    -0.272 OA
BRANCH  15  18
HETATM   18  C   UNL     1      43.179 -17.532   1.596  1.00  0.00     0.034 A 
HETATM   19  C   UNL     1      43.568 -17.057   2.845  1.00  0.00     0.032 A 
HETATM   20  C   UNL     1      43.986 -17.945   3.845  1.00  0.00     0.039 A 
HETATM   21  C   UNL     1      43.998 -19.321   3.626  1.00  0.00     0.068 A 
HETATM   22  C   UNL     1      43.597 -19.807   2.386  1.00  0.00     0.039 A 
HETATM   23  C   UNL     1      43.182 -18.918   1.384  1.00  0.00     0.032 A 
BRANCH  21  24
HETATM   24  O   UNL     1      44.415 -20.067   4.691  1.00  0.00    -0.352 OA
BRANCH  24  25
HETATM   25  C   UNL     1      45.141 -21.261   4.402  1.00  0.00     0.171 C 
HETATM   26  C   UNL     1      44.793 -22.288   5.464  1.00  0.00     0.034 C 
ENDBRANCH  24  25
ENDBRANCH  21  24
ENDBRANCH  15  18
ENDBRANCH  13  14
ENDBRANCH  12  13
ENDBRANCH   1  12
BRANCH   2  27
HETATM   27  C   UNL     1      40.781 -14.840   5.554  1.00  0.00     0.056 A 
HETATM   28  C   UNL     1      42.164 -14.786   5.897  1.00  0.00     0.002 A 
HETATM   29  C   UNL     1      42.739 -15.909   6.546  1.00  0.00    -0.024 A 
HETATM   30  C   UNL     1      43.005 -13.669   5.661  1.00  0.00     0.014 A 
HETATM   31  C   UNL     1      44.104 -15.910   6.873  1.00  0.00     0.012 A 
HETATM   32  C   UNL     1      41.940 -17.013   6.876  1.00  0.00     0.012 A 
HETATM   33  C   UNL     1      44.914 -14.811   6.589  1.00  0.00     0.001 A 
HETATM   34  C   UNL     1      44.362 -13.686   5.992  1.00  0.00     0.001 A 
HETATM   35  C   UNL     1      40.579 -17.031   6.581  1.00  0.00     0.003 A 
HETATM   36  C   UNL     1      40.003 -15.951   5.924  1.00  0.00     0.031 A 
ENDBRANCH   2  27
TORSDOF 7
ENDMDL
MODEL 10
REMARK VINA RESULT:      -8.2      4.588      8.933
REMARK  7 active torsions:
REMARK  status: ('A' for Active; 'I' for Inactive)
REMARK    1  A    between atoms: C_2  and  O_3 
REMARK    2  A    between atoms: O_3  and  C_4 
REMARK    3  A    between atoms: C_7  and  N_8 
REMARK       I    between atoms: N_8  and  C_9 
REMARK    4  A    between atoms: C_9  and  C_10 
REMARK    5  A    between atoms: C_10  and  S_11 
REMARK    6  A    between atoms: S_11  and  C_12 
REMARK    7  A    between atoms: N_13  and  C_14 
ROOT
HETATM    1  C   UNL     1      41.644 -12.963   1.642  1.00  0.00     0.178 A 
HETATM    2  N   UNL     1      40.446 -13.051   2.399  1.00  0.00    -0.255 N 
HETATM    3  C   UNL     1      40.467 -13.371   3.775  1.00  0.00     0.270 A 
HETATM    4  O   UNL     1      39.494 -13.436   4.519  1.00  0.00    -0.266 OA
HETATM    5  C   UNL     1      41.787 -13.658   4.260  1.00  0.00     0.099 A 
HETATM    6  C   UNL     1      42.847 -13.579   3.403  1.00  0.00     0.164 A 
HETATM    7  N   UNL     1      43.950 -13.892   4.140  1.00  0.00    -0.260 N 
HETATM    8  H   UNL     1      44.915 -13.916   3.831  1.00  0.00     0.191 HD
HETATM    9  N   UNL     1      43.660 -14.196   5.425  1.00  0.00    -0.184 NA
HETATM   10  C   UNL     1      42.330 -14.045   5.491  1.00  0.00     0.159 A 
HETATM   11  N   UNL     1      42.835 -13.240   2.101  1.00  0.00    -0.204 NA
ENDROOT
BRANCH   1  12
HETATM   12  S   UNL     1      41.550 -12.464  -0.048  1.00  0.00    -0.082 SA
BRANCH  12  13
HETATM   13  C   UNL     1      42.133 -13.952  -0.903  1.00  0.00     0.185 C 
BRANCH  13  14
HETATM   14  C   UNL     1      41.008 -14.957  -1.027  1.00  0.00     0.231 C 
HETATM   15  N   UNL     1      40.957 -16.093  -0.270  1.00  0.00    -0.327 N 
HETATM   16  H   UNL     1      40.254 -16.728  -0.633  1.00  0.00     0.169 HD
HETATM   17  O   UNL     1      40.123 -14.804  -1.881  1.00  0.00    -0.272 OA
BRANCH  15  18
HETATM   18  C   UNL     1      41.627 -16.525   0.890  1.00  0.00     0.034 A 
HETATM   19  C   UNL     1      42.997 -16.749   0.990  1.00  0.00     0.032 A 
HETATM   20  C   UNL     1      43.566 -17.150   2.206  1.00  0.00     0.039 A 
HETATM   21  C   UNL     1      42.784 -17.307   3.349  1.00  0.00     0.068 A 
HETATM   22  C   UNL     1      41.416 -17.070   3.264  1.00  0.00     0.039 A 
HETATM   23  C   UNL     1      40.846 -16.673   2.045  1.00  0.00     0.032 A 
BRANCH  21  24
HETATM   24  O   UNL     1      43.471 -17.687   4.465  1.00  0.00    -0.352 OA
BRANCH  24  25
HETATM   25  C   UNL     1      42.780 -18.512   5.402  1.00  0.00     0.171 C 
HETATM   26  C   UNL     1      43.809 -19.376   6.110  1.00  0.00     0.034 C 
ENDBRANCH  24  25
ENDBRANCH  21  24
ENDBRANCH  15  18
ENDBRANCH  13  14
ENDBRANCH  12  13
ENDBRANCH   1  12
BRANCH   2  27
HETATM   27  C   UNL     1      39.152 -12.814   1.831  1.00  0.00     0.056 A 
HETATM   28  C   UNL     1      38.549 -11.522   1.826  1.00  0.00     0.002 A 
HETATM   29  C   UNL     1      37.251 -11.388   1.268  1.00  0.00    -0.024 A 
HETATM   30  C   UNL     1      39.172 -10.345   2.314  1.00  0.00     0.014 A 
HETATM   31  C   UNL     1      36.608 -10.140   1.271  1.00  0.00     0.012 A 
HETATM   32  C   UNL     1      36.615 -12.501   0.699  1.00  0.00     0.012 A 
HETATM   33  C   UNL     1      37.232  -9.010   1.798  1.00  0.00     0.001 A 
HETATM   34  C   UNL     1      38.518  -9.111   2.311  1.00  0.00     0.001 A 
HETATM   35  C   UNL     1      37.237 -13.746   0.664  1.00  0.00     0.003 A 
HETATM   36  C   UNL     1      38.498 -13.902   1.227  1.00  0.00     0.031 A 
ENDBRANCH   2  27
TORSDOF 7
ENDMDL
