MODEL 1
REMARK VINA RESULT:      -9.1      0.000      0.000
REMARK  5 active torsions:
REMARK  status: ('A' for Active; 'I' for Inactive)
REMARK    1  A    between atoms: C_2  and  C_3 
REMARK    2  A    between atoms: C_4  and  N_5 
REMARK    3  A    between atoms: N_5  and  C_6 
REMARK    4  A    between atoms: C_7  and  C_8 
REMARK    5  A    between atoms: C_11  and  C_12 
ROOT
HETATM    1  C   UNL     1      41.318 -15.895  -0.060  1.00  0.00     0.113 C 
HETATM    2  C   UNL     1      40.819 -15.704   1.177  1.00  0.00     0.082 C 
HETATM    3  C   UNL     1      39.550 -14.890   1.368  1.00  0.00     0.024 C 
HETATM    4  N   UNL     1      38.496 -14.214   1.527  1.00  0.00    -0.096 N 
ENDROOT
BRANCH   2   5
HETATM    5  C   UNL     1      41.512 -16.189   2.317  1.00  0.00     0.119 A 
HETATM    6  S   UNL     1      41.647 -15.201   3.732  1.00  0.00    -0.078 SA
HETATM    7  C   UNL     1      42.537 -16.438   4.513  1.00  0.00     0.084 A 
HETATM    8  C   UNL     1      42.685 -17.521   3.671  1.00  0.00     0.075 A 
HETATM    9  N   UNL     1      42.090 -17.369   2.428  1.00  0.00    -0.239 NA
BRANCH   8  10
HETATM   10  C   UNL     1      43.379 -18.758   4.019  1.00  0.00    -0.005 A 
HETATM   11  C   UNL     1      43.700 -19.672   3.003  1.00  0.00     0.039 A 
HETATM   12  C   UNL     1      44.366 -20.867   3.296  1.00  0.00     0.056 A 
HETATM   13 CL   UNL     1      44.715 -21.937   1.984  1.00  0.00    -0.083 Cl
HETATM   14  C   UNL     1      44.724 -21.159   4.615  1.00  0.00     0.055 A 
HETATM   15 CL   UNL     1      45.547 -22.612   5.055  1.00  0.00    -0.083 Cl
HETATM   16  C   UNL     1      44.415 -20.253   5.632  1.00  0.00     0.026 A 
HETATM   17  C   UNL     1      43.747 -19.059   5.336  1.00  0.00     0.015 A 
ENDBRANCH   8  10
ENDBRANCH   2   5
BRANCH   1  18
HETATM   18  N   UNL     1      40.791 -15.497  -1.267  1.00  0.00    -0.364 N 
HETATM   19  H   UNL     1      39.951 -15.986  -1.602  1.00  0.00     0.165 HD
BRANCH  18  20
HETATM   20  C   UNL     1      40.981 -14.254  -1.920  1.00  0.00     0.048 A 
HETATM   21  C   UNL     1      40.249 -13.954  -3.106  1.00  0.00     0.039 A 
HETATM   22  C   UNL     1      40.452 -12.754  -3.806  1.00  0.00     0.057 A 
HETATM   23  C   UNL     1      41.392 -11.879  -3.311  1.00  0.00     0.106 A 
HETATM   24  C   UNL     1      42.118 -12.160  -2.179  1.00  0.00     0.107 A 
HETATM   25  O   UNL     1      41.713 -10.672  -3.847  1.00  0.00    -0.323 OA
HETATM   26  C   UNL     1      41.946 -13.332  -1.474  1.00  0.00     0.070 A 
HETATM   27  O   UNL     1      42.985 -11.163  -1.859  1.00  0.00    -0.323 OA
HETATM   28  C   UNL     1      42.729 -10.224  -2.924  1.00  0.00     0.352 A 
BRANCH  21  29
HETATM   29  C   UNL     1      39.253 -14.931  -3.617  1.00  0.00     0.158 C 
HETATM   30  C   UNL     1      37.795 -14.686  -3.328  1.00  0.00     0.097 C 
HETATM   31  O   UNL     1      39.638 -15.910  -4.257  1.00  0.00    -0.293 OA
ENDBRANCH  21  29
ENDBRANCH  18  20
ENDBRANCH   1  18
TORSDOF 5
ENDMDL
MODEL 2
REMARK VINA RESULT:      -8.8      4.843      9.544
REMARK  5 active torsions:
REMARK  status: ('A' for Active; 'I' for Inactive)
REMARK    1  A    between atoms: C_2  and  C_3 
REMARK    2  A    between atoms: C_4  and  N_5 
REMARK    3  A    between atoms: N_5  and  C_6 
REMARK    4  A    between atoms: C_7  and  C_8 
REMARK    5  A    between atoms: C_11  and  C_12 
ROOT
HETATM    1  C   UNL     1      43.027 -15.818   3.961  1.00  0.00     0.113 C 
HETATM    2  C   UNL     1      43.050 -14.495   4.216  1.00  0.00     0.082 C 
HETATM    3  C   UNL     1      43.615 -13.983   5.531  1.00  0.00     0.024 C 
HETATM    4  N   UNL     1      44.084 -13.558   6.622  1.00  0.00    -0.096 N 
ENDROOT
BRANCH   2   5
HETATM    5  C   UNL     1      42.477 -13.574   3.301  1.00  0.00     0.119 A 
HETATM    6  S   UNL     1      41.316 -12.415   3.853  1.00  0.00    -0.078 SA
HETATM    7  C   UNL     1      41.177 -11.794   2.263  1.00  0.00     0.084 A 
HETATM    8  C   UNL     1      42.005 -12.490   1.407  1.00  0.00     0.075 A 
HETATM    9  N   UNL     1      42.745 -13.494   2.012  1.00  0.00    -0.239 NA
BRANCH   8  10
HETATM   10  C   UNL     1      42.148 -12.216  -0.020  1.00  0.00    -0.005 A 
HETATM   11  C   UNL     1      41.781 -13.203  -0.948  1.00  0.00     0.039 A 
HETATM   12  C   UNL     1      41.902 -12.977  -2.323  1.00  0.00     0.056 A 
HETATM   13 CL   UNL     1      41.434 -14.252  -3.392  1.00  0.00    -0.083 Cl
HETATM   14  C   UNL     1      42.389 -11.753  -2.788  1.00  0.00     0.055 A 
HETATM   15 CL   UNL     1      42.565 -11.400  -4.469  1.00  0.00    -0.083 Cl
HETATM   16  C   UNL     1      42.750 -10.760  -1.873  1.00  0.00     0.026 A 
HETATM   17  C   UNL     1      42.630 -10.990  -0.498  1.00  0.00     0.015 A 
ENDBRANCH   8  10
ENDBRANCH   2   5
BRANCH   1  18
HETATM   18  N   UNL     1      43.526 -16.847   4.726  1.00  0.00    -0.364 N 
HETATM   19  H   UNL     1      43.422 -16.772   5.746  1.00  0.00     0.165 HD
BRANCH  18  20
HETATM   20  C   UNL     1      43.790 -18.176   4.313  1.00  0.00     0.048 A 
HETATM   21  C   UNL     1      44.425 -19.086   5.207  1.00  0.00     0.039 A 
HETATM   22  C   UNL     1      44.748 -20.394   4.812  1.00  0.00     0.057 A 
HETATM   23  C   UNL     1      44.438 -20.765   3.524  1.00  0.00     0.106 A 
HETATM   24  C   UNL     1      43.841 -19.895   2.643  1.00  0.00     0.107 A 
HETATM   25  O   UNL     1      44.665 -21.986   2.972  1.00  0.00    -0.323 OA
HETATM   26  C   UNL     1      43.517 -18.603   3.001  1.00  0.00     0.070 A 
HETATM   27  O   UNL     1      43.615 -20.462   1.428  1.00  0.00    -0.323 OA
HETATM   28  C   UNL     1      44.145 -21.786   1.640  1.00  0.00     0.352 A 
BRANCH  21  29
HETATM   29  C   UNL     1      44.758 -18.644   6.587  1.00  0.00     0.158 C 
HETATM   30  C   UNL     1      43.910 -19.148   7.725  1.00  0.00     0.097 C 
HETATM   31  O   UNL     1      45.708 -17.881   6.765  1.00  0.00    -0.293 OA
ENDBRANCH  21  29
ENDBRANCH  18  20
ENDBRANCH   1  18
TORSDOF 5
ENDMDL
MODEL 3
REMARK VINA RESULT:      -8.7      6.635      9.275
REMARK  5 active torsions:
REMARK  status: ('A' for Active; 'I' for Inactive)
REMARK    1  A    between atoms: C_2  and  C_3 
REMARK    2  A    between atoms: C_4  and  N_5 
REMARK    3  A    between atoms: N_5  and  C_6 
REMARK    4  A    between atoms: C_7  and  C_8 
REMARK    5  A    between atoms: C_11  and  C_12 
ROOT
HETATM    1  C   UNL     1      43.896 -13.496   7.345  1.00  0.00     0.113 C 
HETATM    2  C   UNL     1      43.535 -14.222   6.269  1.00  0.00     0.082 C 
HETATM    3  C   UNL     1      42.950 -13.533   5.047  1.00  0.00     0.024 C 
HETATM    4  N   UNL     1      42.463 -12.960   4.033  1.00  0.00    -0.096 N 
ENDROOT
BRANCH   2   5
HETATM    5  C   UNL     1      43.622 -15.638   6.292  1.00  0.00     0.119 A 
HETATM    6  S   UNL     1      43.512 -16.487   7.797  1.00  0.00    -0.078 SA
HETATM    7  C   UNL     1      43.698 -17.977   6.973  1.00  0.00     0.084 A 
HETATM    8  C   UNL     1      43.833 -17.756   5.618  1.00  0.00     0.075 A 
HETATM    9  N   UNL     1      43.780 -16.422   5.243  1.00  0.00    -0.239 NA
BRANCH   8  10
HETATM   10  C   UNL     1      43.996 -18.805   4.615  1.00  0.00    -0.005 A 
HETATM   11  C   UNL     1      44.382 -20.090   5.025  1.00  0.00     0.039 A 
HETATM   12  C   UNL     1      44.547 -21.122   4.094  1.00  0.00     0.056 A 
HETATM   13 CL   UNL     1      45.034 -22.672   4.688  1.00  0.00    -0.083 Cl
HETATM   14  C   UNL     1      44.321 -20.879   2.737  1.00  0.00     0.055 A 
HETATM   15 CL   UNL     1      44.502 -22.100   1.530  1.00  0.00    -0.083 Cl
HETATM   16  C   UNL     1      43.928 -19.605   2.320  1.00  0.00     0.026 A 
HETATM   17  C   UNL     1      43.766 -18.574   3.253  1.00  0.00     0.015 A 
ENDBRANCH   8  10
ENDBRANCH   2   5
BRANCH   1  18
HETATM   18  N   UNL     1      43.876 -12.130   7.502  1.00  0.00    -0.364 N 
HETATM   19  H   UNL     1      44.250 -11.558   6.733  1.00  0.00     0.165 HD
BRANCH  18  20
HETATM   20  C   UNL     1      43.051 -11.376   8.374  1.00  0.00     0.048 A 
HETATM   21  C   UNL     1      43.579 -10.883   9.603  1.00  0.00     0.039 A 
HETATM   22  C   UNL     1      42.775 -10.178  10.513  1.00  0.00     0.057 A 
HETATM   23  C   UNL     1      41.453  -9.989  10.180  1.00  0.00     0.106 A 
HETATM   24  C   UNL     1      40.924 -10.472   9.009  1.00  0.00     0.107 A 
HETATM   25  O   UNL     1      40.533  -9.325  10.929  1.00  0.00    -0.323 OA
HETATM   26  C   UNL     1      41.687 -11.173   8.098  1.00  0.00     0.070 A 
HETATM   27  O   UNL     1      39.605 -10.171   8.871  1.00  0.00    -0.323 OA
HETATM   28  C   UNL     1      39.361  -9.448  10.096  1.00  0.00     0.352 A 
BRANCH  21  29
HETATM   29  C   UNL     1      45.009 -11.120   9.933  1.00  0.00     0.158 C 
HETATM   30  C   UNL     1      45.337 -12.034  11.084  1.00  0.00     0.097 C 
HETATM   31  O   UNL     1      45.883 -10.567   9.266  1.00  0.00    -0.293 OA
ENDBRANCH  21  29
ENDBRANCH  18  20
ENDBRANCH   1  18
TORSDOF 5
ENDMDL
MODEL 4
REMARK VINA RESULT:      -8.5      4.772      9.404
REMARK  5 active torsions:
REMARK  status: ('A' for Active; 'I' for Inactive)
REMARK    1  A    between atoms: C_2  and  C_3 
REMARK    2  A    between atoms: C_4  and  N_5 
REMARK    3  A    between atoms: N_5  and  C_6 
REMARK    4  A    between atoms: C_7  and  C_8 
REMARK    5  A    between atoms: C_11  and  C_12 
ROOT
HETATM    1  C   UNL     1      42.836 -16.103   3.844  1.00  0.00     0.113 C 
HETATM    2  C   UNL     1      41.606 -15.738   4.256  1.00  0.00     0.082 C 
HETATM    3  C   UNL     1      41.015 -16.343   5.518  1.00  0.00     0.024 C 
HETATM    4  N   UNL     1      40.524 -16.846   6.566  1.00  0.00    -0.096 N 
ENDROOT
BRANCH   2   5
HETATM    5  C   UNL     1      40.819 -14.850   3.477  1.00  0.00     0.119 A 
HETATM    6  S   UNL     1      40.228 -13.379   4.175  1.00  0.00    -0.078 SA
HETATM    7  C   UNL     1      39.466 -12.980   2.694  1.00  0.00     0.084 A 
HETATM    8  C   UNL     1      39.694 -13.971   1.760  1.00  0.00     0.075 A 
HETATM    9  N   UNL     1      40.472 -15.024   2.217  1.00  0.00    -0.239 NA
BRANCH   8  10
HETATM   10  C   UNL     1      39.202 -13.949   0.386  1.00  0.00    -0.005 A 
HETATM   11  C   UNL     1      40.079 -14.275  -0.661  1.00  0.00     0.039 A 
HETATM   12  C   UNL     1      39.645 -14.267  -1.991  1.00  0.00     0.056 A 
HETATM   13 CL   UNL     1      40.795 -14.673  -3.216  1.00  0.00    -0.083 Cl
HETATM   14  C   UNL     1      38.320 -13.936  -2.289  1.00  0.00     0.055 A 
HETATM   15 CL   UNL     1      37.710 -13.906  -3.904  1.00  0.00    -0.083 Cl
HETATM   16  C   UNL     1      37.438 -13.618  -1.254  1.00  0.00     0.026 A 
HETATM   17  C   UNL     1      37.875 -13.625   0.075  1.00  0.00     0.015 A 
ENDBRANCH   8  10
ENDBRANCH   2   5
BRANCH   1  18
HETATM   18  N   UNL     1      43.730 -16.947   4.460  1.00  0.00    -0.364 N 
HETATM   19  H   UNL     1      44.058 -16.687   5.399  1.00  0.00     0.165 HD
BRANCH  18  20
HETATM   20  C   UNL     1      43.951 -18.318   4.179  1.00  0.00     0.048 A 
HETATM   21  C   UNL     1      44.470 -19.177   5.192  1.00  0.00     0.039 A 
HETATM   22  C   UNL     1      44.750 -20.528   4.932  1.00  0.00     0.057 A 
HETATM   23  C   UNL     1      44.515 -20.993   3.658  1.00  0.00     0.106 A 
HETATM   24  C   UNL     1      44.031 -20.175   2.666  1.00  0.00     0.107 A 
HETATM   25  O   UNL     1      44.716 -22.267   3.228  1.00  0.00    -0.323 OA
HETATM   26  C   UNL     1      43.752 -18.843   2.890  1.00  0.00     0.070 A 
HETATM   27  O   UNL     1      43.864 -20.833   1.488  1.00  0.00    -0.323 OA
HETATM   28  C   UNL     1      44.306 -22.158   1.848  1.00  0.00     0.352 A 
BRANCH  21  29
HETATM   29  C   UNL     1      44.725 -18.634   6.552  1.00  0.00     0.158 C 
HETATM   30  C   UNL     1      43.813 -19.055   7.674  1.00  0.00     0.097 C 
HETATM   31  O   UNL     1      45.665 -17.858   6.727  1.00  0.00    -0.293 OA
ENDBRANCH  21  29
ENDBRANCH  18  20
ENDBRANCH   1  18
TORSDOF 5
ENDMDL
MODEL 5
REMARK VINA RESULT:      -8.5      2.243      3.397
REMARK  5 active torsions:
REMARK  status: ('A' for Active; 'I' for Inactive)
REMARK    1  A    between atoms: C_2  and  C_3 
REMARK    2  A    between atoms: C_4  and  N_5 
REMARK    3  A    between atoms: N_5  and  C_6 
REMARK    4  A    between atoms: C_7  and  C_8 
REMARK    5  A    between atoms: C_11  and  C_12 
ROOT
HETATM    1  C   UNL     1      41.770 -13.824   0.962  1.00  0.00     0.113 C 
HETATM    2  C   UNL     1      41.735 -13.426   2.249  1.00  0.00     0.082 C 
HETATM    3  C   UNL     1      41.184 -12.056   2.608  1.00  0.00     0.024 C 
HETATM    4  N   UNL     1      40.726 -10.919   2.905  1.00  0.00    -0.096 N 
ENDROOT
BRANCH   2   5
HETATM    5  C   UNL     1      42.285 -14.243   3.271  1.00  0.00     0.119 A 
HETATM    6  S   UNL     1      42.516 -13.600   4.862  1.00  0.00    -0.078 SA
HETATM    7  C   UNL     1      43.151 -15.104   5.380  1.00  0.00     0.084 A 
HETATM    8  C   UNL     1      43.157 -16.003   4.333  1.00  0.00     0.075 A 
HETATM    9  N   UNL     1      42.654 -15.503   3.142  1.00  0.00    -0.239 NA
BRANCH   8  10
HETATM   10  C   UNL     1      43.620 -17.385   4.425  1.00  0.00    -0.005 A 
HETATM   11  C   UNL     1      43.459 -18.235   3.320  1.00  0.00     0.039 A 
HETATM   12  C   UNL     1      43.891 -19.565   3.369  1.00  0.00     0.056 A 
HETATM   13 CL   UNL     1      43.645 -20.544   1.964  1.00  0.00    -0.083 Cl
HETATM   14  C   UNL     1      44.497 -20.059   4.527  1.00  0.00     0.055 A 
HETATM   15 CL   UNL     1      45.057 -21.687   4.662  1.00  0.00    -0.083 Cl
HETATM   16  C   UNL     1      44.668 -19.219   5.629  1.00  0.00     0.026 A 
HETATM   17  C   UNL     1      44.233 -17.889   5.578  1.00  0.00     0.015 A 
ENDBRANCH   8  10
ENDBRANCH   2   5
BRANCH   1  18
HETATM   18  N   UNL     1      41.295 -13.169  -0.150  1.00  0.00    -0.364 N 
HETATM   19  H   UNL     1      41.850 -12.382  -0.510  1.00  0.00     0.165 HD
BRANCH  18  20
HETATM   20  C   UNL     1      40.382 -13.663  -1.114  1.00  0.00     0.048 A 
HETATM   21  C   UNL     1      39.017 -13.254  -1.077  1.00  0.00     0.039 A 
HETATM   22  C   UNL     1      38.075 -13.764  -1.985  1.00  0.00     0.057 A 
HETATM   23  C   UNL     1      38.516 -14.684  -2.909  1.00  0.00     0.106 A 
HETATM   24  C   UNL     1      39.824 -15.102  -2.948  1.00  0.00     0.107 A 
HETATM   25  O   UNL     1      37.754 -15.275  -3.867  1.00  0.00    -0.323 OA
HETATM   26  C   UNL     1      40.770 -14.623  -2.066  1.00  0.00     0.070 A 
HETATM   27  O   UNL     1      40.049 -16.007  -3.938  1.00  0.00    -0.323 OA
HETATM   28  C   UNL     1      38.731 -16.117  -4.514  1.00  0.00     0.352 A 
BRANCH  21  29
HETATM   29  C   UNL     1      38.576 -12.269  -0.055  1.00  0.00     0.158 C 
HETATM   30  C   UNL     1      37.628 -12.728   1.022  1.00  0.00     0.097 C 
HETATM   31  O   UNL     1      38.991 -11.111  -0.112  1.00  0.00    -0.293 OA
ENDBRANCH  21  29
ENDBRANCH  18  20
ENDBRANCH   1  18
TORSDOF 5
ENDMDL
MODEL 6
REMARK VINA RESULT:      -8.4      5.157      9.688
REMARK  5 active torsions:
REMARK  status: ('A' for Active; 'I' for Inactive)
REMARK    1  A    between atoms: C_2  and  C_3 
REMARK    2  A    between atoms: C_4  and  N_5 
REMARK    3  A    between atoms: N_5  and  C_6 
REMARK    4  A    between atoms: C_7  and  C_8 
REMARK    5  A    between atoms: C_11  and  C_12 
ROOT
HETATM    1  C   UNL     1      42.806 -16.115   2.970  1.00  0.00     0.113 C 
HETATM    2  C   UNL     1      41.636 -15.466   3.126  1.00  0.00     0.082 C 
HETATM    3  C   UNL     1      40.951 -15.447   4.482  1.00  0.00     0.024 C 
HETATM    4  N   UNL     1      40.382 -15.431   5.609  1.00  0.00    -0.096 N 
ENDROOT
BRANCH   2   5
HETATM    5  C   UNL     1      40.991 -14.864   2.014  1.00  0.00     0.119 A 
HETATM    6  S   UNL     1      39.262 -14.816   1.938  1.00  0.00    -0.078 SA
HETATM    7  C   UNL     1      39.349 -14.007   0.431  1.00  0.00     0.084 A 
HETATM    8  C   UNL     1      40.667 -13.820   0.067  1.00  0.00     0.075 A 
HETATM    9  N   UNL     1      41.590 -14.305   0.980  1.00  0.00    -0.239 NA
BRANCH   8  10
HETATM   10  C   UNL     1      41.107 -13.151  -1.154  1.00  0.00    -0.005 A 
HETATM   11  C   UNL     1      41.944 -12.029  -1.056  1.00  0.00     0.039 A 
HETATM   12  C   UNL     1      42.388 -11.361  -2.203  1.00  0.00     0.056 A 
HETATM   13 CL   UNL     1      43.409  -9.983  -1.989  1.00  0.00    -0.083 Cl
HETATM   14  C   UNL     1      42.002 -11.816  -3.467  1.00  0.00     0.055 A 
HETATM   15 CL   UNL     1      42.510 -11.048  -4.927  1.00  0.00    -0.083 Cl
HETATM   16  C   UNL     1      41.176 -12.937  -3.575  1.00  0.00     0.026 A 
HETATM   17  C   UNL     1      40.731 -13.601  -2.426  1.00  0.00     0.015 A 
ENDBRANCH   8  10
ENDBRANCH   2   5
BRANCH   1  18
HETATM   18  N   UNL     1      43.565 -16.754   3.923  1.00  0.00    -0.364 N 
HETATM   19  H   UNL     1      43.701 -16.273   4.821  1.00  0.00     0.165 HD
BRANCH  18  20
HETATM   20  C   UNL     1      43.842 -18.141   4.013  1.00  0.00     0.048 A 
HETATM   21  C   UNL     1      44.186 -18.717   5.271  1.00  0.00     0.039 A 
HETATM   22  C   UNL     1      44.517 -20.077   5.386  1.00  0.00     0.057 A 
HETATM   23  C   UNL     1      44.507 -20.834   4.237  1.00  0.00     0.106 A 
HETATM   24  C   UNL     1      44.195 -20.291   3.014  1.00  0.00     0.107 A 
HETATM   25  O   UNL     1      44.789 -22.161   4.158  1.00  0.00    -0.323 OA
HETATM   26  C   UNL     1      43.871 -18.958   2.869  1.00  0.00     0.070 A 
HETATM   27  O   UNL     1      44.238 -21.210   2.013  1.00  0.00    -0.323 OA
HETATM   28  C   UNL     1      44.621 -22.393   2.743  1.00  0.00     0.352 A 
BRANCH  21  29
HETATM   29  C   UNL     1      44.199 -17.863   6.487  1.00  0.00     0.158 C 
HETATM   30  C   UNL     1      42.990 -17.875   7.385  1.00  0.00     0.097 C 
HETATM   31  O   UNL     1      45.188 -17.171   6.730  1.00  0.00    -0.293 OA
ENDBRANCH  21  29
ENDBRANCH  18  20
ENDBRANCH   1  18
TORSDOF 5
ENDMDL
MODEL 7
REMARK VINA RESULT:      -8.4      6.470      9.038
REMARK  5 active torsions:
REMARK  status: ('A' for Active; 'I' for Inactive)
REMARK    1  A    between atoms: C_2  and  C_3 
REMARK    2  A    between atoms: C_4  and  N_5 
REMARK    3  A    between atoms: N_5  and  C_6 
REMARK    4  A    between atoms: C_7  and  C_8 
REMARK    5  A    between atoms: C_11  and  C_12 
ROOT
HETATM    1  C   UNL     1      40.909 -14.658   5.213  1.00  0.00     0.113 C 
HETATM    2  C   UNL     1      40.768 -13.437   4.662  1.00  0.00     0.082 C 
HETATM    3  C   UNL     1      40.372 -13.301   3.201  1.00  0.00     0.024 C 
HETATM    4  N   UNL     1      40.044 -13.189   1.988  1.00  0.00    -0.096 N 
ENDROOT
BRANCH   2   5
HETATM    5  C   UNL     1      41.063 -12.269   5.413  1.00  0.00     0.119 A 
HETATM    6  S   UNL     1      40.884 -10.707   4.688  1.00  0.00    -0.078 SA
HETATM    7  C   UNL     1      41.401  -9.969   6.146  1.00  0.00     0.084 A 
HETATM    8  C   UNL     1      41.680 -10.933   7.093  1.00  0.00     0.075 A 
HETATM    9  N   UNL     1      41.477 -12.237   6.665  1.00  0.00    -0.239 NA
BRANCH   8  10
HETATM   10  C   UNL     1      42.132 -10.658   8.453  1.00  0.00    -0.005 A 
HETATM   11  C   UNL     1      43.394 -11.115   8.862  1.00  0.00     0.039 A 
HETATM   12  C   UNL     1      43.863 -10.869  10.157  1.00  0.00     0.056 A 
HETATM   13 CL   UNL     1      45.426 -11.476  10.577  1.00  0.00    -0.083 Cl
HETATM   14  C   UNL     1      43.071 -10.155  11.061  1.00  0.00     0.055 A 
HETATM   15 CL   UNL     1      43.580  -9.812  12.675  1.00  0.00    -0.083 Cl
HETATM   16  C   UNL     1      41.816  -9.690  10.662  1.00  0.00     0.026 A 
HETATM   17  C   UNL     1      41.349  -9.939   9.366  1.00  0.00     0.015 A 
ENDBRANCH   8  10
ENDBRANCH   2   5
BRANCH   1  18
HETATM   18  N   UNL     1      40.675 -15.887   4.641  1.00  0.00    -0.364 N 
HETATM   19  H   UNL     1      39.822 -15.993   4.076  1.00  0.00     0.165 HD
BRANCH  18  20
HETATM   20  C   UNL     1      41.623 -16.904   4.370  1.00  0.00     0.048 A 
HETATM   21  C   UNL     1      41.817 -17.358   3.033  1.00  0.00     0.039 A 
HETATM   22  C   UNL     1      42.711 -18.399   2.736  1.00  0.00     0.057 A 
HETATM   23  C   UNL     1      43.388 -18.975   3.787  1.00  0.00     0.106 A 
HETATM   24  C   UNL     1      43.201 -18.562   5.083  1.00  0.00     0.107 A 
HETATM   25  O   UNL     1      44.296 -19.983   3.690  1.00  0.00    -0.323 OA
HETATM   26  C   UNL     1      42.326 -17.546   5.406  1.00  0.00     0.070 A 
HETATM   27  O   UNL     1      43.970 -19.255   5.965  1.00  0.00    -0.323 OA
HETATM   28  C   UNL     1      44.658 -20.159   5.076  1.00  0.00     0.352 A 
BRANCH  21  29
HETATM   29  C   UNL     1      41.056 -16.720   1.927  1.00  0.00     0.158 C 
HETATM   30  C   UNL     1      41.822 -16.182   0.747  1.00  0.00     0.097 C 
HETATM   31  O   UNL     1      39.829 -16.645   2.001  1.00  0.00    -0.293 OA
ENDBRANCH  21  29
ENDBRANCH  18  20
ENDBRANCH   1  18
TORSDOF 5
ENDMDL
MODEL 8
REMARK VINA RESULT:      -8.3      4.687      6.340
REMARK  5 active torsions:
REMARK  status: ('A' for Active; 'I' for Inactive)
REMARK    1  A    between atoms: C_2  and  C_3 
REMARK    2  A    between atoms: C_4  and  N_5 
REMARK    3  A    between atoms: N_5  and  C_6 
REMARK    4  A    between atoms: C_7  and  C_8 
REMARK    5  A    between atoms: C_11  and  C_12 
ROOT
HETATM    1  C   UNL     1      42.227 -13.190   3.439  1.00  0.00     0.113 C 
HETATM    2  C   UNL     1      42.251 -13.652   2.174  1.00  0.00     0.082 C 
HETATM    3  C   UNL     1      42.093 -12.690   1.008  1.00  0.00     0.024 C 
HETATM    4  N   UNL     1      41.962 -11.890   0.041  1.00  0.00    -0.096 N 
ENDROOT
BRANCH   2   5
HETATM    5  C   UNL     1      42.341 -15.045   1.917  1.00  0.00     0.119 A 
HETATM    6  S   UNL     1      41.645 -15.706   0.475  1.00  0.00    -0.078 SA
HETATM    7  C   UNL     1      42.165 -17.270   0.939  1.00  0.00     0.084 A 
HETATM    8  C   UNL     1      42.828 -17.212   2.148  1.00  0.00     0.075 A 
HETATM    9  N   UNL     1      42.928 -15.939   2.689  1.00  0.00    -0.239 NA
BRANCH   8  10
HETATM   10  C   UNL     1      43.417 -18.360   2.832  1.00  0.00    -0.005 A 
HETATM   11  C   UNL     1      43.690 -19.526   2.101  1.00  0.00     0.039 A 
HETATM   12  C   UNL     1      44.255 -20.646   2.720  1.00  0.00     0.056 A 
HETATM   13 CL   UNL     1      44.549 -22.043   1.745  1.00  0.00    -0.083 Cl
HETATM   14  C   UNL     1      44.560 -20.609   4.084  1.00  0.00     0.055 A 
HETATM   15 CL   UNL     1      45.260 -21.949   4.917  1.00  0.00    -0.083 Cl
HETATM   16  C   UNL     1      44.300 -19.450   4.818  1.00  0.00     0.026 A 
HETATM   17  C   UNL     1      43.733 -18.332   4.196  1.00  0.00     0.015 A 
ENDBRANCH   8  10
ENDBRANCH   2   5
BRANCH   1  18
HETATM   18  N   UNL     1      42.141 -11.887   3.873  1.00  0.00    -0.364 N 
HETATM   19  H   UNL     1      42.544 -11.159   3.270  1.00  0.00     0.165 HD
BRANCH  18  20
HETATM   20  C   UNL     1      41.227 -11.354   4.816  1.00  0.00     0.048 A 
HETATM   21  C   UNL     1      40.138 -10.548   4.373  1.00  0.00     0.039 A 
HETATM   22  C   UNL     1      39.245  -9.962   5.285  1.00  0.00     0.057 A 
HETATM   23  C   UNL     1      39.465 -10.185   6.625  1.00  0.00     0.106 A 
HETATM   24  C   UNL     1      40.519 -10.945   7.069  1.00  0.00     0.107 A 
HETATM   25  O   UNL     1      38.702  -9.710   7.645  1.00  0.00    -0.323 OA
HETATM   26  C   UNL     1      41.416 -11.529   6.199  1.00  0.00     0.070 A 
HETATM   27  O   UNL     1      40.551 -11.045   8.425  1.00  0.00    -0.323 OA
HETATM   28  C   UNL     1      39.399 -10.255   8.785  1.00  0.00     0.352 A 
BRANCH  21  29
HETATM   29  C   UNL     1      39.942 -10.319   2.918  1.00  0.00     0.158 C 
HETATM   30  C   UNL     1      38.805 -11.025   2.228  1.00  0.00     0.097 C 
HETATM   31  O   UNL     1      40.708  -9.566   2.316  1.00  0.00    -0.293 OA
ENDBRANCH  21  29
ENDBRANCH  18  20
ENDBRANCH   1  18
TORSDOF 5
ENDMDL
MODEL 9
REMARK VINA RESULT:      -8.3      7.380     10.420
REMARK  5 active torsions:
REMARK  status: ('A' for Active; 'I' for Inactive)
REMARK    1  A    between atoms: C_2  and  C_3 
REMARK    2  A    between atoms: C_4  and  N_5 
REMARK    3  A    between atoms: N_5  and  C_6 
REMARK    4  A    between atoms: C_7  and  C_8 
REMARK    5  A    between atoms: C_11  and  C_12 
ROOT
HETATM    1  C   UNL     1      42.266 -11.543   7.439  1.00  0.00     0.113 C 
HETATM    2  C   UNL     1      41.268 -11.619   6.537  1.00  0.00     0.082 C 
HETATM    3  C   UNL     1      40.264 -10.484   6.415  1.00  0.00     0.024 C 
HETATM    4  N   UNL     1      39.432  -9.542   6.314  1.00  0.00    -0.096 N 
ENDROOT
BRANCH   2   5
HETATM    5  C   UNL     1      41.094 -12.787   5.750  1.00  0.00     0.119 A 
HETATM    6  S   UNL     1      39.742 -12.914   4.677  1.00  0.00    -0.078 SA
HETATM    7  C   UNL     1      40.268 -14.470   4.194  1.00  0.00     0.084 A 
HETATM    8  C   UNL     1      41.426 -14.810   4.864  1.00  0.00     0.075 A 
HETATM    9  N   UNL     1      41.889 -13.840   5.740  1.00  0.00    -0.239 NA
BRANCH   8  10
HETATM   10  C   UNL     1      42.156 -16.061   4.685  1.00  0.00    -0.005 A 
HETATM   11  C   UNL     1      43.210 -16.370   5.558  1.00  0.00     0.039 A 
HETATM   12  C   UNL     1      43.933 -17.561   5.419  1.00  0.00     0.056 A 
HETATM   13 CL   UNL     1      45.221 -17.856   6.534  1.00  0.00    -0.083 Cl
HETATM   14  C   UNL     1      43.602 -18.461   4.403  1.00  0.00     0.055 A 
HETATM   15 CL   UNL     1      44.446 -19.950   4.170  1.00  0.00    -0.083 Cl
HETATM   16  C   UNL     1      42.550 -18.167   3.534  1.00  0.00     0.026 A 
HETATM   17  C   UNL     1      41.830 -16.974   3.674  1.00  0.00     0.015 A 
ENDBRANCH   8  10
ENDBRANCH   2   5
BRANCH   1  18
HETATM   18  N   UNL     1      42.581 -10.503   8.282  1.00  0.00    -0.364 N 
HETATM   19  H   UNL     1      42.485  -9.548   7.914  1.00  0.00     0.165 HD
BRANCH  18  20
HETATM   20  C   UNL     1      42.622 -10.527   9.699  1.00  0.00     0.048 A 
HETATM   21  C   UNL     1      43.821 -10.905  10.369  1.00  0.00     0.039 A 
HETATM   22  C   UNL     1      43.880 -10.990  11.770  1.00  0.00     0.057 A 
HETATM   23  C   UNL     1      42.733 -10.702  12.474  1.00  0.00     0.106 A 
HETATM   24  C   UNL     1      41.564 -10.353  11.842  1.00  0.00     0.107 A 
HETATM   25  O   UNL     1      42.606 -10.721  13.827  1.00  0.00    -0.323 OA
HETATM   26  C   UNL     1      41.474 -10.267  10.469  1.00  0.00     0.070 A 
HETATM   27  O   UNL     1      40.556 -10.104  12.720  1.00  0.00    -0.323 OA
HETATM   28  C   UNL     1      41.220 -10.346  13.977  1.00  0.00     0.352 A 
BRANCH  21  29
HETATM   29  C   UNL     1      45.036 -11.222   9.573  1.00  0.00     0.158 C 
HETATM   30  C   UNL     1      45.274 -12.652   9.167  1.00  0.00     0.097 C 
HETATM   31  O   UNL     1      45.813 -10.317   9.270  1.00  0.00    -0.293 OA
ENDBRANCH  21  29
ENDBRANCH  18  20
ENDBRANCH   1  18
TORSDOF 5
ENDMDL
MODEL 10
REMARK VINA RESULT:      -8.2      2.955      4.139
REMARK  5 active torsions:
REMARK  status: ('A' for Active; 'I' for Inactive)
REMARK    1  A    between atoms: C_2  and  C_3 
REMARK    2  A    between atoms: C_4  and  N_5 
REMARK    3  A    between atoms: N_5  and  C_6 
REMARK    4  A    between atoms: C_7  and  C_8 
REMARK    5  A    between atoms: C_11  and  C_12 
ROOT
HETATM    1  C   UNL     1      42.485 -13.282   2.585  1.00  0.00     0.113 C 
HETATM    2  C   UNL     1      42.418 -13.592   3.894  1.00  0.00     0.082 C 
HETATM    3  C   UNL     1      41.942 -12.555   4.899  1.00  0.00     0.024 C 
HETATM    4  N   UNL     1      41.547 -11.694   5.732  1.00  0.00    -0.096 N 
ENDROOT
BRANCH   2   5
HETATM    5  C   UNL     1      42.864 -14.856   4.360  1.00  0.00     0.119 A 
HETATM    6  S   UNL     1      43.218 -15.083   6.040  1.00  0.00    -0.078 SA
HETATM    7  C   UNL     1      43.641 -16.714   5.732  1.00  0.00     0.084 A 
HETATM    8  C   UNL     1      43.495 -16.998   4.389  1.00  0.00     0.075 A 
HETATM    9  N   UNL     1      43.044 -15.934   3.622  1.00  0.00    -0.239 NA
BRANCH   8  10
HETATM   10  C   UNL     1      43.755 -18.299   3.779  1.00  0.00    -0.005 A 
HETATM   11  C   UNL     1      44.296 -19.328   4.565  1.00  0.00     0.039 A 
HETATM   12  C   UNL     1      44.558 -20.588   4.017  1.00  0.00     0.056 A 
HETATM   13 CL   UNL     1      45.234 -21.793   5.056  1.00  0.00    -0.083 Cl
HETATM   14  C   UNL     1      44.273 -20.835   2.671  1.00  0.00     0.055 A 
HETATM   15 CL   UNL     1      44.566 -22.365   1.924  1.00  0.00    -0.083 Cl
HETATM   16  C   UNL     1      43.726 -19.821   1.883  1.00  0.00     0.026 A 
HETATM   17  C   UNL     1      43.468 -18.560   2.433  1.00  0.00     0.015 A 
ENDBRANCH   8  10
ENDBRANCH   2   5
BRANCH   1  18
HETATM   18  N   UNL     1      42.105 -12.117   1.960  1.00  0.00    -0.364 N 
HETATM   19  H   UNL     1      42.834 -11.412   1.789  1.00  0.00     0.165 HD
BRANCH  18  20
HETATM   20  C   UNL     1      40.961 -11.909   1.151  1.00  0.00     0.048 A 
HETATM   21  C   UNL     1      41.115 -11.556  -0.222  1.00  0.00     0.039 A 
HETATM   22  C   UNL     1      40.003 -11.292  -1.038  1.00  0.00     0.057 A 
HETATM   23  C   UNL     1      38.756 -11.376  -0.461  1.00  0.00     0.106 A 
HETATM   24  C   UNL     1      38.591 -11.697   0.864  1.00  0.00     0.107 A 
HETATM   25  O   UNL     1      37.572 -11.165  -1.096  1.00  0.00    -0.323 OA
HETATM   26  C   UNL     1      39.663 -11.957   1.691  1.00  0.00     0.070 A 
HETATM   27  O   UNL     1      37.281 -11.733   1.229  1.00  0.00    -0.323 OA
HETATM   28  C   UNL     1      36.640 -11.388  -0.016  1.00  0.00     0.352 A 
BRANCH  21  29
HETATM   29  C   UNL     1      42.479 -11.462  -0.804  1.00  0.00     0.158 C 
HETATM   30  C   UNL     1      42.818 -12.337  -1.982  1.00  0.00     0.097 C 
HETATM   31  O   UNL     1      43.293 -10.679  -0.314  1.00  0.00    -0.293 OA
ENDBRANCH  21  29
ENDBRANCH  18  20
ENDBRANCH   1  18
TORSDOF 5
ENDMDL
