MODEL 1
REMARK VINA RESULT:      -9.2      0.000      0.000
REMARK  6 active torsions:
REMARK  status: ('A' for Active; 'I' for Inactive)
REMARK    1  A    between atoms: C_7  and  C_8 
REMARK    2  A    between atoms: N_9  and  N_10 
REMARK       I    between atoms: N_10  and  C_11 
REMARK    3  A    between atoms: C_11  and  C_12 
REMARK    4  A    between atoms: C_12  and  N_13 
REMARK       I    between atoms: N_13  and  C_14 
REMARK    5  A    between atoms: C_14  and  C_15 
REMARK    6  A    between atoms: C_16  and  O_17 
ROOT
HETATM    1  N   UNL     1      43.473 -15.021   6.654  1.00  0.00    -0.246 N 
HETATM    2  C   UNL     1      44.404 -14.008   6.813  1.00  0.00     0.255 C 
HETATM    3  O   UNL     1      45.175 -13.620   5.933  1.00  0.00    -0.270 OA
HETATM    4  H   UNL     1      42.894 -15.326   7.432  1.00  0.00     0.192 HD
ENDROOT
BRANCH   1   5
HETATM    5  N   UNL     1      43.405 -15.670   5.457  1.00  0.00    -0.184 NA
HETATM    6  C   UNL     1      42.725 -16.770   5.433  1.00  0.00     0.153 C 
BRANCH   6   7
HETATM    7  C   UNL     1      42.643 -17.532   4.199  1.00  0.00     0.018 A 
HETATM    8  C   UNL     1      41.837 -17.255   3.100  1.00  0.00     0.018 A 
HETATM    9  C   UNL     1      40.851 -16.166   2.856  1.00  0.00     0.069 C 
HETATM   10  N   UNL     1      42.085 -18.210   2.146  1.00  0.00    -0.358 N 
HETATM   11  H   UNL     1      41.643 -18.251   1.240  1.00  0.00     0.166 HD
HETATM   12  C   UNL     1      43.035 -19.099   2.586  1.00  0.00     0.043 A 
HETATM   13  C   UNL     1      43.401 -18.706   3.874  1.00  0.00     0.004 A 
HETATM   14  C   UNL     1      43.595 -20.206   1.939  1.00  0.00     0.030 A 
HETATM   15  C   UNL     1      44.384 -19.464   4.548  1.00  0.00     0.014 A 
HETATM   16  C   UNL     1      44.957 -20.574   3.914  1.00  0.00     0.001 A 
HETATM   17  C   UNL     1      44.566 -20.938   2.628  1.00  0.00     0.002 A 
ENDBRANCH   6   7
ENDBRANCH   1   5
BRANCH   2  18
HETATM   18  C   UNL     1      44.570 -13.514   8.250  1.00  0.00     0.227 C 
BRANCH  18  19
HETATM   19  N   UNL     1      45.409 -12.339   8.445  1.00  0.00    -0.348 N 
HETATM   20  C   UNL     1      45.301 -11.309   9.341  1.00  0.00     0.254 C 
HETATM   21  O   UNL     1      46.176 -10.451   9.399  1.00  0.00    -0.268 OA
HETATM   22  H   UNL     1      46.247 -12.276   7.875  1.00  0.00     0.163 HD
BRANCH  20  23
HETATM   23  C   UNL     1      44.107 -11.199  10.198  1.00  0.00     0.065 A 
HETATM   24  C   UNL     1      42.933 -10.647   9.674  1.00  0.00     0.084 A 
HETATM   25  C   UNL     1      41.789 -10.543  10.465  1.00  0.00     0.038 A 
HETATM   26  C   UNL     1      41.834 -10.956  11.798  1.00  0.00     0.003 A 
HETATM   27  C   UNL     1      43.017 -11.471  12.335  1.00  0.00     0.001 A 
HETATM   28  C   UNL     1      44.158 -11.586  11.540  1.00  0.00     0.020 A 
BRANCH  24  29
HETATM   29  O   UNL     1      42.855 -10.284   8.353  1.00  0.00    -0.355 OA
HETATM   30  C   UNL     1      41.654 -10.815   7.778  1.00  0.00     0.210 C 
ENDBRANCH  24  29
ENDBRANCH  20  23
ENDBRANCH  18  19
ENDBRANCH   2  18
TORSDOF 6
ENDMDL
MODEL 2
REMARK VINA RESULT:      -8.8      5.921      9.302
REMARK  6 active torsions:
REMARK  status: ('A' for Active; 'I' for Inactive)
REMARK    1  A    between atoms: C_7  and  C_8 
REMARK    2  A    between atoms: N_9  and  N_10 
REMARK       I    between atoms: N_10  and  C_11 
REMARK    3  A    between atoms: C_11  and  C_12 
REMARK    4  A    between atoms: C_12  and  N_13 
REMARK       I    between atoms: N_13  and  C_14 
REMARK    5  A    between atoms: C_14  and  C_15 
REMARK    6  A    between atoms: C_16  and  O_17 
ROOT
HETATM    1  N   UNL     1      41.347 -15.983   2.422  1.00  0.00    -0.246 N 
HETATM    2  C   UNL     1      41.122 -15.968   1.056  1.00  0.00     0.255 C 
HETATM    3  O   UNL     1      41.342 -16.915   0.299  1.00  0.00    -0.270 OA
HETATM    4  H   UNL     1      41.187 -15.154   2.988  1.00  0.00     0.192 HD
ENDROOT
BRANCH   1   5
HETATM    5  N   UNL     1      41.877 -17.104   2.990  1.00  0.00    -0.184 NA
HETATM    6  C   UNL     1      43.116 -17.038   3.356  1.00  0.00     0.153 C 
BRANCH   6   7
HETATM    7  C   UNL     1      43.753 -18.209   3.933  1.00  0.00     0.018 A 
HETATM    8  C   UNL     1      44.325 -18.309   5.197  1.00  0.00     0.018 A 
HETATM    9  C   UNL     1      44.469 -17.308   6.290  1.00  0.00     0.069 C 
HETATM   10  N   UNL     1      44.792 -19.591   5.346  1.00  0.00    -0.358 N 
HETATM   11  H   UNL     1      45.250 -19.947   6.171  1.00  0.00     0.166 HD
HETATM   12  C   UNL     1      44.537 -20.334   4.219  1.00  0.00     0.043 A 
HETATM   13  C   UNL     1      43.892 -19.494   3.310  1.00  0.00     0.004 A 
HETATM   14  C   UNL     1      44.821 -21.677   3.946  1.00  0.00     0.030 A 
HETATM   15  C   UNL     1      43.510 -20.032   2.061  1.00  0.00     0.014 A 
HETATM   16  C   UNL     1      43.784 -21.375   1.773  1.00  0.00     0.001 A 
HETATM   17  C   UNL     1      44.431 -22.183   2.704  1.00  0.00     0.002 A 
ENDBRANCH   6   7
ENDBRANCH   1   5
BRANCH   2  18
HETATM   18  C   UNL     1      40.762 -14.597   0.485  1.00  0.00     0.227 C 
BRANCH  18  19
HETATM   19  N   UNL     1      41.683 -14.034  -0.495  1.00  0.00    -0.348 N 
HETATM   20  C   UNL     1      41.555 -13.884  -1.850  1.00  0.00     0.254 C 
HETATM   21  O   UNL     1      42.423 -13.296  -2.487  1.00  0.00    -0.268 OA
HETATM   22  H   UNL     1      42.542 -13.632  -0.135  1.00  0.00     0.163 HD
BRANCH  20  23
HETATM   23  C   UNL     1      40.403 -14.476  -2.553  1.00  0.00     0.065 A 
HETATM   24  C   UNL     1      39.180 -13.794  -2.565  1.00  0.00     0.084 A 
HETATM   25  C   UNL     1      38.081 -14.333  -3.234  1.00  0.00     0.038 A 
HETATM   26  C   UNL     1      38.195 -15.576  -3.857  1.00  0.00     0.003 A 
HETATM   27  C   UNL     1      39.403 -16.277  -3.813  1.00  0.00     0.001 A 
HETATM   28  C   UNL     1      40.508 -15.733  -3.154  1.00  0.00     0.020 A 
BRANCH  24  29
HETATM   29  O   UNL     1      39.065 -12.549  -2.002  1.00  0.00    -0.355 OA
HETATM   30  C   UNL     1      37.989 -12.547  -1.054  1.00  0.00     0.210 C 
ENDBRANCH  24  29
ENDBRANCH  20  23
ENDBRANCH  18  19
ENDBRANCH   2  18
TORSDOF 6
ENDMDL
MODEL 3
REMARK VINA RESULT:      -8.8      5.424      9.252
REMARK  6 active torsions:
REMARK  status: ('A' for Active; 'I' for Inactive)
REMARK    1  A    between atoms: C_7  and  C_8 
REMARK    2  A    between atoms: N_9  and  N_10 
REMARK       I    between atoms: N_10  and  C_11 
REMARK    3  A    between atoms: C_11  and  C_12 
REMARK    4  A    between atoms: C_12  and  N_13 
REMARK       I    between atoms: N_13  and  C_14 
REMARK    5  A    between atoms: C_14  and  C_15 
REMARK    6  A    between atoms: C_16  and  O_17 
ROOT
HETATM    1  N   UNL     1      39.896 -16.337   1.607  1.00  0.00    -0.246 N 
HETATM    2  C   UNL     1      39.370 -15.112   1.983  1.00  0.00     0.255 C 
HETATM    3  O   UNL     1      39.610 -14.544   3.049  1.00  0.00    -0.270 OA
HETATM    4  H   UNL     1      39.626 -16.776   0.730  1.00  0.00     0.192 HD
ENDROOT
BRANCH   1   5
HETATM    5  N   UNL     1      40.719 -16.994   2.473  1.00  0.00    -0.184 NA
HETATM    6  C   UNL     1      41.948 -17.148   2.101  1.00  0.00     0.153 C 
BRANCH   6   7
HETATM    7  C   UNL     1      42.869 -17.872   2.960  1.00  0.00     0.018 A 
HETATM    8  C   UNL     1      43.433 -17.418   4.148  1.00  0.00     0.018 A 
HETATM    9  C   UNL     1      43.294 -16.122   4.867  1.00  0.00     0.069 C 
HETATM   10  N   UNL     1      44.223 -18.422   4.647  1.00  0.00    -0.358 N 
HETATM   11  H   UNL     1      44.751 -18.370   5.506  1.00  0.00     0.166 HD
HETATM   12  C   UNL     1      44.187 -19.523   3.825  1.00  0.00     0.043 A 
HETATM   13  C   UNL     1      43.351 -19.207   2.754  1.00  0.00     0.004 A 
HETATM   14  C   UNL     1      44.822 -20.763   3.959  1.00  0.00     0.030 A 
HETATM   15  C   UNL     1      43.140 -20.191   1.763  1.00  0.00     0.014 A 
HETATM   16  C   UNL     1      43.765 -21.439   1.881  1.00  0.00     0.001 A 
HETATM   17  C   UNL     1      44.595 -21.718   2.964  1.00  0.00     0.002 A 
ENDBRANCH   6   7
ENDBRANCH   1   5
BRANCH   2  18
HETATM   18  C   UNL     1      38.276 -14.578   1.057  1.00  0.00     0.227 C 
BRANCH  18  19
HETATM   19  N   UNL     1      38.514 -13.275   0.450  1.00  0.00    -0.348 N 
HETATM   20  C   UNL     1      38.742 -12.931  -0.856  1.00  0.00     0.254 C 
HETATM   21  O   UNL     1      38.829 -11.750  -1.174  1.00  0.00    -0.268 OA
HETATM   22  H   UNL     1      38.450 -12.467   1.062  1.00  0.00     0.163 HD
BRANCH  20  23
HETATM   23  C   UNL     1      38.938 -13.981  -1.871  1.00  0.00     0.065 A 
HETATM   24  C   UNL     1      40.198 -14.573  -2.015  1.00  0.00     0.084 A 
HETATM   25  C   UNL     1      40.401 -15.576  -2.963  1.00  0.00     0.038 A 
HETATM   26  C   UNL     1      39.349 -15.958  -3.797  1.00  0.00     0.003 A 
HETATM   27  C   UNL     1      38.101 -15.341  -3.683  1.00  0.00     0.001 A 
HETATM   28  C   UNL     1      37.894 -14.346  -2.726  1.00  0.00     0.020 A 
BRANCH  24  29
HETATM   29  O   UNL     1      41.228 -14.247  -1.169  1.00  0.00    -0.355 OA
HETATM   30  C   UNL     1      42.129 -13.351  -1.833  1.00  0.00     0.210 C 
ENDBRANCH  24  29
ENDBRANCH  20  23
ENDBRANCH  18  19
ENDBRANCH   2  18
TORSDOF 6
ENDMDL
MODEL 4
REMARK VINA RESULT:      -8.5      4.905      7.454
REMARK  6 active torsions:
REMARK  status: ('A' for Active; 'I' for Inactive)
REMARK    1  A    between atoms: C_7  and  C_8 
REMARK    2  A    between atoms: N_9  and  N_10 
REMARK       I    between atoms: N_10  and  C_11 
REMARK    3  A    between atoms: C_11  and  C_12 
REMARK    4  A    between atoms: C_12  and  N_13 
REMARK       I    between atoms: N_13  and  C_14 
REMARK    5  A    between atoms: C_14  and  C_15 
REMARK    6  A    between atoms: C_16  and  O_17 
ROOT
HETATM    1  N   UNL     1      42.216 -14.833   4.068  1.00  0.00    -0.246 N 
HETATM    2  C   UNL     1      40.941 -14.417   4.417  1.00  0.00     0.255 C 
HETATM    3  O   UNL     1      40.194 -15.019   5.190  1.00  0.00    -0.270 OA
HETATM    4  H   UNL     1      42.768 -14.314   3.391  1.00  0.00     0.192 HD
ENDROOT
BRANCH   1   5
HETATM    5  N   UNL     1      42.688 -16.005   4.581  1.00  0.00    -0.184 NA
HETATM    6  C   UNL     1      43.450 -16.709   3.808  1.00  0.00     0.153 C 
BRANCH   6   7
HETATM    7  C   UNL     1      43.957 -17.987   4.278  1.00  0.00     0.018 A 
HETATM    8  C   UNL     1      44.472 -18.267   5.539  1.00  0.00     0.018 A 
HETATM    9  C   UNL     1      44.671 -17.398   6.732  1.00  0.00     0.069 C 
HETATM   10  N   UNL     1      44.814 -19.595   5.567  1.00  0.00    -0.358 N 
HETATM   11  H   UNL     1      45.209 -20.074   6.363  1.00  0.00     0.166 HD
HETATM   12  C   UNL     1      44.531 -20.195   4.364  1.00  0.00     0.043 A 
HETATM   13  C   UNL     1      43.998 -19.211   3.531  1.00  0.00     0.004 A 
HETATM   14  C   UNL     1      44.700 -21.525   3.963  1.00  0.00     0.030 A 
HETATM   15  C   UNL     1      43.612 -19.583   2.224  1.00  0.00     0.014 A 
HETATM   16  C   UNL     1      43.771 -20.910   1.807  1.00  0.00     0.001 A 
HETATM   17  C   UNL     1      44.308 -21.865   2.666  1.00  0.00     0.002 A 
ENDBRANCH   6   7
ENDBRANCH   1   5
BRANCH   2  18
HETATM   18  C   UNL     1      40.415 -13.232   3.607  1.00  0.00     0.227 C 
BRANCH  18  19
HETATM   19  N   UNL     1      39.189 -13.452   2.849  1.00  0.00    -0.348 N 
HETATM   20  C   UNL     1      38.893 -14.384   1.891  1.00  0.00     0.254 C 
HETATM   21  O   UNL     1      37.756 -14.455   1.434  1.00  0.00    -0.268 OA
HETATM   22  H   UNL     1      38.394 -12.869   3.088  1.00  0.00     0.163 HD
BRANCH  20  23
HETATM   23  C   UNL     1      39.950 -15.266   1.367  1.00  0.00     0.065 A 
HETATM   24  C   UNL     1      40.821 -14.787   0.381  1.00  0.00     0.084 A 
HETATM   25  C   UNL     1      41.835 -15.602  -0.119  1.00  0.00     0.038 A 
HETATM   26  C   UNL     1      41.952 -16.916   0.338  1.00  0.00     0.003 A 
HETATM   27  C   UNL     1      41.060 -17.410   1.294  1.00  0.00     0.001 A 
HETATM   28  C   UNL     1      40.052 -16.590   1.805  1.00  0.00     0.020 A 
BRANCH  24  29
HETATM   29  O   UNL     1      40.753 -13.484  -0.042  1.00  0.00    -0.355 OA
HETATM   30  C   UNL     1      42.050 -13.049  -0.471  1.00  0.00     0.210 C 
ENDBRANCH  24  29
ENDBRANCH  20  23
ENDBRANCH  18  19
ENDBRANCH   2  18
TORSDOF 6
ENDMDL
MODEL 5
REMARK VINA RESULT:      -8.4      5.917      9.017
REMARK  6 active torsions:
REMARK  status: ('A' for Active; 'I' for Inactive)
REMARK    1  A    between atoms: C_7  and  C_8 
REMARK    2  A    between atoms: N_9  and  N_10 
REMARK       I    between atoms: N_10  and  C_11 
REMARK    3  A    between atoms: C_11  and  C_12 
REMARK    4  A    between atoms: C_12  and  N_13 
REMARK       I    between atoms: N_13  and  C_14 
REMARK    5  A    between atoms: C_14  and  C_15 
REMARK    6  A    between atoms: C_16  and  O_17 
ROOT
HETATM    1  N   UNL     1      42.068 -16.148   2.190  1.00  0.00    -0.246 N 
HETATM    2  C   UNL     1      41.243 -16.444   1.118  1.00  0.00     0.255 C 
HETATM    3  O   UNL     1      40.759 -17.555   0.891  1.00  0.00    -0.270 OA
HETATM    4  H   UNL     1      42.471 -15.221   2.299  1.00  0.00     0.192 HD
ENDROOT
BRANCH   1   5
HETATM    5  N   UNL     1      42.407 -17.146   3.055  1.00  0.00    -0.184 NA
HETATM    6  C   UNL     1      43.666 -17.426   3.150  1.00  0.00     0.153 C 
BRANCH   6   7
HETATM    7  C   UNL     1      44.093 -18.505   4.024  1.00  0.00     0.018 A 
HETATM    8  C   UNL     1      44.402 -18.408   5.377  1.00  0.00     0.018 A 
HETATM    9  C   UNL     1      44.407 -17.240   6.301  1.00  0.00     0.069 C 
HETATM   10  N   UNL     1      44.737 -19.662   5.822  1.00  0.00    -0.358 N 
HETATM   11  H   UNL     1      45.000 -19.889   6.769  1.00  0.00     0.166 HD
HETATM   12  C   UNL     1      44.649 -20.578   4.801  1.00  0.00     0.043 A 
HETATM   13  C   UNL     1      44.254 -19.882   3.658  1.00  0.00     0.004 A 
HETATM   14  C   UNL     1      44.881 -21.958   4.812  1.00  0.00     0.030 A 
HETATM   15  C   UNL     1      44.081 -20.612   2.461  1.00  0.00     0.014 A 
HETATM   16  C   UNL     1      44.307 -21.994   2.454  1.00  0.00     0.001 A 
HETATM   17  C   UNL     1      44.701 -22.655   3.615  1.00  0.00     0.002 A 
ENDBRANCH   6   7
ENDBRANCH   1   5
BRANCH   2  18
HETATM   18  C   UNL     1      41.122 -15.328   0.080  1.00  0.00     0.227 C 
BRANCH  18  19
HETATM   19  N   UNL     1      41.099 -15.737  -1.319  1.00  0.00    -0.348 N 
HETATM   20  C   UNL     1      41.283 -15.004  -2.461  1.00  0.00     0.254 C 
HETATM   21  O   UNL     1      41.313 -15.564  -3.552  1.00  0.00    -0.268 OA
HETATM   22  H   UNL     1      40.984 -16.728  -1.503  1.00  0.00     0.163 HD
BRANCH  20  23
HETATM   23  C   UNL     1      41.390 -13.536  -2.387  1.00  0.00     0.065 A 
HETATM   24  C   UNL     1      40.225 -12.765  -2.294  1.00  0.00     0.084 A 
HETATM   25  C   UNL     1      40.306 -11.375  -2.212  1.00  0.00     0.038 A 
HETATM   26  C   UNL     1      41.554 -10.753  -2.265  1.00  0.00     0.003 A 
HETATM   27  C   UNL     1      42.716 -11.518  -2.399  1.00  0.00     0.001 A 
HETATM   28  C   UNL     1      42.637 -12.910  -2.468  1.00  0.00     0.020 A 
BRANCH  24  29
HETATM   29  O   UNL     1      38.994 -13.362  -2.188  1.00  0.00    -0.355 OA
HETATM   30  C   UNL     1      38.000 -12.367  -1.911  1.00  0.00     0.210 C 
ENDBRANCH  24  29
ENDBRANCH  20  23
ENDBRANCH  18  19
ENDBRANCH   2  18
TORSDOF 6
ENDMDL
MODEL 6
REMARK VINA RESULT:      -8.3      5.843      8.645
REMARK  6 active torsions:
REMARK  status: ('A' for Active; 'I' for Inactive)
REMARK    1  A    between atoms: C_7  and  C_8 
REMARK    2  A    between atoms: N_9  and  N_10 
REMARK       I    between atoms: N_10  and  C_11 
REMARK    3  A    between atoms: C_11  and  C_12 
REMARK    4  A    between atoms: C_12  and  N_13 
REMARK       I    between atoms: N_13  and  C_14 
REMARK    5  A    between atoms: C_14  and  C_15 
REMARK    6  A    between atoms: C_16  and  O_17 
ROOT
HETATM    1  N   UNL     1      41.540 -15.764   3.205  1.00  0.00    -0.246 N 
HETATM    2  C   UNL     1      40.481 -15.789   2.313  1.00  0.00     0.255 C 
HETATM    3  O   UNL     1      39.929 -16.814   1.909  1.00  0.00    -0.270 OA
HETATM    4  H   UNL     1      41.982 -14.887   3.467  1.00  0.00     0.192 HD
ENDROOT
BRANCH   1   5
HETATM    5  N   UNL     1      42.044 -16.945   3.662  1.00  0.00    -0.184 NA
HETATM    6  C   UNL     1      43.332 -17.055   3.686  1.00  0.00     0.153 C 
BRANCH   6   7
HETATM    7  C   UNL     1      43.935 -18.301   4.126  1.00  0.00     0.018 A 
HETATM    8  C   UNL     1      44.563 -18.539   5.344  1.00  0.00     0.018 A 
HETATM    9  C   UNL     1      44.817 -17.645   6.508  1.00  0.00     0.069 C 
HETATM   10  N   UNL     1      44.969 -19.850   5.358  1.00  0.00    -0.358 N 
HETATM   11  H   UNL     1      45.448 -20.299   6.124  1.00  0.00     0.166 HD
HETATM   12  C   UNL     1      44.617 -20.479   4.188  1.00  0.00     0.043 A 
HETATM   13  C   UNL     1      43.973 -19.532   3.391  1.00  0.00     0.004 A 
HETATM   14  C   UNL     1      44.815 -21.805   3.789  1.00  0.00     0.030 A 
HETATM   15  C   UNL     1      43.500 -19.941   2.124  1.00  0.00     0.014 A 
HETATM   16  C   UNL     1      43.687 -21.265   1.709  1.00  0.00     0.001 A 
HETATM   17  C   UNL     1      44.336 -22.182   2.531  1.00  0.00     0.002 A 
ENDBRANCH   6   7
ENDBRANCH   1   5
BRANCH   2  18
HETATM   18  C   UNL     1      40.152 -14.439   1.676  1.00  0.00     0.227 C 
BRANCH  18  19
HETATM   19  N   UNL     1      39.035 -14.412   0.740  1.00  0.00    -0.348 N 
HETATM   20  C   UNL     1      38.958 -13.925  -0.538  1.00  0.00     0.254 C 
HETATM   21  O   UNL     1      37.934 -14.084  -1.195  1.00  0.00    -0.268 OA
HETATM   22  H   UNL     1      38.180 -14.871   1.037  1.00  0.00     0.163 HD
BRANCH  20  23
HETATM   23  C   UNL     1      40.083 -13.161  -1.105  1.00  0.00     0.065 A 
HETATM   24  C   UNL     1      41.195 -13.846  -1.610  1.00  0.00     0.084 A 
HETATM   25  C   UNL     1      42.265 -13.142  -2.161  1.00  0.00     0.038 A 
HETATM   26  C   UNL     1      42.240 -11.746  -2.170  1.00  0.00     0.003 A 
HETATM   27  C   UNL     1      41.149 -11.059  -1.631  1.00  0.00     0.001 A 
HETATM   28  C   UNL     1      40.072 -11.764  -1.090  1.00  0.00     0.020 A 
BRANCH  24  29
HETATM   29  O   UNL     1      41.213 -15.217  -1.656  1.00  0.00    -0.355 OA
HETATM   30  C   UNL     1      40.988 -15.655  -3.003  1.00  0.00     0.210 C 
ENDBRANCH  24  29
ENDBRANCH  20  23
ENDBRANCH  18  19
ENDBRANCH   2  18
TORSDOF 6
ENDMDL
MODEL 7
REMARK VINA RESULT:      -8.1      4.000      5.549
REMARK  6 active torsions:
REMARK  status: ('A' for Active; 'I' for Inactive)
REMARK    1  A    between atoms: C_7  and  C_8 
REMARK    2  A    between atoms: N_9  and  N_10 
REMARK       I    between atoms: N_10  and  C_11 
REMARK    3  A    between atoms: C_11  and  C_12 
REMARK    4  A    between atoms: C_12  and  N_13 
REMARK       I    between atoms: N_13  and  C_14 
REMARK    5  A    between atoms: C_14  and  C_15 
REMARK    6  A    between atoms: C_16  and  O_17 
ROOT
HETATM    1  N   UNL     1      39.502 -12.211   8.189  1.00  0.00    -0.246 N 
HETATM    2  C   UNL     1      39.358 -10.938   8.716  1.00  0.00     0.255 C 
HETATM    3  O   UNL     1      38.851  -9.986   8.119  1.00  0.00    -0.270 OA
HETATM    4  H   UNL     1      39.969 -12.945   8.715  1.00  0.00     0.192 HD
ENDROOT
BRANCH   1   5
HETATM    5  N   UNL     1      39.087 -12.446   6.912  1.00  0.00    -0.184 NA
HETATM    6  C   UNL     1      40.013 -12.612   6.024  1.00  0.00     0.153 C 
BRANCH   6   7
HETATM    7  C   UNL     1      39.640 -12.828   4.636  1.00  0.00     0.018 A 
HETATM    8  C   UNL     1      38.950 -11.946   3.811  1.00  0.00     0.018 A 
HETATM    9  C   UNL     1      38.395 -10.590   4.072  1.00  0.00     0.069 C 
HETATM   10  N   UNL     1      38.829 -12.534   2.577  1.00  0.00    -0.358 N 
HETATM   11  H   UNL     1      38.375 -12.115   1.779  1.00  0.00     0.166 HD
HETATM   12  C   UNL     1      39.425 -13.772   2.569  1.00  0.00     0.043 A 
HETATM   13  C   UNL     1      39.938 -13.989   3.848  1.00  0.00     0.004 A 
HETATM   14  C   UNL     1      39.552 -14.700   1.529  1.00  0.00     0.030 A 
HETATM   15  C   UNL     1      40.617 -15.203   4.096  1.00  0.00     0.014 A 
HETATM   16  C   UNL     1      40.755 -16.142   3.066  1.00  0.00     0.001 A 
HETATM   17  C   UNL     1      40.228 -15.891   1.801  1.00  0.00     0.002 A 
ENDBRANCH   6   7
ENDBRANCH   1   5
BRANCH   2  18
HETATM   18  C   UNL     1      40.069 -10.716  10.050  1.00  0.00     0.227 C 
BRANCH  18  19
HETATM   19  N   UNL     1      39.857 -11.726  11.080  1.00  0.00    -0.348 N 
HETATM   20  C   UNL     1      40.300 -11.781  12.374  1.00  0.00     0.254 C 
HETATM   21  O   UNL     1      39.929 -12.688  13.112  1.00  0.00    -0.268 OA
HETATM   22  H   UNL     1      39.241 -12.497  10.843  1.00  0.00     0.163 HD
BRANCH  20  23
HETATM   23  C   UNL     1      41.265 -10.782  12.868  1.00  0.00     0.065 A 
HETATM   24  C   UNL     1      42.612 -10.888  12.502  1.00  0.00     0.084 A 
HETATM   25  C   UNL     1      43.539  -9.947  12.949  1.00  0.00     0.038 A 
HETATM   26  C   UNL     1      43.123  -8.920  13.799  1.00  0.00     0.003 A 
HETATM   27  C   UNL     1      41.787  -8.835  14.198  1.00  0.00     0.001 A 
HETATM   28  C   UNL     1      40.856  -9.770  13.740  1.00  0.00     0.020 A 
BRANCH  24  29
HETATM   29  O   UNL     1      43.028 -11.859  11.627  1.00  0.00    -0.355 OA
HETATM   30  C   UNL     1      44.126 -11.366  10.848  1.00  0.00     0.210 C 
ENDBRANCH  24  29
ENDBRANCH  20  23
ENDBRANCH  18  19
ENDBRANCH   2  18
TORSDOF 6
ENDMDL
MODEL 8
REMARK VINA RESULT:      -8.0      3.779      5.662
REMARK  6 active torsions:
REMARK  status: ('A' for Active; 'I' for Inactive)
REMARK    1  A    between atoms: C_7  and  C_8 
REMARK    2  A    between atoms: N_9  and  N_10 
REMARK       I    between atoms: N_10  and  C_11 
REMARK    3  A    between atoms: C_11  and  C_12 
REMARK    4  A    between atoms: C_12  and  N_13 
REMARK       I    between atoms: N_13  and  C_14 
REMARK    5  A    between atoms: C_14  and  C_15 
REMARK    6  A    between atoms: C_16  and  O_17 
ROOT
HETATM    1  N   UNL     1      42.602 -14.747   5.741  1.00  0.00    -0.246 N 
HETATM    2  C   UNL     1      42.981 -13.627   5.020  1.00  0.00     0.255 C 
HETATM    3  O   UNL     1      43.939 -13.582   4.246  1.00  0.00    -0.270 OA
HETATM    4  H   UNL     1      41.827 -14.709   6.398  1.00  0.00     0.192 HD
ENDROOT
BRANCH   1   5
HETATM    5  N   UNL     1      43.344 -15.885   5.627  1.00  0.00    -0.184 NA
HETATM    6  C   UNL     1      42.697 -16.975   5.370  1.00  0.00     0.153 C 
BRANCH   6   7
HETATM    7  C   UNL     1      43.422 -18.230   5.273  1.00  0.00     0.018 A 
HETATM    8  C   UNL     1      44.063 -18.905   6.307  1.00  0.00     0.018 A 
HETATM    9  C   UNL     1      44.215 -18.571   7.750  1.00  0.00     0.069 C 
HETATM   10  N   UNL     1      44.601 -20.055   5.787  1.00  0.00    -0.358 N 
HETATM   11  H   UNL     1      45.119 -20.741   6.315  1.00  0.00     0.166 HD
HETATM   12  C   UNL     1      44.324 -20.157   4.445  1.00  0.00     0.043 A 
HETATM   13  C   UNL     1      43.591 -19.024   4.090  1.00  0.00     0.004 A 
HETATM   14  C   UNL     1      44.660 -21.164   3.534  1.00  0.00     0.030 A 
HETATM   15  C   UNL     1      43.172 -18.896   2.747  1.00  0.00     0.014 A 
HETATM   16  C   UNL     1      43.497 -19.896   1.822  1.00  0.00     0.001 A 
HETATM   17  C   UNL     1      44.231 -21.013   2.213  1.00  0.00     0.002 A 
ENDBRANCH   6   7
ENDBRANCH   1   5
BRANCH   2  18
HETATM   18  C   UNL     1      42.242 -12.344   5.400  1.00  0.00     0.227 C 
BRANCH  18  19
HETATM   19  N   UNL     1      41.059 -12.496   6.239  1.00  0.00    -0.348 N 
HETATM   20  C   UNL     1      39.736 -12.595   5.900  1.00  0.00     0.254 C 
HETATM   21  O   UNL     1      38.895 -12.810   6.767  1.00  0.00    -0.268 OA
HETATM   22  H   UNL     1      41.218 -12.602   7.236  1.00  0.00     0.163 HD
BRANCH  20  23
HETATM   23  C   UNL     1      39.315 -12.390   4.503  1.00  0.00     0.065 A 
HETATM   24  C   UNL     1      39.492 -13.420   3.572  1.00  0.00     0.084 A 
HETATM   25  C   UNL     1      39.090 -13.249   2.248  1.00  0.00     0.038 A 
HETATM   26  C   UNL     1      38.547 -12.028   1.845  1.00  0.00     0.003 A 
HETATM   27  C   UNL     1      38.405 -10.984   2.763  1.00  0.00     0.001 A 
HETATM   28  C   UNL     1      38.796 -11.159   4.092  1.00  0.00     0.020 A 
BRANCH  24  29
HETATM   29  O   UNL     1      39.976 -14.643   3.962  1.00  0.00    -0.355 OA
HETATM   30  C   UNL     1      40.440 -15.365   2.813  1.00  0.00     0.210 C 
ENDBRANCH  24  29
ENDBRANCH  20  23
ENDBRANCH  18  19
ENDBRANCH   2  18
TORSDOF 6
ENDMDL
MODEL 9
REMARK VINA RESULT:      -8.0      5.292      9.706
REMARK  6 active torsions:
REMARK  status: ('A' for Active; 'I' for Inactive)
REMARK    1  A    between atoms: C_7  and  C_8 
REMARK    2  A    between atoms: N_9  and  N_10 
REMARK       I    between atoms: N_10  and  C_11 
REMARK    3  A    between atoms: C_11  and  C_12 
REMARK    4  A    between atoms: C_12  and  N_13 
REMARK       I    between atoms: N_13  and  C_14 
REMARK    5  A    between atoms: C_14  and  C_15 
REMARK    6  A    between atoms: C_16  and  O_17 
ROOT
HETATM    1  N   UNL     1      42.855 -16.690   0.819  1.00  0.00    -0.246 N 
HETATM    2  C   UNL     1      41.956 -15.654   1.010  1.00  0.00     0.255 C 
HETATM    3  O   UNL     1      41.682 -15.156   2.103  1.00  0.00    -0.270 OA
HETATM    4  H   UNL     1      43.006 -17.088  -0.104  1.00  0.00     0.192 HD
ENDROOT
BRANCH   1   5
HETATM    5  N   UNL     1      43.472 -17.234   1.907  1.00  0.00    -0.184 NA
HETATM    6  C   UNL     1      42.823 -18.156   2.540  1.00  0.00     0.153 C 
BRANCH   6   7
HETATM    7  C   UNL     1      43.407 -18.751   3.730  1.00  0.00     0.018 A 
HETATM    8  C   UNL     1      44.257 -19.851   3.780  1.00  0.00     0.018 A 
HETATM    9  C   UNL     1      44.795 -20.725   2.701  1.00  0.00     0.069 C 
HETATM   10  N   UNL     1      44.589 -20.065   5.094  1.00  0.00    -0.358 N 
HETATM   11  H   UNL     1      45.200 -20.797   5.425  1.00  0.00     0.166 HD
HETATM   12  C   UNL     1      43.987 -19.132   5.904  1.00  0.00     0.043 A 
HETATM   13  C   UNL     1      43.232 -18.297   5.079  1.00  0.00     0.004 A 
HETATM   14  C   UNL     1      44.063 -18.967   7.292  1.00  0.00     0.030 A 
HETATM   15  C   UNL     1      42.517 -17.238   5.680  1.00  0.00     0.014 A 
HETATM   16  C   UNL     1      42.584 -17.055   7.067  1.00  0.00     0.001 A 
HETATM   17  C   UNL     1      43.347 -17.910   7.859  1.00  0.00     0.002 A 
ENDBRANCH   6   7
ENDBRANCH   1   5
BRANCH   2  18
HETATM   18  C   UNL     1      41.141 -15.282  -0.229  1.00  0.00     0.227 C 
BRANCH  18  19
HETATM   19  N   UNL     1      41.864 -14.637  -1.318  1.00  0.00    -0.348 N 
HETATM   20  C   UNL     1      41.429 -14.214  -2.546  1.00  0.00     0.254 C 
HETATM   21  O   UNL     1      42.190 -13.605  -3.291  1.00  0.00    -0.268 OA
HETATM   22  H   UNL     1      42.836 -14.401  -1.144  1.00  0.00     0.163 HD
BRANCH  20  23
HETATM   23  C   UNL     1      40.064 -14.538  -2.997  1.00  0.00     0.065 A 
HETATM   24  C   UNL     1      38.997 -13.724  -2.600  1.00  0.00     0.084 A 
HETATM   25  C   UNL     1      37.699 -14.007  -3.025  1.00  0.00     0.038 A 
HETATM   26  C   UNL     1      37.463 -15.133  -3.815  1.00  0.00     0.003 A 
HETATM   27  C   UNL     1      38.521 -15.971  -4.180  1.00  0.00     0.001 A 
HETATM   28  C   UNL     1      39.822 -15.680  -3.765  1.00  0.00     0.020 A 
BRANCH  24  29
HETATM   29  O   UNL     1      39.217 -12.585  -1.867  1.00  0.00    -0.355 OA
HETATM   30  C   UNL     1      38.045 -12.271  -1.103  1.00  0.00     0.210 C 
ENDBRANCH  24  29
ENDBRANCH  20  23
ENDBRANCH  18  19
ENDBRANCH   2  18
TORSDOF 6
ENDMDL
MODEL 10
REMARK VINA RESULT:      -7.9      4.380      7.686
REMARK  6 active torsions:
REMARK  status: ('A' for Active; 'I' for Inactive)
REMARK    1  A    between atoms: C_7  and  C_8 
REMARK    2  A    between atoms: N_9  and  N_10 
REMARK       I    between atoms: N_10  and  C_11 
REMARK    3  A    between atoms: C_11  and  C_12 
REMARK    4  A    between atoms: C_12  and  N_13 
REMARK       I    between atoms: N_13  and  C_14 
REMARK    5  A    between atoms: C_14  and  C_15 
REMARK    6  A    between atoms: C_16  and  O_17 
ROOT
HETATM    1  N   UNL     1      42.127 -14.255   3.411  1.00  0.00    -0.246 N 
HETATM    2  C   UNL     1      43.175 -13.888   4.239  1.00  0.00     0.255 C 
HETATM    3  O   UNL     1      44.292 -13.548   3.847  1.00  0.00    -0.270 OA
HETATM    4  H   UNL     1      41.240 -14.568   3.797  1.00  0.00     0.192 HD
ENDROOT
BRANCH   1   5
HETATM    5  N   UNL     1      42.331 -14.279   2.063  1.00  0.00    -0.184 NA
HETATM    6  C   UNL     1      41.683 -13.404   1.364  1.00  0.00     0.153 C 
BRANCH   6   7
HETATM    7  C   UNL     1      41.825 -13.399  -0.081  1.00  0.00     0.018 A 
HETATM    8  C   UNL     1      41.599 -14.465  -0.945  1.00  0.00     0.018 A 
HETATM    9  C   UNL     1      41.180 -15.869  -0.681  1.00  0.00     0.069 C 
HETATM   10  N   UNL     1      41.828 -14.024  -2.224  1.00  0.00    -0.358 N 
HETATM   11  H   UNL     1      41.733 -14.588  -3.056  1.00  0.00     0.166 HD
HETATM   12  C   UNL     1      42.190 -12.699  -2.223  1.00  0.00     0.043 A 
HETATM   13  C   UNL     1      42.204 -12.278  -0.893  1.00  0.00     0.004 A 
HETATM   14  C   UNL     1      42.493 -11.852  -3.295  1.00  0.00     0.030 A 
HETATM   15  C   UNL     1      42.540 -10.933  -0.624  1.00  0.00     0.014 A 
HETATM   16  C   UNL     1      42.844 -10.070  -1.685  1.00  0.00     0.001 A 
HETATM   17  C   UNL     1      42.821 -10.526  -3.000  1.00  0.00     0.002 A 
ENDBRANCH   6   7
ENDBRANCH   1   5
BRANCH   2  18
HETATM   18  C   UNL     1      42.924 -14.128   5.728  1.00  0.00     0.227 C 
BRANCH  18  19
HETATM   19  N   UNL     1      41.764 -14.940   6.073  1.00  0.00    -0.348 N 
HETATM   20  C   UNL     1      41.656 -16.287   6.294  1.00  0.00     0.254 C 
HETATM   21  O   UNL     1      40.590 -16.766   6.666  1.00  0.00    -0.268 OA
HETATM   22  H   UNL     1      40.893 -14.446   6.236  1.00  0.00     0.163 HD
BRANCH  20  23
HETATM   23  C   UNL     1      42.806 -17.172   6.031  1.00  0.00     0.065 A 
HETATM   24  C   UNL     1      42.997 -17.688   4.744  1.00  0.00     0.084 A 
HETATM   25  C   UNL     1      44.084 -18.519   4.473  1.00  0.00     0.038 A 
HETATM   26  C   UNL     1      44.959 -18.866   5.503  1.00  0.00     0.003 A 
HETATM   27  C   UNL     1      44.749 -18.384   6.798  1.00  0.00     0.001 A 
HETATM   28  C   UNL     1      43.667 -17.543   7.067  1.00  0.00     0.020 A 
BRANCH  24  29
HETATM   29  O   UNL     1      42.177 -17.316   3.709  1.00  0.00    -0.355 OA
HETATM   30  C   UNL     1      42.623 -17.936   2.496  1.00  0.00     0.210 C 
ENDBRANCH  24  29
ENDBRANCH  20  23
ENDBRANCH  18  19
ENDBRANCH   2  18
TORSDOF 6
ENDMDL
