MODEL 1
REMARK VINA RESULT:      -8.1      0.000      0.000
REMARK  5 active torsions:
REMARK  status: ('A' for Active; 'I' for Inactive)
REMARK    1  A    between atoms: C_2  and  C_3 
REMARK    2  A    between atoms: C_3  and  N_4 
REMARK       I    between atoms: N_4  and  C_5 
REMARK    3  A    between atoms: C_5  and  C_6 
REMARK    4  A    between atoms: C_10  and  N_11 
REMARK       I    between atoms: N_11  and  C_12 
REMARK       I    between atoms: C_12  and  N_13 
REMARK    5  A    between atoms: N_13  and  C_14 
ROOT
HETATM    1  C   UNL     1      43.361 -16.571   4.773  1.00  0.00     0.053 A 
HETATM    2  C   UNL     1      43.303 -15.189   4.560  1.00  0.00     0.051 A 
HETATM    3 CL   UNL     1      42.782 -14.476   3.070  1.00  0.00    -0.083 Cl
HETATM    4  C   UNL     1      43.631 -14.300   5.596  1.00  0.00     0.054 A 
HETATM    5  C   UNL     1      44.018 -14.775   6.852  1.00  0.00     0.038 A 
HETATM    6  C   UNL     1      44.065 -16.154   7.068  1.00  0.00     0.030 A 
HETATM    7  C   UNL     1      43.738 -17.043   6.040  1.00  0.00     0.021 A 
ENDROOT
BRANCH   5   8
HETATM    8  N   UNL     1      44.320 -13.940   7.946  1.00  0.00    -0.309 N 
HETATM    9  C   UNL     1      45.336 -13.025   8.041  1.00  0.00     0.325 C 
HETATM   10  N   UNL     1      45.303 -12.191   9.126  1.00  0.00    -0.306 N 
HETATM   11  O   UNL     1      46.285 -12.934   7.266  1.00  0.00    -0.247 OA
HETATM   12  H   UNL     1      46.161 -11.665   9.243  1.00  0.00     0.171 HD
HETATM   13  H   UNL     1      43.880 -14.172   8.824  1.00  0.00     0.170 HD
BRANCH  10  14
HETATM   14  C   UNL     1      44.253 -11.852   9.956  1.00  0.00     0.072 A 
HETATM   15  C   UNL     1      43.157 -10.972   9.813  1.00  0.00     0.169 A 
HETATM   16  N   UNL     1      42.366 -10.957  10.890  1.00  0.00    -0.185 NA
HETATM   17  N   UNL     1      42.981 -11.791  11.744  1.00  0.00    -0.287 N 
HETATM   18  H   UNL     1      42.567 -11.931  12.661  1.00  0.00     0.188 HD
HETATM   19  C   UNL     1      44.120 -12.343  11.235  1.00  0.00     0.140 A 
ENDBRANCH  10  14
ENDBRANCH   5   8
BRANCH   1  20
HETATM   20  C   UNL     1      43.005 -17.611   3.766  1.00  0.00     0.253 C 
HETATM   21  N   UNL     1      44.009 -18.450   3.334  1.00  0.00    -0.356 N 
HETATM   22  H   UNL     1      44.962 -18.192   3.561  1.00  0.00     0.162 HD
HETATM   23  O   UNL     1      41.840 -17.704   3.391  1.00  0.00    -0.268 OA
BRANCH  21  24
HETATM   24  C   UNL     1      43.801 -19.347   2.213  1.00  0.00     0.126 C 
BRANCH  24  25
HETATM   25  C   UNL     1      44.545 -20.680   2.370  1.00  0.00    -0.005 C 
HETATM   26  C   UNL     1      43.797 -21.842   1.711  1.00  0.00     0.011 C 
HETATM   27  C   UNL     1      44.758 -20.982   3.854  1.00  0.00     0.011 C 
ENDBRANCH  24  25
ENDBRANCH  21  24
ENDBRANCH   1  20
TORSDOF 5
ENDMDL
MODEL 2
REMARK VINA RESULT:      -7.8      5.646      8.875
REMARK  5 active torsions:
REMARK  status: ('A' for Active; 'I' for Inactive)
REMARK    1  A    between atoms: C_2  and  C_3 
REMARK    2  A    between atoms: C_3  and  N_4 
REMARK       I    between atoms: N_4  and  C_5 
REMARK    3  A    between atoms: C_5  and  C_6 
REMARK    4  A    between atoms: C_10  and  N_11 
REMARK       I    between atoms: N_11  and  C_12 
REMARK       I    between atoms: C_12  and  N_13 
REMARK    5  A    between atoms: N_13  and  C_14 
ROOT
HETATM    1  C   UNL     1      41.883 -17.355   3.150  1.00  0.00     0.053 A 
HETATM    2  C   UNL     1      41.134 -16.191   3.362  1.00  0.00     0.051 A 
HETATM    3 CL   UNL     1      40.884 -15.493   4.927  1.00  0.00    -0.083 Cl
HETATM    4  C   UNL     1      40.578 -15.500   2.274  1.00  0.00     0.054 A 
HETATM    5  C   UNL     1      40.762 -15.956   0.966  1.00  0.00     0.038 A 
HETATM    6  C   UNL     1      41.519 -17.110   0.752  1.00  0.00     0.030 A 
HETATM    7  C   UNL     1      42.076 -17.801   1.832  1.00  0.00     0.021 A 
ENDROOT
BRANCH   5   8
HETATM    8  N   UNL     1      40.267 -15.289  -0.173  1.00  0.00    -0.309 N 
HETATM    9  C   UNL     1      40.886 -14.305  -0.897  1.00  0.00     0.325 C 
HETATM   10  N   UNL     1      40.291 -13.955  -2.079  1.00  0.00    -0.306 N 
HETATM   11  O   UNL     1      41.889 -13.688  -0.545  1.00  0.00    -0.247 OA
HETATM   12  H   UNL     1      40.682 -13.111  -2.480  1.00  0.00     0.171 HD
HETATM   13  H   UNL     1      39.281 -15.394  -0.362  1.00  0.00     0.170 HD
BRANCH  10  14
HETATM   14  C   UNL     1      39.386 -14.648  -2.859  1.00  0.00     0.072 A 
HETATM   15  C   UNL     1      39.529 -15.671  -3.823  1.00  0.00     0.169 A 
HETATM   16  N   UNL     1      38.359 -16.058  -4.338  1.00  0.00    -0.185 NA
HETATM   17  N   UNL     1      37.469 -15.249  -3.742  1.00  0.00    -0.287 N 
HETATM   18  H   UNL     1      36.489 -15.344  -3.992  1.00  0.00     0.188 HD
HETATM   19  C   UNL     1      38.036 -14.380  -2.856  1.00  0.00     0.140 A 
ENDBRANCH  10  14
ENDBRANCH   5   8
BRANCH   1  20
HETATM   20  C   UNL     1      42.550 -18.154   4.216  1.00  0.00     0.253 C 
HETATM   21  N   UNL     1      43.876 -18.478   4.034  1.00  0.00    -0.356 N 
HETATM   22  H   UNL     1      44.268 -18.338   3.111  1.00  0.00     0.162 HD
HETATM   23  O   UNL     1      41.913 -18.460   5.220  1.00  0.00    -0.268 OA
BRANCH  21  24
HETATM   24  C   UNL     1      44.542 -19.420   4.914  1.00  0.00     0.126 C 
BRANCH  24  25
HETATM   25  C   UNL     1      45.121 -20.629   4.167  1.00  0.00    -0.005 C 
HETATM   26  C   UNL     1      44.504 -20.801   2.777  1.00  0.00     0.011 C 
HETATM   27  C   UNL     1      44.898 -21.899   4.989  1.00  0.00     0.011 C 
ENDBRANCH  24  25
ENDBRANCH  21  24
ENDBRANCH   1  20
TORSDOF 5
ENDMDL
MODEL 3
REMARK VINA RESULT:      -7.5      5.739      8.943
REMARK  5 active torsions:
REMARK  status: ('A' for Active; 'I' for Inactive)
REMARK    1  A    between atoms: C_2  and  C_3 
REMARK    2  A    between atoms: C_3  and  N_4 
REMARK       I    between atoms: N_4  and  C_5 
REMARK    3  A    between atoms: C_5  and  C_6 
REMARK    4  A    between atoms: C_10  and  N_11 
REMARK       I    between atoms: N_11  and  C_12 
REMARK       I    between atoms: C_12  and  N_13 
REMARK    5  A    between atoms: N_13  and  C_14 
ROOT
HETATM    1  C   UNL     1      42.065 -17.266   2.864  1.00  0.00     0.053 A 
HETATM    2  C   UNL     1      42.743 -16.979   1.673  1.00  0.00     0.051 A 
HETATM    3 CL   UNL     1      44.364 -17.497   1.351  1.00  0.00    -0.083 Cl
HETATM    4  C   UNL     1      42.095 -16.278   0.643  1.00  0.00     0.054 A 
HETATM    5  C   UNL     1      40.770 -15.857   0.786  1.00  0.00     0.038 A 
HETATM    6  C   UNL     1      40.090 -16.153   1.970  1.00  0.00     0.030 A 
HETATM    7  C   UNL     1      40.730 -16.853   2.997  1.00  0.00     0.021 A 
ENDROOT
BRANCH   5   8
HETATM    8  N   UNL     1      40.048 -15.187  -0.221  1.00  0.00    -0.309 N 
HETATM    9  C   UNL     1      40.215 -13.895  -0.647  1.00  0.00     0.325 C 
HETATM   10  N   UNL     1      39.531 -13.535  -1.777  1.00  0.00    -0.306 N 
HETATM   11  O   UNL     1      40.880 -13.037  -0.071  1.00  0.00    -0.247 OA
HETATM   12  H   UNL     1      39.545 -12.535  -1.942  1.00  0.00     0.171 HD
HETATM   13  H   UNL     1      39.190 -15.622  -0.525  1.00  0.00     0.170 HD
BRANCH  10  14
HETATM   14  C   UNL     1      38.986 -14.318  -2.775  1.00  0.00     0.072 A 
HETATM   15  C   UNL     1      37.656 -14.621  -3.144  1.00  0.00     0.169 A 
HETATM   16  N   UNL     1      37.590 -15.439  -4.198  1.00  0.00    -0.185 NA
HETATM   17  N   UNL     1      38.877 -15.701  -4.476  1.00  0.00    -0.287 N 
HETATM   18  H   UNL     1      39.085 -16.329  -5.246  1.00  0.00     0.188 HD
HETATM   19  C   UNL     1      39.750 -15.061  -3.645  1.00  0.00     0.140 A 
ENDBRANCH  10  14
ENDBRANCH   5   8
BRANCH   1  20
HETATM   20  C   UNL     1      42.631 -18.031   4.011  1.00  0.00     0.253 C 
HETATM   21  N   UNL     1      43.964 -18.372   3.954  1.00  0.00    -0.356 N 
HETATM   22  H   UNL     1      44.434 -18.271   3.062  1.00  0.00     0.162 HD
HETATM   23  O   UNL     1      41.909 -18.294   4.968  1.00  0.00    -0.268 OA
BRANCH  21  24
HETATM   24  C   UNL     1      44.543 -19.287   4.920  1.00  0.00     0.126 C 
BRANCH  24  25
HETATM   25  C   UNL     1      45.138 -20.543   4.272  1.00  0.00    -0.005 C 
HETATM   26  C   UNL     1      44.582 -20.790   2.868  1.00  0.00     0.011 C 
HETATM   27  C   UNL     1      44.862 -21.761   5.156  1.00  0.00     0.011 C 
ENDBRANCH  24  25
ENDBRANCH  21  24
ENDBRANCH   1  20
TORSDOF 5
ENDMDL
MODEL 4
REMARK VINA RESULT:      -7.4      5.153      9.056
REMARK  5 active torsions:
REMARK  status: ('A' for Active; 'I' for Inactive)
REMARK    1  A    between atoms: C_2  and  C_3 
REMARK    2  A    between atoms: C_3  and  N_4 
REMARK       I    between atoms: N_4  and  C_5 
REMARK    3  A    between atoms: C_5  and  C_6 
REMARK    4  A    between atoms: C_10  and  N_11 
REMARK       I    between atoms: N_11  and  C_12 
REMARK       I    between atoms: C_12  and  N_13 
REMARK    5  A    between atoms: N_13  and  C_14 
ROOT
HETATM    1  C   UNL     1      42.793 -17.792   2.897  1.00  0.00     0.053 A 
HETATM    2  C   UNL     1      41.554 -17.210   3.189  1.00  0.00     0.051 A 
HETATM    3 CL   UNL     1      40.848 -17.214   4.771  1.00  0.00    -0.083 Cl
HETATM    4  C   UNL     1      40.835 -16.537   2.187  1.00  0.00     0.054 A 
HETATM    5  C   UNL     1      41.340 -16.437   0.888  1.00  0.00     0.038 A 
HETATM    6  C   UNL     1      42.582 -17.007   0.599  1.00  0.00     0.030 A 
HETATM    7  C   UNL     1      43.302 -17.676   1.593  1.00  0.00     0.021 A 
ENDROOT
BRANCH   5   8
HETATM    8  N   UNL     1      40.692 -15.743  -0.153  1.00  0.00    -0.309 N 
HETATM    9  C   UNL     1      41.044 -14.536  -0.696  1.00  0.00     0.325 C 
HETATM   10  N   UNL     1      40.377 -14.163  -1.832  1.00  0.00    -0.306 N 
HETATM   11  O   UNL     1      41.862 -13.753  -0.219  1.00  0.00    -0.247 OA
HETATM   12  H   UNL     1      40.544 -13.196  -2.085  1.00  0.00     0.171 HD
HETATM   13  H   UNL     1      39.762 -16.056  -0.391  1.00  0.00     0.170 HD
BRANCH  10  14
HETATM   14  C   UNL     1      39.670 -14.926  -2.740  1.00  0.00     0.072 A 
HETATM   15  C   UNL     1      38.359 -14.837  -3.260  1.00  0.00     0.169 A 
HETATM   16  N   UNL     1      38.088 -15.808  -4.137  1.00  0.00    -0.185 NA
HETATM   17  N   UNL     1      39.208 -16.549  -4.144  1.00  0.00    -0.287 N 
HETATM   18  H   UNL     1      39.235 -17.374  -4.736  1.00  0.00     0.188 HD
HETATM   19  C   UNL     1      40.180 -16.068  -3.315  1.00  0.00     0.140 A 
ENDBRANCH  10  14
ENDBRANCH   5   8
BRANCH   1  20
HETATM   20  C   UNL     1      43.662 -18.498   3.879  1.00  0.00     0.253 C 
HETATM   21  N   UNL     1      44.017 -17.817   5.022  1.00  0.00    -0.356 N 
HETATM   22  H   UNL     1      43.845 -16.819   5.042  1.00  0.00     0.162 HD
HETATM   23  O   UNL     1      43.997 -19.658   3.654  1.00  0.00    -0.268 OA
BRANCH  21  24
HETATM   24  C   UNL     1      45.021 -18.346   5.926  1.00  0.00     0.126 C 
BRANCH  24  25
HETATM   25  C   UNL     1      44.454 -18.699   7.308  1.00  0.00    -0.005 C 
HETATM   26  C   UNL     1      43.722 -20.043   7.308  1.00  0.00     0.011 C 
HETATM   27  C   UNL     1      43.502 -17.595   7.772  1.00  0.00     0.011 C 
ENDBRANCH  24  25
ENDBRANCH  21  24
ENDBRANCH   1  20
TORSDOF 5
ENDMDL
MODEL 5
REMARK VINA RESULT:      -7.1      4.954      7.460
REMARK  5 active torsions:
REMARK  status: ('A' for Active; 'I' for Inactive)
REMARK    1  A    between atoms: C_2  and  C_3 
REMARK    2  A    between atoms: C_3  and  N_4 
REMARK       I    between atoms: N_4  and  C_5 
REMARK    3  A    between atoms: C_5  and  C_6 
REMARK    4  A    between atoms: C_10  and  N_11 
REMARK       I    between atoms: N_11  and  C_12 
REMARK       I    between atoms: C_12  and  N_13 
REMARK    5  A    between atoms: N_13  and  C_14 
ROOT
HETATM    1  C   UNL     1      41.785 -15.661   0.841  1.00  0.00     0.053 A 
HETATM    2  C   UNL     1      42.434 -15.188   1.988  1.00  0.00     0.051 A 
HETATM    3 CL   UNL     1      42.662 -13.505   2.327  1.00  0.00    -0.083 Cl
HETATM    4  C   UNL     1      42.899 -16.090   2.959  1.00  0.00     0.054 A 
HETATM    5  C   UNL     1      42.723 -17.467   2.802  1.00  0.00     0.038 A 
HETATM    6  C   UNL     1      42.065 -17.938   1.664  1.00  0.00     0.030 A 
HETATM    7  C   UNL     1      41.598 -17.045   0.695  1.00  0.00     0.021 A 
ENDROOT
BRANCH   5   8
HETATM    8  N   UNL     1      43.128 -18.422   3.755  1.00  0.00    -0.309 N 
HETATM    9  C   UNL     1      44.096 -19.381   3.615  1.00  0.00     0.325 C 
HETATM   10  N   UNL     1      44.447 -20.060   4.751  1.00  0.00    -0.306 N 
HETATM   11  O   UNL     1      44.625 -19.707   2.556  1.00  0.00    -0.247 OA
HETATM   12  H   UNL     1      45.026 -20.870   4.561  1.00  0.00     0.171 HD
HETATM   13  H   UNL     1      42.515 -18.555   4.547  1.00  0.00     0.170 HD
BRANCH  10  14
HETATM   14  C   UNL     1      44.273 -19.723   6.079  1.00  0.00     0.072 A 
HETATM   15  C   UNL     1      44.640 -18.592   6.842  1.00  0.00     0.169 A 
HETATM   16  N   UNL     1      44.259 -18.689   8.119  1.00  0.00    -0.185 NA
HETATM   17  N   UNL     1      43.690 -19.903   8.187  1.00  0.00    -0.287 N 
HETATM   18  H   UNL     1      43.331 -20.216   9.084  1.00  0.00     0.188 HD
HETATM   19  C   UNL     1      43.683 -20.565   6.994  1.00  0.00     0.140 A 
ENDBRANCH  10  14
ENDBRANCH   5   8
BRANCH   1  20
HETATM   20  C   UNL     1      41.218 -14.806  -0.239  1.00  0.00     0.253 C 
HETATM   21  N   UNL     1      41.949 -14.678  -1.400  1.00  0.00    -0.356 N 
HETATM   22  H   UNL     1      42.911 -14.995  -1.383  1.00  0.00     0.162 HD
HETATM   23  O   UNL     1      40.120 -14.283  -0.073  1.00  0.00    -0.268 OA
BRANCH  21  24
HETATM   24  C   UNL     1      41.577 -13.709  -2.413  1.00  0.00     0.126 C 
BRANCH  24  25
HETATM   25  C   UNL     1      42.619 -12.596  -2.587  1.00  0.00    -0.005 C 
HETATM   26  C   UNL     1      42.613 -11.608  -1.418  1.00  0.00     0.011 C 
HETATM   27  C   UNL     1      42.361 -11.847  -3.896  1.00  0.00     0.011 C 
ENDBRANCH  24  25
ENDBRANCH  21  24
ENDBRANCH   1  20
TORSDOF 5
ENDMDL
MODEL 6
REMARK VINA RESULT:      -6.9      3.620      8.809
REMARK  5 active torsions:
REMARK  status: ('A' for Active; 'I' for Inactive)
REMARK    1  A    between atoms: C_2  and  C_3 
REMARK    2  A    between atoms: C_3  and  N_4 
REMARK       I    between atoms: N_4  and  C_5 
REMARK    3  A    between atoms: C_5  and  C_6 
REMARK    4  A    between atoms: C_10  and  N_11 
REMARK       I    between atoms: N_11  and  C_12 
REMARK       I    between atoms: C_12  and  N_13 
REMARK    5  A    between atoms: N_13  and  C_14 
ROOT
HETATM    1  C   UNL     1      41.451 -14.883   4.710  1.00  0.00     0.053 A 
HETATM    2  C   UNL     1      42.713 -15.244   5.195  1.00  0.00     0.051 A 
HETATM    3 CL   UNL     1      43.604 -14.292   6.336  1.00  0.00    -0.083 Cl
HETATM    4  C   UNL     1      43.303 -16.456   4.798  1.00  0.00     0.054 A 
HETATM    5  C   UNL     1      42.645 -17.317   3.917  1.00  0.00     0.038 A 
HETATM    6  C   UNL     1      41.380 -16.963   3.442  1.00  0.00     0.030 A 
HETATM    7  C   UNL     1      40.788 -15.759   3.836  1.00  0.00     0.021 A 
ENDROOT
BRANCH   5   8
HETATM    8  N   UNL     1      43.160 -18.564   3.510  1.00  0.00    -0.309 N 
HETATM    9  C   UNL     1      43.992 -18.816   2.451  1.00  0.00     0.325 C 
HETATM   10  N   UNL     1      44.517 -20.079   2.379  1.00  0.00    -0.306 N 
HETATM   11  O   UNL     1      44.256 -18.025   1.550  1.00  0.00    -0.247 OA
HETATM   12  H   UNL     1      44.973 -20.264   1.493  1.00  0.00     0.171 HD
HETATM   13  H   UNL     1      42.719 -19.383   3.903  1.00  0.00     0.170 HD
BRANCH  10  14
HETATM   14  C   UNL     1      44.657 -21.042   3.359  1.00  0.00     0.072 A 
HETATM   15  C   UNL     1      45.044 -20.986   4.717  1.00  0.00     0.169 A 
HETATM   16  N   UNL     1      45.037 -22.187   5.302  1.00  0.00    -0.185 NA
HETATM   17  N   UNL     1      44.693 -23.021   4.308  1.00  0.00    -0.287 N 
HETATM   18  H   UNL     1      44.638 -24.015   4.511  1.00  0.00     0.188 HD
HETATM   19  C   UNL     1      44.466 -22.385   3.122  1.00  0.00     0.140 A 
ENDBRANCH  10  14
ENDBRANCH   5   8
BRANCH   1  20
HETATM   20  C   UNL     1      40.709 -13.646   5.084  1.00  0.00     0.253 C 
HETATM   21  N   UNL     1      40.133 -13.602   6.334  1.00  0.00    -0.356 N 
HETATM   22  H   UNL     1      40.066 -14.472   6.848  1.00  0.00     0.162 HD
HETATM   23  O   UNL     1      40.669 -12.711   4.290  1.00  0.00    -0.268 OA
BRANCH  21  24
HETATM   24  C   UNL     1      39.225 -12.531   6.701  1.00  0.00     0.126 C 
BRANCH  24  25
HETATM   25  C   UNL     1      39.902 -11.433   7.533  1.00  0.00    -0.005 C 
HETATM   26  C   UNL     1      39.341 -11.354   8.954  1.00  0.00     0.011 C 
HETATM   27  C   UNL     1      39.733 -10.081   6.837  1.00  0.00     0.011 C 
ENDBRANCH  24  25
ENDBRANCH  21  24
ENDBRANCH   1  20
TORSDOF 5
ENDMDL
MODEL 7
REMARK VINA RESULT:      -6.6      4.799      6.293
REMARK  5 active torsions:
REMARK  status: ('A' for Active; 'I' for Inactive)
REMARK    1  A    between atoms: C_2  and  C_3 
REMARK    2  A    between atoms: C_3  and  N_4 
REMARK       I    between atoms: N_4  and  C_5 
REMARK    3  A    between atoms: C_5  and  C_6 
REMARK    4  A    between atoms: C_10  and  N_11 
REMARK       I    between atoms: N_11  and  C_12 
REMARK       I    between atoms: C_12  and  N_13 
REMARK    5  A    between atoms: N_13  and  C_14 
ROOT
HETATM    1  C   UNL     1      40.449 -14.482   1.324  1.00  0.00     0.053 A 
HETATM    2  C   UNL     1      41.626 -13.751   1.528  1.00  0.00     0.051 A 
HETATM    3 CL   UNL     1      42.137 -12.462   0.490  1.00  0.00    -0.083 Cl
HETATM    4  C   UNL     1      42.437 -14.015   2.644  1.00  0.00     0.054 A 
HETATM    5  C   UNL     1      42.087 -15.004   3.566  1.00  0.00     0.038 A 
HETATM    6  C   UNL     1      40.908 -15.725   3.370  1.00  0.00     0.030 A 
HETATM    7  C   UNL     1      40.095 -15.466   2.262  1.00  0.00     0.021 A 
ENDROOT
BRANCH   5   8
HETATM    8  N   UNL     1      42.833 -15.291   4.727  1.00  0.00    -0.309 N 
HETATM    9  C   UNL     1      42.888 -14.560   5.884  1.00  0.00     0.325 C 
HETATM   10  N   UNL     1      43.525 -15.148   6.944  1.00  0.00    -0.306 N 
HETATM   11  O   UNL     1      42.461 -13.416   6.024  1.00  0.00    -0.247 OA
HETATM   12  H   UNL     1      43.694 -14.502   7.707  1.00  0.00     0.171 HD
HETATM   13  H   UNL     1      43.557 -15.988   4.635  1.00  0.00     0.170 HD
BRANCH  10  14
HETATM   14  C   UNL     1      43.811 -16.477   7.184  1.00  0.00     0.072 A 
HETATM   15  C   UNL     1      44.740 -17.380   6.620  1.00  0.00     0.169 A 
HETATM   16  N   UNL     1      44.673 -18.596   7.170  1.00  0.00    -0.185 NA
HETATM   17  N   UNL     1      43.668 -18.487   8.054  1.00  0.00    -0.287 N 
HETATM   18  H   UNL     1      43.412 -19.308   8.594  1.00  0.00     0.188 HD
HETATM   19  C   UNL     1      43.113 -17.241   8.092  1.00  0.00     0.140 A 
ENDBRANCH  10  14
ENDBRANCH   5   8
BRANCH   1  20
HETATM   20  C   UNL     1      39.491 -14.273   0.202  1.00  0.00     0.253 C 
HETATM   21  N   UNL     1      39.865 -14.720  -1.046  1.00  0.00    -0.356 N 
HETATM   22  H   UNL     1      40.835 -14.977  -1.178  1.00  0.00     0.162 HD
HETATM   23  O   UNL     1      38.405 -13.750   0.434  1.00  0.00    -0.268 OA
BRANCH  21  24
HETATM   24  C   UNL     1      39.091 -14.376  -2.224  1.00  0.00     0.126 C 
BRANCH  24  25
HETATM   25  C   UNL     1      39.728 -14.883  -3.526  1.00  0.00    -0.005 C 
HETATM   26  C   UNL     1      38.957 -16.058  -4.129  1.00  0.00     0.011 C 
HETATM   27  C   UNL     1      41.177 -15.297  -3.264  1.00  0.00     0.011 C 
ENDBRANCH  24  25
ENDBRANCH  21  24
ENDBRANCH   1  20
TORSDOF 5
ENDMDL
MODEL 8
REMARK VINA RESULT:      -6.6      6.002      7.447
REMARK  5 active torsions:
REMARK  status: ('A' for Active; 'I' for Inactive)
REMARK    1  A    between atoms: C_2  and  C_3 
REMARK    2  A    between atoms: C_3  and  N_4 
REMARK       I    between atoms: N_4  and  C_5 
REMARK    3  A    between atoms: C_5  and  C_6 
REMARK    4  A    between atoms: C_10  and  N_11 
REMARK       I    between atoms: N_11  and  C_12 
REMARK       I    between atoms: C_12  and  N_13 
REMARK    5  A    between atoms: N_13  and  C_14 
ROOT
HETATM    1  C   UNL     1      43.101 -18.273   2.477  1.00  0.00     0.053 A 
HETATM    2  C   UNL     1      42.171 -17.634   3.306  1.00  0.00     0.051 A 
HETATM    3 CL   UNL     1      41.757 -18.204   4.888  1.00  0.00    -0.083 Cl
HETATM    4  C   UNL     1      41.555 -16.443   2.890  1.00  0.00     0.054 A 
HETATM    5  C   UNL     1      41.856 -15.876   1.649  1.00  0.00     0.038 A 
HETATM    6  C   UNL     1      42.792 -16.507   0.827  1.00  0.00     0.030 A 
HETATM    7  C   UNL     1      43.410 -17.691   1.237  1.00  0.00     0.021 A 
ENDROOT
BRANCH   5   8
HETATM    8  N   UNL     1      41.306 -14.663   1.188  1.00  0.00    -0.309 N 
HETATM    9  C   UNL     1      41.825 -13.404   1.332  1.00  0.00     0.325 C 
HETATM   10  N   UNL     1      41.209 -12.407   0.624  1.00  0.00    -0.306 N 
HETATM   11  O   UNL     1      42.753 -13.099   2.078  1.00  0.00    -0.247 OA
HETATM   12  H   UNL     1      41.513 -11.482   0.903  1.00  0.00     0.171 HD
HETATM   13  H   UNL     1      40.338 -14.689   0.901  1.00  0.00     0.170 HD
BRANCH  10  14
HETATM   14  C   UNL     1      40.390 -12.480  -0.486  1.00  0.00     0.072 A 
HETATM   15  C   UNL     1      38.987 -12.532  -0.646  1.00  0.00     0.169 A 
HETATM   16  N   UNL     1      38.620 -12.594  -1.929  1.00  0.00    -0.185 NA
HETATM   17  N   UNL     1      39.787 -12.633  -2.591  1.00  0.00    -0.287 N 
HETATM   18  H   UNL     1      39.764 -12.701  -3.604  1.00  0.00     0.188 HD
HETATM   19  C   UNL     1      40.876 -12.578  -1.770  1.00  0.00     0.140 A 
ENDBRANCH  10  14
ENDBRANCH   5   8
BRANCH   1  20
HETATM   20  C   UNL     1      43.844 -19.518   2.820  1.00  0.00     0.253 C 
HETATM   21  N   UNL     1      44.590 -19.516   3.978  1.00  0.00    -0.356 N 
HETATM   22  H   UNL     1      44.760 -18.622   4.422  1.00  0.00     0.162 HD
HETATM   23  O   UNL     1      43.739 -20.498   2.088  1.00  0.00    -0.268 OA
BRANCH  21  24
HETATM   24  C   UNL     1      45.503 -20.603   4.280  1.00  0.00     0.126 C 
BRANCH  24  25
HETATM   25  C   UNL     1      44.943 -21.581   5.320  1.00  0.00    -0.005 C 
HETATM   26  C   UNL     1      44.310 -22.815   4.674  1.00  0.00     0.011 C 
HETATM   27  C   UNL     1      43.908 -20.870   6.194  1.00  0.00     0.011 C 
ENDBRANCH  24  25
ENDBRANCH  21  24
ENDBRANCH   1  20
TORSDOF 5
ENDMDL
MODEL 9
REMARK VINA RESULT:      -6.6      2.732      3.115
REMARK  5 active torsions:
REMARK  status: ('A' for Active; 'I' for Inactive)
REMARK    1  A    between atoms: C_2  and  C_3 
REMARK    2  A    between atoms: C_3  and  N_4 
REMARK       I    between atoms: N_4  and  C_5 
REMARK    3  A    between atoms: C_5  and  C_6 
REMARK    4  A    between atoms: C_10  and  N_11 
REMARK       I    between atoms: N_11  and  C_12 
REMARK       I    between atoms: C_12  and  N_13 
REMARK    5  A    between atoms: N_13  and  C_14 
ROOT
HETATM    1  C   UNL     1      41.643 -15.739   4.018  1.00  0.00     0.053 A 
HETATM    2  C   UNL     1      42.650 -14.768   3.968  1.00  0.00     0.051 A 
HETATM    3 CL   UNL     1      43.952 -14.806   2.827  1.00  0.00    -0.083 Cl
HETATM    4  C   UNL     1      42.613 -13.667   4.838  1.00  0.00     0.054 A 
HETATM    5  C   UNL     1      41.578 -13.520   5.765  1.00  0.00     0.038 A 
HETATM    6  C   UNL     1      40.568 -14.482   5.808  1.00  0.00     0.030 A 
HETATM    7  C   UNL     1      40.597 -15.579   4.942  1.00  0.00     0.021 A 
ENDROOT
BRANCH   5   8
HETATM    8  N   UNL     1      41.459 -12.420   6.638  1.00  0.00    -0.309 N 
HETATM    9  C   UNL     1      40.890 -11.203   6.372  1.00  0.00     0.325 C 
HETATM   10  N   UNL     1      40.714 -10.367   7.443  1.00  0.00    -0.306 N 
HETATM   11  O   UNL     1      40.579 -10.791   5.257  1.00  0.00    -0.247 OA
HETATM   12  H   UNL     1      40.461  -9.425   7.168  1.00  0.00     0.171 HD
HETATM   13  H   UNL     1      42.024 -12.447   7.475  1.00  0.00     0.170 HD
BRANCH  10  14
HETATM   14  C   UNL     1      40.670 -10.650   8.794  1.00  0.00     0.072 A 
HETATM   15  C   UNL     1      41.642 -10.614   9.819  1.00  0.00     0.169 A 
HETATM   16  N   UNL     1      41.148 -10.973  11.007  1.00  0.00    -0.185 NA
HETATM   17  N   UNL     1      39.871 -11.287  10.737  1.00  0.00    -0.287 N 
HETATM   18  H   UNL     1      39.284 -11.613  11.499  1.00  0.00     0.188 HD
HETATM   19  C   UNL     1      39.539 -11.121   9.424  1.00  0.00     0.140 A 
ENDBRANCH  10  14
ENDBRANCH   5   8
BRANCH   1  20
HETATM   20  C   UNL     1      41.553 -16.930   3.128  1.00  0.00     0.253 C 
HETATM   21  N   UNL     1      42.542 -17.882   3.233  1.00  0.00    -0.356 N 
HETATM   22  H   UNL     1      43.375 -17.633   3.753  1.00  0.00     0.162 HD
HETATM   23  O   UNL     1      40.594 -17.036   2.367  1.00  0.00    -0.268 OA
BRANCH  21  24
HETATM   24  C   UNL     1      42.646 -18.962   2.270  1.00  0.00     0.126 C 
BRANCH  24  25
HETATM   25  C   UNL     1      43.951 -19.759   2.404  1.00  0.00    -0.005 C 
HETATM   26  C   UNL     1      43.809 -21.193   1.892  1.00  0.00     0.011 C 
HETATM   27  C   UNL     1      44.397 -19.776   3.867  1.00  0.00     0.011 C 
ENDBRANCH  24  25
ENDBRANCH  21  24
ENDBRANCH   1  20
TORSDOF 5
ENDMDL
MODEL 10
REMARK VINA RESULT:      -6.5      5.700      9.392
REMARK  5 active torsions:
REMARK  status: ('A' for Active; 'I' for Inactive)
REMARK    1  A    between atoms: C_2  and  C_3 
REMARK    2  A    between atoms: C_3  and  N_4 
REMARK       I    between atoms: N_4  and  C_5 
REMARK    3  A    between atoms: C_5  and  C_6 
REMARK    4  A    between atoms: C_10  and  N_11 
REMARK       I    between atoms: N_11  and  C_12 
REMARK       I    between atoms: C_12  and  N_13 
REMARK    5  A    between atoms: N_13  and  C_14 
ROOT
HETATM    1  C   UNL     1      40.946 -15.779   3.465  1.00  0.00     0.053 A 
HETATM    2  C   UNL     1      40.742 -14.417   3.211  1.00  0.00     0.051 A 
HETATM    3 CL   UNL     1      40.894 -13.190   4.424  1.00  0.00    -0.083 Cl
HETATM    4  C   UNL     1      40.443 -13.978   1.911  1.00  0.00     0.054 A 
HETATM    5  C   UNL     1      40.344 -14.885   0.853  1.00  0.00     0.038 A 
HETATM    6  C   UNL     1      40.559 -16.242   1.104  1.00  0.00     0.030 A 
HETATM    7  C   UNL     1      40.859 -16.685   2.395  1.00  0.00     0.021 A 
ENDROOT
BRANCH   5   8
HETATM    8  N   UNL     1      40.088 -14.508  -0.480  1.00  0.00    -0.309 N 
HETATM    9  C   UNL     1      40.956 -13.917  -1.360  1.00  0.00     0.325 C 
HETATM   10  N   UNL     1      40.536 -13.831  -2.661  1.00  0.00    -0.306 N 
HETATM   11  O   UNL     1      42.040 -13.421  -1.065  1.00  0.00    -0.247 OA
HETATM   12  H   UNL     1      41.128 -13.233  -3.225  1.00  0.00     0.171 HD
HETATM   13  H   UNL     1      39.119 -14.478  -0.761  1.00  0.00     0.170 HD
BRANCH  10  14
HETATM   14  C   UNL     1      39.561 -14.543  -3.330  1.00  0.00     0.072 A 
HETATM   15  C   UNL     1      39.547 -15.815  -3.945  1.00  0.00     0.169 A 
HETATM   16  N   UNL     1      38.361 -16.113  -4.482  1.00  0.00    -0.185 NA
HETATM   17  N   UNL     1      37.626 -15.012  -4.256  1.00  0.00    -0.287 N 
HETATM   18  H   UNL     1      36.670 -14.993  -4.597  1.00  0.00     0.188 HD
HETATM   19  C   UNL     1      38.304 -14.040  -3.579  1.00  0.00     0.140 A 
ENDBRANCH  10  14
ENDBRANCH   5   8
BRANCH   1  20
HETATM   20  C   UNL     1      41.302 -16.362   4.789  1.00  0.00     0.253 C 
HETATM   21  N   UNL     1      42.447 -17.123   4.863  1.00  0.00    -0.356 N 
HETATM   22  H   UNL     1      42.870 -17.415   3.991  1.00  0.00     0.162 HD
HETATM   23  O   UNL     1      40.591 -16.116   5.760  1.00  0.00    -0.268 OA
BRANCH  21  24
HETATM   24  C   UNL     1      42.756 -17.893   6.054  1.00  0.00     0.126 C 
BRANCH  24  25
HETATM   25  C   UNL     1      43.877 -17.269   6.895  1.00  0.00    -0.005 C 
HETATM   26  C   UNL     1      45.200 -18.025   6.749  1.00  0.00     0.011 C 
HETATM   27  C   UNL     1      43.462 -17.237   8.366  1.00  0.00     0.011 C 
ENDBRANCH  24  25
ENDBRANCH  21  24
ENDBRANCH   1  20
TORSDOF 5
ENDMDL
