MODEL 1
REMARK VINA RESULT:      -8.4      0.000      0.000
REMARK  7 active torsions:
REMARK  status: ('A' for Active; 'I' for Inactive)
REMARK    1  A    between atoms: C_7  and  C_8 
REMARK    2  A    between atoms: C_8  and  N_9 
REMARK       I    between atoms: N_9  and  C_10 
REMARK       I    between atoms: C_10  and  N_11 
REMARK    3  A    between atoms: N_11  and  C_12 
REMARK    4  A    between atoms: C_12  and  C_13 
REMARK    5  A    between atoms: C_13  and  C_14 
REMARK    6  A    between atoms: C_14  and  O_15 
REMARK    7  A    between atoms: C_14  and  C_16 
ROOT
HETATM    1  N   UNL     1      42.553 -16.600   0.440  1.00  0.00    -0.337 N 
HETATM    2  C   UNL     1      41.496 -15.835   0.017  1.00  0.00     0.316 C 
HETATM    3  N   UNL     1      41.437 -15.748  -1.340  1.00  0.00    -0.339 N 
HETATM    4  O   UNL     1      40.695 -15.319   0.790  1.00  0.00    -0.247 OA
HETATM    5  H   UNL     1      43.226 -16.814  -0.282  1.00  0.00     0.164 HD
HETATM    6  H   UNL     1      42.235 -16.060  -1.889  1.00  0.00     0.164 HD
ENDROOT
BRANCH   1   7
HETATM    7  C   UNL     1      43.074 -16.479   1.787  1.00  0.00     0.183 C 
BRANCH   7   8
HETATM    8  C   UNL     1      43.435 -17.789   2.384  1.00  0.00     0.044 A 
HETATM    9  N   UNL     1      43.833 -17.945   3.704  1.00  0.00    -0.343 N 
HETATM   10  C   UNL     1      44.145 -19.205   3.966  1.00  0.00     0.112 A 
HETATM   11  H   UNL     1      43.876 -17.158   4.364  1.00  0.00     0.167 HD
HETATM   12  N   UNL     1      43.990 -19.909   2.825  1.00  0.00    -0.311 N 
HETATM   13  C   UNL     1      44.609 -19.844   5.218  1.00  0.00     0.049 A 
HETATM   14  C   UNL     1      44.277 -21.270   2.740  1.00  0.00     0.014 A 
HETATM   15  C   UNL     1      43.534 -19.050   1.835  1.00  0.00     0.125 A 
HETATM   16  C   UNL     1      44.125 -22.012   1.445  1.00  0.00     0.068 C 
HETATM   17  C   UNL     1      44.705 -21.863   3.876  1.00  0.00     0.025 A 
HETATM   18  C   UNL     1      44.874 -21.160   5.144  1.00  0.00     0.006 A 
ENDBRANCH   7   8
ENDBRANCH   1   7
BRANCH   3  19
HETATM   19  C   UNL     1      40.559 -14.826  -2.053  1.00  0.00     0.085 C 
HETATM   20  C   UNL     1      41.077 -13.391  -1.964  1.00  0.00     0.032 C 
BRANCH  19  21
HETATM   21  C   UNL     1      40.331 -15.303  -3.503  1.00  0.00     0.063 C 
BRANCH  21  22
HETATM   22  C   UNL     1      38.934 -15.829  -3.868  1.00  0.00     0.177 C 
BRANCH  22  23
HETATM   23  O   UNL     1      38.989 -16.599  -5.080  1.00  0.00    -0.389 OA
HETATM   24  H   UNL     1      39.749 -17.203  -4.958  1.00  0.00     0.210 HD
ENDBRANCH  22  23
BRANCH  22  25
HETATM   25  C   UNL     1      37.894 -14.769  -4.026  1.00  0.00     0.081 A 
HETATM   26  O   UNL     1      36.816 -15.072  -4.814  1.00  0.00    -0.324 OA
HETATM   27  C   UNL     1      35.993 -13.993  -4.796  1.00  0.00     0.142 A 
HETATM   28  C   UNL     1      36.513 -13.004  -3.996  1.00  0.00     0.027 A 
HETATM   29  C   UNL     1      37.738 -13.506  -3.491  1.00  0.00     0.037 A 
ENDBRANCH  22  25
ENDBRANCH  21  22
ENDBRANCH  19  21
ENDBRANCH   3  19
TORSDOF 7
ENDMDL
MODEL 2
REMARK VINA RESULT:      -8.2      7.687     11.301
REMARK  7 active torsions:
REMARK  status: ('A' for Active; 'I' for Inactive)
REMARK    1  A    between atoms: C_7  and  C_8 
REMARK    2  A    between atoms: C_8  and  N_9 
REMARK       I    between atoms: N_9  and  C_10 
REMARK       I    between atoms: C_10  and  N_11 
REMARK    3  A    between atoms: N_11  and  C_12 
REMARK    4  A    between atoms: C_12  and  C_13 
REMARK    5  A    between atoms: C_13  and  C_14 
REMARK    6  A    between atoms: C_14  and  O_15 
REMARK    7  A    between atoms: C_14  and  C_16 
ROOT
HETATM    1  N   UNL     1      43.193 -13.642   6.647  1.00  0.00    -0.337 N 
HETATM    2  C   UNL     1      44.406 -13.519   7.274  1.00  0.00     0.316 C 
HETATM    3  N   UNL     1      44.286 -13.005   8.529  1.00  0.00    -0.339 N 
HETATM    4  O   UNL     1      45.462 -13.863   6.753  1.00  0.00    -0.247 OA
HETATM    5  H   UNL     1      42.434 -13.164   7.113  1.00  0.00     0.164 HD
HETATM    6  H   UNL     1      43.400 -12.591   8.808  1.00  0.00     0.164 HD
ENDROOT
BRANCH   1   7
HETATM    7  C   UNL     1      43.100 -13.737   5.204  1.00  0.00     0.183 C 
BRANCH   7   8
HETATM    8  C   UNL     1      43.282 -15.122   4.705  1.00  0.00     0.044 A 
HETATM    9  N   UNL     1      43.484 -16.215   5.537  1.00  0.00    -0.343 N 
HETATM   10  C   UNL     1      43.667 -17.324   4.837  1.00  0.00     0.112 A 
HETATM   11  H   UNL     1      43.493 -16.134   6.561  1.00  0.00     0.167 HD
HETATM   12  N   UNL     1      43.620 -16.994   3.529  1.00  0.00    -0.311 N 
HETATM   13  C   UNL     1      43.908 -18.716   5.279  1.00  0.00     0.049 A 
HETATM   14  C   UNL     1      43.818 -17.926   2.512  1.00  0.00     0.014 A 
HETATM   15  C   UNL     1      43.365 -15.633   3.426  1.00  0.00     0.125 A 
HETATM   16  C   UNL     1      43.792 -17.515   1.070  1.00  0.00     0.068 C 
HETATM   17  C   UNL     1      44.043 -19.200   2.906  1.00  0.00     0.025 A 
HETATM   18  C   UNL     1      44.086 -19.621   4.302  1.00  0.00     0.006 A 
ENDBRANCH   7   8
ENDBRANCH   1   7
BRANCH   3  19
HETATM   19  C   UNL     1      45.420 -12.561   9.332  1.00  0.00     0.085 C 
HETATM   20  C   UNL     1      46.296 -11.579   8.555  1.00  0.00     0.032 C 
BRANCH  19  21
HETATM   21  C   UNL     1      44.941 -12.009  10.691  1.00  0.00     0.063 C 
BRANCH  21  22
HETATM   22  C   UNL     1      43.470 -11.579  10.806  1.00  0.00     0.177 C 
BRANCH  22  23
HETATM   23  O   UNL     1      43.103 -10.745   9.696  1.00  0.00    -0.389 OA
HETATM   24  H   UNL     1      43.926 -10.644   9.177  1.00  0.00     0.210 HD
ENDBRANCH  22  23
BRANCH  22  25
HETATM   25  C   UNL     1      43.130 -10.862  12.071  1.00  0.00     0.081 A 
HETATM   26  O   UNL     1      42.063 -11.337  12.784  1.00  0.00    -0.324 OA
HETATM   27  C   UNL     1      41.951 -10.567  13.896  1.00  0.00     0.142 A 
HETATM   28  C   UNL     1      42.938  -9.612  13.921  1.00  0.00     0.027 A 
HETATM   29  C   UNL     1      43.706  -9.806  12.747  1.00  0.00     0.037 A 
ENDBRANCH  22  25
ENDBRANCH  21  22
ENDBRANCH  19  21
ENDBRANCH   3  19
TORSDOF 7
ENDMDL
MODEL 3
REMARK VINA RESULT:      -8.2      3.666      9.074
REMARK  7 active torsions:
REMARK  status: ('A' for Active; 'I' for Inactive)
REMARK    1  A    between atoms: C_7  and  C_8 
REMARK    2  A    between atoms: C_8  and  N_9 
REMARK       I    between atoms: N_9  and  C_10 
REMARK       I    between atoms: C_10  and  N_11 
REMARK    3  A    between atoms: N_11  and  C_12 
REMARK    4  A    between atoms: C_12  and  C_13 
REMARK    5  A    between atoms: C_13  and  C_14 
REMARK    6  A    between atoms: C_14  and  O_15 
REMARK    7  A    between atoms: C_14  and  C_16 
ROOT
HETATM    1  N   UNL     1      39.857 -15.617   2.886  1.00  0.00    -0.337 N 
HETATM    2  C   UNL     1      41.080 -15.829   3.470  1.00  0.00     0.316 C 
HETATM    3  N   UNL     1      41.067 -16.894   4.318  1.00  0.00    -0.339 N 
HETATM    4  O   UNL     1      42.064 -15.139   3.222  1.00  0.00    -0.247 OA
HETATM    5  H   UNL     1      39.100 -16.139   3.307  1.00  0.00     0.164 HD
HETATM    6  H   UNL     1      40.173 -17.294   4.591  1.00  0.00     0.164 HD
ENDROOT
BRANCH   1   7
HETATM    7  C   UNL     1      39.510 -14.330   2.318  1.00  0.00     0.183 C 
BRANCH   7   8
HETATM    8  C   UNL     1      40.094 -14.120   0.970  1.00  0.00     0.044 A 
HETATM    9  N   UNL     1      39.915 -15.000  -0.088  1.00  0.00    -0.343 N 
HETATM   10  C   UNL     1      40.583 -14.604  -1.161  1.00  0.00     0.112 A 
HETATM   11  H   UNL     1      39.338 -15.847  -0.009  1.00  0.00     0.167 HD
HETATM   12  N   UNL     1      41.241 -13.472  -0.836  1.00  0.00    -0.311 N 
HETATM   13  C   UNL     1      40.688 -15.206  -2.509  1.00  0.00     0.049 A 
HETATM   14  C   UNL     1      42.079 -12.809  -1.731  1.00  0.00     0.014 A 
HETATM   15  C   UNL     1      40.938 -13.145   0.478  1.00  0.00     0.125 A 
HETATM   16  C   UNL     1      42.821 -11.571  -1.324  1.00  0.00     0.068 C 
HETATM   17  C   UNL     1      42.186 -13.353  -2.964  1.00  0.00     0.025 A 
HETATM   18  C   UNL     1      41.484 -14.563  -3.380  1.00  0.00     0.006 A 
ENDBRANCH   7   8
ENDBRANCH   1   7
BRANCH   3  19
HETATM   19  C   UNL     1      42.156 -17.209   5.235  1.00  0.00     0.085 C 
HETATM   20  C   UNL     1      41.721 -17.032   6.690  1.00  0.00     0.032 C 
BRANCH  19  21
HETATM   21  C   UNL     1      42.731 -18.610   4.936  1.00  0.00     0.063 C 
BRANCH  21  22
HETATM   22  C   UNL     1      43.933 -18.697   3.981  1.00  0.00     0.177 C 
BRANCH  22  23
HETATM   23  O   UNL     1      43.941 -17.576   3.082  1.00  0.00    -0.389 OA
HETATM   24  H   UNL     1      44.420 -17.894   2.291  1.00  0.00     0.210 HD
ENDBRANCH  22  23
BRANCH  22  25
HETATM   25  C   UNL     1      43.995 -19.952   3.175  1.00  0.00     0.081 A 
HETATM   26  O   UNL     1      44.593 -21.035   3.760  1.00  0.00    -0.324 OA
HETATM   27  C   UNL     1      44.514 -22.061   2.875  1.00  0.00     0.142 A 
HETATM   28  C   UNL     1      43.861 -21.663   1.733  1.00  0.00     0.027 A 
HETATM   29  C   UNL     1      43.517 -20.303   1.928  1.00  0.00     0.037 A 
ENDBRANCH  22  25
ENDBRANCH  21  22
ENDBRANCH  19  21
ENDBRANCH   3  19
TORSDOF 7
ENDMDL
MODEL 4
REMARK VINA RESULT:      -8.2      4.929      6.510
REMARK  7 active torsions:
REMARK  status: ('A' for Active; 'I' for Inactive)
REMARK    1  A    between atoms: C_7  and  C_8 
REMARK    2  A    between atoms: C_8  and  N_9 
REMARK       I    between atoms: N_9  and  C_10 
REMARK       I    between atoms: C_10  and  N_11 
REMARK    3  A    between atoms: N_11  and  C_12 
REMARK    4  A    between atoms: C_12  and  C_13 
REMARK    5  A    between atoms: C_13  and  C_14 
REMARK    6  A    between atoms: C_14  and  O_15 
REMARK    7  A    between atoms: C_14  and  C_16 
ROOT
HETATM    1  N   UNL     1      43.004 -17.012   7.170  1.00  0.00    -0.337 N 
HETATM    2  C   UNL     1      43.353 -15.735   6.812  1.00  0.00     0.316 C 
HETATM    3  N   UNL     1      42.303 -15.040   6.297  1.00  0.00    -0.339 N 
HETATM    4  O   UNL     1      44.483 -15.285   6.972  1.00  0.00    -0.247 OA
HETATM    5  H   UNL     1      42.101 -17.307   6.825  1.00  0.00     0.164 HD
HETATM    6  H   UNL     1      41.456 -15.545   6.044  1.00  0.00     0.164 HD
ENDROOT
BRANCH   1   7
HETATM    7  C   UNL     1      44.005 -18.051   7.316  1.00  0.00     0.183 C 
BRANCH   7   8
HETATM    8  C   UNL     1      44.061 -18.963   6.147  1.00  0.00     0.044 A 
HETATM    9  N   UNL     1      44.409 -20.304   6.239  1.00  0.00    -0.343 N 
HETATM   10  C   UNL     1      44.430 -20.877   5.045  1.00  0.00     0.112 A 
HETATM   11  H   UNL     1      44.625 -20.758   7.135  1.00  0.00     0.167 HD
HETATM   12  N   UNL     1      44.127 -19.931   4.133  1.00  0.00    -0.311 N 
HETATM   13  C   UNL     1      44.734 -22.271   4.650  1.00  0.00     0.049 A 
HETATM   14  C   UNL     1      44.102 -20.190   2.764  1.00  0.00     0.014 A 
HETATM   15  C   UNL     1      43.877 -18.738   4.799  1.00  0.00     0.125 A 
HETATM   16  C   UNL     1      43.793 -19.103   1.777  1.00  0.00     0.068 C 
HETATM   17  C   UNL     1      44.382 -21.458   2.391  1.00  0.00     0.025 A 
HETATM   18  C   UNL     1      44.698 -22.529   3.331  1.00  0.00     0.006 A 
ENDBRANCH   7   8
ENDBRANCH   1   7
BRANCH   3  19
HETATM   19  C   UNL     1      42.436 -13.748   5.634  1.00  0.00     0.085 C 
HETATM   20  C   UNL     1      43.363 -13.841   4.422  1.00  0.00     0.032 C 
BRANCH  19  21
HETATM   21  C   UNL     1      41.047 -13.164   5.297  1.00  0.00     0.063 C 
BRANCH  21  22
HETATM   22  C   UNL     1      39.952 -14.145   4.847  1.00  0.00     0.177 C 
BRANCH  22  23
HETATM   23  O   UNL     1      39.557 -14.989   5.941  1.00  0.00    -0.389 OA
HETATM   24  H   UNL     1      40.339 -15.549   6.119  1.00  0.00     0.210 HD
ENDBRANCH  22  23
BRANCH  22  25
HETATM   25  C   UNL     1      40.332 -15.012   3.692  1.00  0.00     0.081 A 
HETATM   26  O   UNL     1      40.852 -16.243   3.986  1.00  0.00    -0.324 OA
HETATM   27  C   UNL     1      41.096 -16.865   2.805  1.00  0.00     0.142 A 
HETATM   28  C   UNL     1      40.728 -16.062   1.753  1.00  0.00     0.027 A 
HETATM   29  C   UNL     1      40.226 -14.867   2.323  1.00  0.00     0.037 A 
ENDBRANCH  22  25
ENDBRANCH  21  22
ENDBRANCH  19  21
ENDBRANCH   3  19
TORSDOF 7
ENDMDL
MODEL 5
REMARK VINA RESULT:      -8.1      3.858      5.711
REMARK  7 active torsions:
REMARK  status: ('A' for Active; 'I' for Inactive)
REMARK    1  A    between atoms: C_7  and  C_8 
REMARK    2  A    between atoms: C_8  and  N_9 
REMARK       I    between atoms: N_9  and  C_10 
REMARK       I    between atoms: C_10  and  N_11 
REMARK    3  A    between atoms: N_11  and  C_12 
REMARK    4  A    between atoms: C_12  and  C_13 
REMARK    5  A    between atoms: C_13  and  C_14 
REMARK    6  A    between atoms: C_14  and  O_15 
REMARK    7  A    between atoms: C_14  and  C_16 
ROOT
HETATM    1  N   UNL     1      42.858 -16.472   6.886  1.00  0.00    -0.337 N 
HETATM    2  C   UNL     1      42.320 -15.408   6.207  1.00  0.00     0.316 C 
HETATM    3  N   UNL     1      40.960 -15.407   6.248  1.00  0.00    -0.339 N 
HETATM    4  O   UNL     1      43.008 -14.555   5.654  1.00  0.00    -0.247 OA
HETATM    5  H   UNL     1      42.188 -17.185   7.139  1.00  0.00     0.164 HD
HETATM    6  H   UNL     1      40.477 -16.240   6.577  1.00  0.00     0.164 HD
ENDROOT
BRANCH   1   7
HETATM    7  C   UNL     1      44.208 -16.927   6.619  1.00  0.00     0.183 C 
BRANCH   7   8
HETATM    8  C   UNL     1      44.259 -18.015   5.611  1.00  0.00     0.044 A 
HETATM    9  N   UNL     1      43.800 -17.875   4.309  1.00  0.00    -0.343 N 
HETATM   10  C   UNL     1      43.916 -19.008   3.634  1.00  0.00     0.112 A 
HETATM   11  H   UNL     1      43.417 -16.991   3.952  1.00  0.00     0.167 HD
HETATM   12  N   UNL     1      44.426 -19.933   4.474  1.00  0.00    -0.311 N 
HETATM   13  C   UNL     1      43.570 -19.337   2.233  1.00  0.00     0.049 A 
HETATM   14  C   UNL     1      44.638 -21.257   4.093  1.00  0.00     0.014 A 
HETATM   15  C   UNL     1      44.662 -19.331   5.703  1.00  0.00     0.125 A 
HETATM   16  C   UNL     1      45.176 -22.264   5.065  1.00  0.00     0.068 C 
HETATM   17  C   UNL     1      44.322 -21.569   2.817  1.00  0.00     0.025 A 
HETATM   18  C   UNL     1      43.785 -20.609   1.857  1.00  0.00     0.006 A 
ENDBRANCH   7   8
ENDBRANCH   1   7
BRANCH   3  19
HETATM   19  C   UNL     1      40.128 -14.529   5.433  1.00  0.00     0.085 C 
HETATM   20  C   UNL     1      40.096 -13.112   6.003  1.00  0.00     0.032 C 
BRANCH  19  21
HETATM   21  C   UNL     1      40.567 -14.583   3.954  1.00  0.00     0.063 C 
BRANCH  21  22
HETATM   22  C   UNL     1      40.232 -15.854   3.157  1.00  0.00     0.177 C 
BRANCH  22  23
HETATM   23  O   UNL     1      40.736 -17.017   3.834  1.00  0.00    -0.389 OA
HETATM   24  H   UNL     1      41.524 -17.283   3.319  1.00  0.00     0.210 HD
ENDBRANCH  22  23
BRANCH  22  25
HETATM   25  C   UNL     1      40.746 -15.861   1.755  1.00  0.00     0.081 A 
HETATM   26  O   UNL     1      40.979 -14.644   1.175  1.00  0.00    -0.324 OA
HETATM   27  C   UNL     1      41.462 -14.881  -0.071  1.00  0.00     0.142 A 
HETATM   28  C   UNL     1      41.561 -16.232  -0.299  1.00  0.00     0.027 A 
HETATM   29  C   UNL     1      41.106 -16.868   0.882  1.00  0.00     0.037 A 
ENDBRANCH  22  25
ENDBRANCH  21  22
ENDBRANCH  19  21
ENDBRANCH   3  19
TORSDOF 7
ENDMDL
MODEL 6
REMARK VINA RESULT:      -8.0      9.096     12.212
REMARK  7 active torsions:
REMARK  status: ('A' for Active; 'I' for Inactive)
REMARK    1  A    between atoms: C_7  and  C_8 
REMARK    2  A    between atoms: C_8  and  N_9 
REMARK       I    between atoms: N_9  and  C_10 
REMARK       I    between atoms: C_10  and  N_11 
REMARK    3  A    between atoms: N_11  and  C_12 
REMARK    4  A    between atoms: C_12  and  C_13 
REMARK    5  A    between atoms: C_13  and  C_14 
REMARK    6  A    between atoms: C_14  and  O_15 
REMARK    7  A    between atoms: C_14  and  C_16 
ROOT
HETATM    1  N   UNL     1      39.236 -12.735   7.392  1.00  0.00    -0.337 N 
HETATM    2  C   UNL     1      39.781 -11.615   7.967  1.00  0.00     0.316 C 
HETATM    3  N   UNL     1      39.339 -11.426   9.241  1.00  0.00    -0.339 N 
HETATM    4  O   UNL     1      40.590 -10.897   7.390  1.00  0.00    -0.247 OA
HETATM    5  H   UNL     1      38.461 -13.130   7.906  1.00  0.00     0.164 HD
HETATM    6  H   UNL     1      38.545 -11.968   9.572  1.00  0.00     0.164 HD
ENDROOT
BRANCH   1   7
HETATM    7  C   UNL     1      39.200 -12.896   5.952  1.00  0.00     0.183 C 
BRANCH   7   8
HETATM    8  C   UNL     1      39.860 -14.145   5.496  1.00  0.00     0.044 A 
HETATM    9  N   UNL     1      40.445 -15.060   6.359  1.00  0.00    -0.343 N 
HETATM   10  C   UNL     1      41.006 -16.058   5.693  1.00  0.00     0.112 A 
HETATM   11  H   UNL     1      40.434 -14.941   7.380  1.00  0.00     0.167 HD
HETATM   12  N   UNL     1      40.832 -15.817   4.377  1.00  0.00    -0.311 N 
HETATM   13  C   UNL     1      41.732 -17.254   6.176  1.00  0.00     0.049 A 
HETATM   14  C   UNL     1      41.341 -16.657   3.387  1.00  0.00     0.014 A 
HETATM   15  C   UNL     1      40.108 -14.642   4.233  1.00  0.00     0.125 A 
HETATM   16  C   UNL     1      41.157 -16.339   1.933  1.00  0.00     0.068 C 
HETATM   17  C   UNL     1      42.010 -17.751   3.818  1.00  0.00     0.025 A 
HETATM   18  C   UNL     1      42.213 -18.074   5.226  1.00  0.00     0.006 A 
ENDBRANCH   7   8
ENDBRANCH   1   7
BRANCH   3  19
HETATM   19  C   UNL     1      39.576 -10.206  10.005  1.00  0.00     0.085 C 
HETATM   20  C   UNL     1      38.665  -9.073   9.533  1.00  0.00     0.032 C 
BRANCH  19  21
HETATM   21  C   UNL     1      39.471 -10.484  11.520  1.00  0.00     0.063 C 
BRANCH  21  22
HETATM   22  C   UNL     1      40.551 -11.372  12.158  1.00  0.00     0.177 C 
BRANCH  22  23
HETATM   23  O   UNL     1      39.947 -12.389  12.974  1.00  0.00    -0.389 OA
HETATM   24  H   UNL     1      39.011 -12.118  13.057  1.00  0.00     0.210 HD
ENDBRANCH  22  23
BRANCH  22  25
HETATM   25  C   UNL     1      41.553 -10.634  12.983  1.00  0.00     0.081 A 
HETATM   26  O   UNL     1      41.294 -10.529  14.323  1.00  0.00    -0.324 OA
HETATM   27  C   UNL     1      42.333  -9.855  14.878  1.00  0.00     0.142 A 
HETATM   28  C   UNL     1      43.267  -9.536  13.921  1.00  0.00     0.027 A 
HETATM   29  C   UNL     1      42.769 -10.046  12.697  1.00  0.00     0.037 A 
ENDBRANCH  22  25
ENDBRANCH  21  22
ENDBRANCH  19  21
ENDBRANCH   3  19
TORSDOF 7
ENDMDL
MODEL 7
REMARK VINA RESULT:      -7.8      7.976     10.597
REMARK  7 active torsions:
REMARK  status: ('A' for Active; 'I' for Inactive)
REMARK    1  A    between atoms: C_7  and  C_8 
REMARK    2  A    between atoms: C_8  and  N_9 
REMARK       I    between atoms: N_9  and  C_10 
REMARK       I    between atoms: C_10  and  N_11 
REMARK    3  A    between atoms: N_11  and  C_12 
REMARK    4  A    between atoms: C_12  and  C_13 
REMARK    5  A    between atoms: C_13  and  C_14 
REMARK    6  A    between atoms: C_14  and  O_15 
REMARK    7  A    between atoms: C_14  and  C_16 
ROOT
HETATM    1  N   UNL     1      39.207 -12.653   7.958  1.00  0.00    -0.337 N 
HETATM    2  C   UNL     1      39.674 -12.735   6.671  1.00  0.00     0.316 C 
HETATM    3  N   UNL     1      40.148 -13.976   6.375  1.00  0.00    -0.339 N 
HETATM    4  O   UNL     1      39.634 -11.792   5.887  1.00  0.00    -0.247 OA
HETATM    5  H   UNL     1      39.459 -13.438   8.542  1.00  0.00     0.164 HD
HETATM    6  H   UNL     1      40.300 -14.638   7.132  1.00  0.00     0.164 HD
ENDROOT
BRANCH   1   7
HETATM    7  C   UNL     1      39.073 -11.374   8.626  1.00  0.00     0.183 C 
BRANCH   7   8
HETATM    8  C   UNL     1      40.205 -11.081   9.540  1.00  0.00     0.044 A 
HETATM    9  N   UNL     1      41.524 -10.986   9.119  1.00  0.00    -0.343 N 
HETATM   10  C   UNL     1      42.340 -10.768  10.140  1.00  0.00     0.112 A 
HETATM   11  H   UNL     1      41.797 -11.087   8.134  1.00  0.00     0.167 HD
HETATM   12  N   UNL     1      41.590 -10.741  11.262  1.00  0.00    -0.311 N 
HETATM   13  C   UNL     1      43.809 -10.592  10.181  1.00  0.00     0.049 A 
HETATM   14  C   UNL     1      42.144 -10.571  12.530  1.00  0.00     0.014 A 
HETATM   15  C   UNL     1      40.260 -10.917  10.909  1.00  0.00     0.125 A 
HETATM   16  C   UNL     1      41.283 -10.581  13.757  1.00  0.00     0.068 C 
HETATM   17  C   UNL     1      43.486 -10.414  12.579  1.00  0.00     0.025 A 
HETATM   18  C   UNL     1      44.346 -10.414  11.400  1.00  0.00     0.006 A 
ENDBRANCH   7   8
ENDBRANCH   1   7
BRANCH   3  19
HETATM   19  C   UNL     1      40.903 -14.285   5.165  1.00  0.00     0.085 C 
HETATM   20  C   UNL     1      42.339 -13.772   5.263  1.00  0.00     0.032 C 
BRANCH  19  21
HETATM   21  C   UNL     1      40.814 -15.792   4.839  1.00  0.00     0.063 C 
BRANCH  21  22
HETATM   22  C   UNL     1      41.119 -16.227   3.397  1.00  0.00     0.177 C 
BRANCH  22  23
HETATM   23  O   UNL     1      39.934 -16.737   2.766  1.00  0.00    -0.389 OA
HETATM   24  H   UNL     1      39.201 -16.219   3.155  1.00  0.00     0.210 HD
ENDBRANCH  22  23
BRANCH  22  25
HETATM   25  C   UNL     1      42.200 -17.250   3.273  1.00  0.00     0.081 A 
HETATM   26  O   UNL     1      43.089 -17.341   4.310  1.00  0.00    -0.324 OA
HETATM   27  C   UNL     1      43.956 -18.339   4.006  1.00  0.00     0.142 A 
HETATM   28  C   UNL     1      43.634 -18.906   2.797  1.00  0.00     0.027 A 
HETATM   29  C   UNL     1      42.494 -18.209   2.324  1.00  0.00     0.037 A 
ENDBRANCH  22  25
ENDBRANCH  21  22
ENDBRANCH  19  21
ENDBRANCH   3  19
TORSDOF 7
ENDMDL
MODEL 8
REMARK VINA RESULT:      -7.8      3.545      5.095
REMARK  7 active torsions:
REMARK  status: ('A' for Active; 'I' for Inactive)
REMARK    1  A    between atoms: C_7  and  C_8 
REMARK    2  A    between atoms: C_8  and  N_9 
REMARK       I    between atoms: N_9  and  C_10 
REMARK       I    between atoms: C_10  and  N_11 
REMARK    3  A    between atoms: N_11  and  C_12 
REMARK    4  A    between atoms: C_12  and  C_13 
REMARK    5  A    between atoms: C_13  and  C_14 
REMARK    6  A    between atoms: C_14  and  O_15 
REMARK    7  A    between atoms: C_14  and  C_16 
ROOT
HETATM    1  N   UNL     1      43.421 -15.817   4.713  1.00  0.00    -0.337 N 
HETATM    2  C   UNL     1      42.215 -15.182   4.560  1.00  0.00     0.316 C 
HETATM    3  N   UNL     1      42.360 -13.911   4.094  1.00  0.00    -0.339 N 
HETATM    4  O   UNL     1      41.142 -15.726   4.797  1.00  0.00    -0.247 OA
HETATM    5  H   UNL     1      44.223 -15.205   4.652  1.00  0.00     0.164 HD
HETATM    6  H   UNL     1      43.286 -13.490   4.091  1.00  0.00     0.164 HD
ENDROOT
BRANCH   1   7
HETATM    7  C   UNL     1      43.557 -16.968   5.583  1.00  0.00     0.183 C 
BRANCH   7   8
HETATM    8  C   UNL     1      43.813 -18.225   4.838  1.00  0.00     0.044 A 
HETATM    9  N   UNL     1      43.463 -18.412   3.508  1.00  0.00    -0.343 N 
HETATM   10  C   UNL     1      43.757 -19.637   3.102  1.00  0.00     0.112 A 
HETATM   11  H   UNL     1      43.024 -17.673   2.944  1.00  0.00     0.167 HD
HETATM   12  N   UNL     1      44.281 -20.301   4.153  1.00  0.00    -0.311 N 
HETATM   13  C   UNL     1      43.576 -20.286   1.783  1.00  0.00     0.049 A 
HETATM   14  C   UNL     1      44.663 -21.640   4.080  1.00  0.00     0.014 A 
HETATM   15  C   UNL     1      44.340 -19.436   5.237  1.00  0.00     0.125 A 
HETATM   16  C   UNL     1      45.211 -22.354   5.279  1.00  0.00     0.068 C 
HETATM   17  C   UNL     1      44.498 -22.243   2.881  1.00  0.00     0.025 A 
HETATM   18  C   UNL     1      43.956 -21.573   1.704  1.00  0.00     0.006 A 
ENDBRANCH   7   8
ENDBRANCH   1   7
BRANCH   3  19
HETATM   19  C   UNL     1      41.273 -12.939   4.050  1.00  0.00     0.085 C 
HETATM   20  C   UNL     1      41.434 -11.882   5.142  1.00  0.00     0.032 C 
BRANCH  19  21
HETATM   21  C   UNL     1      41.138 -12.338   2.634  1.00  0.00     0.063 C 
BRANCH  21  22
HETATM   22  C   UNL     1      42.202 -12.723   1.593  1.00  0.00     0.177 C 
BRANCH  22  23
HETATM   23  O   UNL     1      42.595 -11.571   0.829  1.00  0.00    -0.389 OA
HETATM   24  H   UNL     1      41.764 -11.077   0.677  1.00  0.00     0.210 HD
ENDBRANCH  22  23
BRANCH  22  25
HETATM   25  C   UNL     1      41.783 -13.800   0.647  1.00  0.00     0.081 A 
HETATM   26  O   UNL     1      41.940 -15.091   1.071  1.00  0.00    -0.324 OA
HETATM   27  C   UNL     1      41.476 -15.896   0.082  1.00  0.00     0.142 A 
HETATM   28  C   UNL     1      41.007 -15.144  -0.969  1.00  0.00     0.027 A 
HETATM   29  C   UNL     1      41.197 -13.789  -0.602  1.00  0.00     0.037 A 
ENDBRANCH  22  25
ENDBRANCH  21  22
ENDBRANCH  19  21
ENDBRANCH   3  19
TORSDOF 7
ENDMDL
MODEL 9
REMARK VINA RESULT:      -7.7      8.308     10.714
REMARK  7 active torsions:
REMARK  status: ('A' for Active; 'I' for Inactive)
REMARK    1  A    between atoms: C_7  and  C_8 
REMARK    2  A    between atoms: C_8  and  N_9 
REMARK       I    between atoms: N_9  and  C_10 
REMARK       I    between atoms: C_10  and  N_11 
REMARK    3  A    between atoms: N_11  and  C_12 
REMARK    4  A    between atoms: C_12  and  C_13 
REMARK    5  A    between atoms: C_13  and  C_14 
REMARK    6  A    between atoms: C_14  and  O_15 
REMARK    7  A    between atoms: C_14  and  C_16 
ROOT
HETATM    1  N   UNL     1      39.112 -12.491   8.243  1.00  0.00    -0.337 N 
HETATM    2  C   UNL     1      39.364 -12.523   6.895  1.00  0.00     0.316 C 
HETATM    3  N   UNL     1      39.871 -13.721   6.496  1.00  0.00    -0.339 N 
HETATM    4  O   UNL     1      39.127 -11.577   6.151  1.00  0.00    -0.247 OA
HETATM    5  H   UNL     1      39.513 -13.262   8.758  1.00  0.00     0.164 HD
HETATM    6  H   UNL     1      40.193 -14.379   7.201  1.00  0.00     0.164 HD
ENDROOT
BRANCH   1   7
HETATM    7  C   UNL     1      39.000 -11.233   8.955  1.00  0.00     0.183 C 
BRANCH   7   8
HETATM    8  C   UNL     1      40.050 -11.063   9.990  1.00  0.00     0.044 A 
HETATM    9  N   UNL     1      39.782 -11.003  11.350  1.00  0.00    -0.343 N 
HETATM   10  C   UNL     1      40.887 -10.796  12.049  1.00  0.00     0.112 A 
HETATM   11  H   UNL     1      38.832 -11.101  11.730  1.00  0.00     0.167 HD
HETATM   12  N   UNL     1      41.908 -10.686  11.174  1.00  0.00    -0.311 N 
HETATM   13  C   UNL     1      41.096 -10.669  13.509  1.00  0.00     0.049 A 
HETATM   14  C   UNL     1      43.216 -10.423  11.577  1.00  0.00     0.014 A 
HETATM   15  C   UNL     1      41.412 -10.866   9.890  1.00  0.00     0.125 A 
HETATM   16  C   UNL     1      44.320 -10.274  10.572  1.00  0.00     0.068 C 
HETATM   17  C   UNL     1      43.418 -10.300  12.908  1.00  0.00     0.025 A 
HETATM   18  C   UNL     1      42.358 -10.428  13.903  1.00  0.00     0.006 A 
ENDBRANCH   7   8
ENDBRANCH   1   7
BRANCH   3  19
HETATM   19  C   UNL     1      40.434 -13.959   5.171  1.00  0.00     0.085 C 
HETATM   20  C   UNL     1      41.620 -13.034   4.901  1.00  0.00     0.032 C 
BRANCH  19  21
HETATM   21  C   UNL     1      40.771 -15.454   4.984  1.00  0.00     0.063 C 
BRANCH  21  22
HETATM   22  C   UNL     1      41.088 -15.939   3.560  1.00  0.00     0.177 C 
BRANCH  22  23
HETATM   23  O   UNL     1      39.873 -16.200   2.837  1.00  0.00    -0.389 OA
HETATM   24  H   UNL     1      39.871 -15.546   2.109  1.00  0.00     0.210 HD
ENDBRANCH  22  23
BRANCH  22  25
HETATM   25  C   UNL     1      41.949 -17.158   3.496  1.00  0.00     0.081 A 
HETATM   26  O   UNL     1      42.041 -17.788   2.286  1.00  0.00    -0.324 OA
HETATM   27  C   UNL     1      42.885 -18.839   2.446  1.00  0.00     0.142 A 
HETATM   28  C   UNL     1      43.351 -18.889   3.738  1.00  0.00     0.027 A 
HETATM   29  C   UNL     1      42.754 -17.798   4.417  1.00  0.00     0.037 A 
ENDBRANCH  22  25
ENDBRANCH  21  22
ENDBRANCH  19  21
ENDBRANCH   3  19
TORSDOF 7
ENDMDL
MODEL 10
REMARK VINA RESULT:      -7.7      7.117     10.603
REMARK  7 active torsions:
REMARK  status: ('A' for Active; 'I' for Inactive)
REMARK    1  A    between atoms: C_7  and  C_8 
REMARK    2  A    between atoms: C_8  and  N_9 
REMARK       I    between atoms: N_9  and  C_10 
REMARK       I    between atoms: C_10  and  N_11 
REMARK    3  A    between atoms: N_11  and  C_12 
REMARK    4  A    between atoms: C_12  and  C_13 
REMARK    5  A    between atoms: C_13  and  C_14 
REMARK    6  A    between atoms: C_14  and  O_15 
REMARK    7  A    between atoms: C_14  and  C_16 
ROOT
HETATM    1  N   UNL     1      41.300 -13.251   6.250  1.00  0.00    -0.337 N 
HETATM    2  C   UNL     1      42.155 -14.232   5.816  1.00  0.00     0.316 C 
HETATM    3  N   UNL     1      41.864 -15.445   6.362  1.00  0.00    -0.339 N 
HETATM    4  O   UNL     1      43.054 -14.022   5.009  1.00  0.00    -0.247 OA
HETATM    5  H   UNL     1      40.726 -13.519   7.038  1.00  0.00     0.164 HD
HETATM    6  H   UNL     1      41.217 -15.489   7.146  1.00  0.00     0.164 HD
ENDROOT
BRANCH   1   7
HETATM    7  C   UNL     1      41.664 -11.850   6.169  1.00  0.00     0.183 C 
BRANCH   7   8
HETATM    8  C   UNL     1      42.090 -11.290   7.476  1.00  0.00     0.044 A 
HETATM    9  N   UNL     1      43.186 -11.755   8.187  1.00  0.00    -0.343 N 
HETATM   10  C   UNL     1      43.316 -11.118   9.341  1.00  0.00     0.112 A 
HETATM   11  H   UNL     1      43.793 -12.507   7.836  1.00  0.00     0.167 HD
HETATM   12  N   UNL     1      42.297 -10.238   9.438  1.00  0.00    -0.311 N 
HETATM   13  C   UNL     1      44.323 -11.263  10.416  1.00  0.00     0.049 A 
HETATM   14  C   UNL     1      42.109  -9.428  10.556  1.00  0.00     0.014 A 
HETATM   15  C   UNL     1      41.534 -10.317   8.281  1.00  0.00     0.125 A 
HETATM   16  C   UNL     1      40.946  -8.486  10.642  1.00  0.00     0.068 C 
HETATM   17  C   UNL     1      43.022  -9.556  11.546  1.00  0.00     0.025 A 
HETATM   18  C   UNL     1      44.154 -10.475  11.491  1.00  0.00     0.006 A 
ENDBRANCH   7   8
ENDBRANCH   1   7
BRANCH   3  19
HETATM   19  C   UNL     1      42.736 -16.609   6.254  1.00  0.00     0.085 C 
HETATM   20  C   UNL     1      43.018 -17.217   7.628  1.00  0.00     0.032 C 
BRANCH  19  21
HETATM   21  C   UNL     1      42.163 -17.626   5.243  1.00  0.00     0.063 C 
BRANCH  21  22
HETATM   22  C   UNL     1      42.774 -17.647   3.832  1.00  0.00     0.177 C 
BRANCH  22  23
HETATM   23  O   UNL     1      41.752 -17.453   2.841  1.00  0.00    -0.389 OA
HETATM   24  H   UNL     1      42.134 -16.809   2.212  1.00  0.00     0.210 HD
ENDBRANCH  22  23
BRANCH  22  25
HETATM   25  C   UNL     1      43.526 -18.895   3.501  1.00  0.00     0.081 A 
HETATM   26  O   UNL     1      44.258 -19.462   4.508  1.00  0.00    -0.324 OA
HETATM   27  C   UNL     1      44.828 -20.585   4.003  1.00  0.00     0.142 A 
HETATM   28  C   UNL     1      44.464 -20.761   2.690  1.00  0.00     0.027 A 
HETATM   29  C   UNL     1      43.616 -19.674   2.365  1.00  0.00     0.037 A 
ENDBRANCH  22  25
ENDBRANCH  21  22
ENDBRANCH  19  21
ENDBRANCH   3  19
TORSDOF 7
ENDMDL
