MODEL 1
REMARK VINA RESULT:      -9.4      0.000      0.000
REMARK  6 active torsions:
REMARK  status: ('A' for Active; 'I' for Inactive)
REMARK    1  A    between atoms: C_2  and  O_3 
REMARK    2  A    between atoms: C_2  and  C_4 
REMARK    3  A    between atoms: C_7  and  N_8 
REMARK       I    between atoms: N_8  and  C_9 
REMARK    4  A    between atoms: C_9  and  C_10 
REMARK    5  A    between atoms: C_13  and  C_14 
REMARK    6  A    between atoms: C_19  and  C_20 
ROOT
HETATM    1  C   UNL     1      41.884 -14.619   2.892  1.00  0.00     0.096 A 
HETATM    2  C   UNL     1      42.052 -15.368   4.041  1.00  0.00     0.138 A 
HETATM    3  N   UNL     1      43.210 -14.905   4.626  1.00  0.00    -0.240 N 
HETATM    4  C   UNL     1      43.790 -15.448   5.841  1.00  0.00     0.221 C 
HETATM    5  C   UNL     1      42.784 -16.375   6.552  1.00  0.00     0.066 C 
HETATM    6  C   UNL     1      42.047 -17.282   5.552  1.00  0.00     0.118 C 
HETATM    7  N   UNL     1      41.359 -16.407   4.588  1.00  0.00    -0.365 N 
HETATM    8  N   UNL     1      43.876 -14.026   3.863  1.00  0.00    -0.181 NA
HETATM    9  C   UNL     1      43.061 -13.838   2.821  1.00  0.00     0.160 A 
HETATM   10  H   UNL     1      40.701 -16.921   4.000  1.00  0.00     0.161 HD
ENDROOT
BRANCH   1  11
HETATM   11  C   UNL     1      40.802 -14.652   1.925  1.00  0.00     0.261 C 
HETATM   12  N   UNL     1      41.244 -14.631   0.616  1.00  0.00    -0.323 N 
HETATM   13  H   UNL     1      42.246 -14.732   0.496  1.00  0.00     0.169 HD
HETATM   14  O   UNL     1      39.637 -14.740   2.293  1.00  0.00    -0.267 OA
BRANCH  12  15
HETATM   15  C   UNL     1      40.463 -14.628  -0.554  1.00  0.00     0.035 A 
HETATM   16  C   UNL     1      39.282 -13.900  -0.695  1.00  0.00     0.030 A 
HETATM   17  C   UNL     1      38.557 -13.944  -1.893  1.00  0.00     0.012 A 
HETATM   18  C   UNL     1      39.000 -14.721  -2.971  1.00  0.00    -0.030 A 
HETATM   19  C   UNL     1      40.184 -15.455  -2.823  1.00  0.00     0.012 A 
HETATM   20  C   UNL     1      40.914 -15.398  -1.632  1.00  0.00     0.030 A 
BRANCH  18  21
HETATM   21  C   UNL     1      38.183 -14.786  -4.244  1.00  0.00     0.147 C 
HETATM   22  C   UNL     1      36.689 -14.799  -3.960  1.00  0.00     0.044 C 
BRANCH  21  23
HETATM   23  O   UNL     1      38.521 -15.951  -4.995  1.00  0.00    -0.391 OA
HETATM   24  H   UNL     1      38.164 -16.713  -4.506  1.00  0.00     0.210 HD
ENDBRANCH  21  23
ENDBRANCH  18  21
ENDBRANCH  12  15
ENDBRANCH   1  11
BRANCH   4  25
HETATM   25  C   UNL     1      44.216 -14.349   6.789  1.00  0.00     0.409 C 
HETATM   26  F   UNL     1      43.405 -13.268   6.720  1.00  0.00    -0.169 F 
HETATM   27  F   UNL     1      44.140 -14.803   8.071  1.00  0.00    -0.169 F 
HETATM   28  F   UNL     1      45.486 -13.937   6.612  1.00  0.00    -0.169 F 
ENDBRANCH   4  25
BRANCH   6  29
HETATM   29  C   UNL     1      42.935 -18.338   4.892  1.00  0.00    -0.035 A 
HETATM   30  C   UNL     1      42.867 -18.530   3.496  1.00  0.00     0.012 A 
HETATM   31  C   UNL     1      43.663 -19.485   2.856  1.00  0.00     0.043 A 
HETATM   32  C   UNL     1      44.551 -20.247   3.601  1.00  0.00     0.116 A 
HETATM   33  F   UNL     1      45.315 -21.160   2.987  1.00  0.00    -0.206 F 
HETATM   34  C   UNL     1      44.662 -20.068   4.971  1.00  0.00     0.043 A 
HETATM   35  C   UNL     1      43.864 -19.116   5.611  1.00  0.00     0.012 A 
ENDBRANCH   6  29
TORSDOF 6
ENDMDL
MODEL 2
REMARK VINA RESULT:      -9.3      0.863      1.237
REMARK  6 active torsions:
REMARK  status: ('A' for Active; 'I' for Inactive)
REMARK    1  A    between atoms: C_2  and  O_3 
REMARK    2  A    between atoms: C_2  and  C_4 
REMARK    3  A    between atoms: C_7  and  N_8 
REMARK       I    between atoms: N_8  and  C_9 
REMARK    4  A    between atoms: C_9  and  C_10 
REMARK    5  A    between atoms: C_13  and  C_14 
REMARK    6  A    between atoms: C_19  and  C_20 
ROOT
HETATM    1  C   UNL     1      41.526 -14.749   2.579  1.00  0.00     0.096 A 
HETATM    2  C   UNL     1      41.761 -15.526   3.698  1.00  0.00     0.138 A 
HETATM    3  N   UNL     1      42.908 -15.024   4.270  1.00  0.00    -0.240 N 
HETATM    4  C   UNL     1      43.546 -15.575   5.452  1.00  0.00     0.221 C 
HETATM    5  C   UNL     1      42.606 -16.575   6.156  1.00  0.00     0.066 C 
HETATM    6  C   UNL     1      41.890 -17.485   5.144  1.00  0.00     0.118 C 
HETATM    7  N   UNL     1      41.134 -16.615   4.227  1.00  0.00    -0.365 N 
HETATM    8  N   UNL     1      43.510 -14.088   3.522  1.00  0.00    -0.181 NA
HETATM    9  C   UNL     1      42.661 -13.908   2.506  1.00  0.00     0.160 A 
HETATM   10  H   UNL     1      40.488 -17.143   3.637  1.00  0.00     0.161 HD
ENDROOT
BRANCH   1  11
HETATM   11  C   UNL     1      40.423 -14.807   1.638  1.00  0.00     0.261 C 
HETATM   12  N   UNL     1      40.748 -14.307   0.391  1.00  0.00    -0.323 N 
HETATM   13  H   UNL     1      41.730 -14.095   0.252  1.00  0.00     0.169 HD
HETATM   14  O   UNL     1      39.351 -15.305   1.960  1.00  0.00    -0.267 OA
BRANCH  12  15
HETATM   15  C   UNL     1      39.909 -14.192  -0.734  1.00  0.00     0.035 A 
HETATM   16  C   UNL     1      40.170 -14.801  -1.960  1.00  0.00     0.030 A 
HETATM   17  C   UNL     1      39.286 -14.644  -3.035  1.00  0.00     0.012 A 
HETATM   18  C   UNL     1      38.126 -13.870  -2.903  1.00  0.00    -0.030 A 
HETATM   19  C   UNL     1      37.870 -13.256  -1.670  1.00  0.00     0.012 A 
HETATM   20  C   UNL     1      38.747 -13.426  -0.593  1.00  0.00     0.030 A 
BRANCH  18  21
HETATM   21  C   UNL     1      37.203 -13.680  -4.087  1.00  0.00     0.147 C 
HETATM   22  C   UNL     1      36.272 -12.491  -3.897  1.00  0.00     0.044 C 
BRANCH  21  23
HETATM   23  O   UNL     1      36.418 -14.852  -4.301  1.00  0.00    -0.391 OA
HETATM   24  H   UNL     1      36.872 -15.581  -3.846  1.00  0.00     0.210 HD
ENDBRANCH  21  23
ENDBRANCH  18  21
ENDBRANCH  12  15
ENDBRANCH   1  11
BRANCH   4  25
HETATM   25  C   UNL     1      43.940 -14.487   6.427  1.00  0.00     0.409 C 
HETATM   26  F   UNL     1      43.026 -13.491   6.481  1.00  0.00    -0.169 F 
HETATM   27  F   UNL     1      44.013 -15.008   7.682  1.00  0.00    -0.169 F 
HETATM   28  F   UNL     1      45.147 -13.942   6.177  1.00  0.00    -0.169 F 
ENDBRANCH   4  25
BRANCH   6  29
HETATM   29  C   UNL     1      42.812 -18.473   4.428  1.00  0.00    -0.035 A 
HETATM   30  C   UNL     1      42.698 -18.645   3.032  1.00  0.00     0.012 A 
HETATM   31  C   UNL     1      43.522 -19.539   2.343  1.00  0.00     0.043 A 
HETATM   32  C   UNL     1      44.486 -20.256   3.036  1.00  0.00     0.116 A 
HETATM   33  F   UNL     1      45.278 -21.110   2.374  1.00  0.00    -0.206 F 
HETATM   34  C   UNL     1      44.644 -20.093   4.403  1.00  0.00     0.043 A 
HETATM   35  C   UNL     1      43.816 -19.204   5.094  1.00  0.00     0.012 A 
ENDBRANCH   6  29
TORSDOF 6
ENDMDL
MODEL 3
REMARK VINA RESULT:      -9.0      4.334      8.843
REMARK  6 active torsions:
REMARK  status: ('A' for Active; 'I' for Inactive)
REMARK    1  A    between atoms: C_2  and  O_3 
REMARK    2  A    between atoms: C_2  and  C_4 
REMARK    3  A    between atoms: C_7  and  N_8 
REMARK       I    between atoms: N_8  and  C_9 
REMARK    4  A    between atoms: C_9  and  C_10 
REMARK    5  A    between atoms: C_13  and  C_14 
REMARK    6  A    between atoms: C_19  and  C_20 
ROOT
HETATM    1  C   UNL     1      41.516 -14.460   0.722  1.00  0.00     0.096 A 
HETATM    2  C   UNL     1      41.669 -14.154  -0.618  1.00  0.00     0.138 A 
HETATM    3  N   UNL     1      41.517 -12.789  -0.712  1.00  0.00    -0.240 N 
HETATM    4  C   UNL     1      41.558 -12.042  -1.957  1.00  0.00     0.221 C 
HETATM    5  C   UNL     1      42.107 -12.923  -3.097  1.00  0.00     0.066 C 
HETATM    6  C   UNL     1      41.523 -14.345  -3.045  1.00  0.00     0.118 C 
HETATM    7  N   UNL     1      41.870 -14.915  -1.731  1.00  0.00    -0.365 N 
HETATM    8  N   UNL     1      41.127 -12.217   0.436  1.00  0.00    -0.181 NA
HETATM    9  C   UNL     1      41.146 -13.227   1.310  1.00  0.00     0.160 A 
HETATM   10  H   UNL     1      41.678 -15.917  -1.682  1.00  0.00     0.161 HD
ENDROOT
BRANCH   1  11
HETATM   11  C   UNL     1      41.629 -15.743   1.389  1.00  0.00     0.261 C 
HETATM   12  N   UNL     1      42.930 -16.063   1.730  1.00  0.00    -0.323 N 
HETATM   13  H   UNL     1      43.607 -15.320   1.600  1.00  0.00     0.169 HD
HETATM   14  O   UNL     1      40.632 -16.408   1.640  1.00  0.00    -0.267 OA
BRANCH  12  15
HETATM   15  C   UNL     1      43.388 -17.236   2.359  1.00  0.00     0.035 A 
HETATM   16  C   UNL     1      43.557 -17.362   3.737  1.00  0.00     0.030 A 
HETATM   17  C   UNL     1      44.016 -18.562   4.292  1.00  0.00     0.012 A 
HETATM   18  C   UNL     1      44.318 -19.660   3.476  1.00  0.00    -0.030 A 
HETATM   19  C   UNL     1      44.153 -19.528   2.091  1.00  0.00     0.012 A 
HETATM   20  C   UNL     1      43.680 -18.333   1.540  1.00  0.00     0.030 A 
BRANCH  18  21
HETATM   21  C   UNL     1      44.850 -20.937   4.090  1.00  0.00     0.147 C 
HETATM   22  C   UNL     1      44.433 -22.166   3.295  1.00  0.00     0.044 C 
BRANCH  21  23
HETATM   23  O   UNL     1      44.388 -21.076   5.432  1.00  0.00    -0.391 OA
HETATM   24  H   UNL     1      43.417 -21.026   5.401  1.00  0.00     0.210 HD
ENDBRANCH  21  23
ENDBRANCH  18  21
ENDBRANCH  12  15
ENDBRANCH   1  11
BRANCH   4  25
HETATM   25  C   UNL     1      42.410 -10.799  -1.828  1.00  0.00     0.409 C 
HETATM   26  F   UNL     1      42.758 -10.288  -3.032  1.00  0.00    -0.169 F 
HETATM   27  F   UNL     1      41.700  -9.827  -1.191  1.00  0.00    -0.169 F 
HETATM   28  F   UNL     1      43.532 -10.979  -1.104  1.00  0.00    -0.169 F 
ENDBRANCH   4  25
BRANCH   6  29
HETATM   29  C   UNL     1      40.030 -14.421  -3.369  1.00  0.00    -0.035 A 
HETATM   30  C   UNL     1      39.456 -15.663  -3.713  1.00  0.00     0.012 A 
HETATM   31  C   UNL     1      38.096 -15.772  -4.016  1.00  0.00     0.043 A 
HETATM   32  C   UNL     1      37.288 -14.646  -3.958  1.00  0.00     0.116 A 
HETATM   33  F   UNL     1      35.984 -14.752  -4.246  1.00  0.00    -0.206 F 
HETATM   34  C   UNL     1      37.813 -13.415  -3.599  1.00  0.00     0.043 A 
HETATM   35  C   UNL     1      39.175 -13.304  -3.301  1.00  0.00     0.012 A 
ENDBRANCH   6  29
TORSDOF 6
ENDMDL
MODEL 4
REMARK VINA RESULT:      -8.4      4.462      8.984
REMARK  6 active torsions:
REMARK  status: ('A' for Active; 'I' for Inactive)
REMARK    1  A    between atoms: C_2  and  O_3 
REMARK    2  A    between atoms: C_2  and  C_4 
REMARK    3  A    between atoms: C_7  and  N_8 
REMARK       I    between atoms: N_8  and  C_9 
REMARK    4  A    between atoms: C_9  and  C_10 
REMARK    5  A    between atoms: C_13  and  C_14 
REMARK    6  A    between atoms: C_19  and  C_20 
ROOT
HETATM    1  C   UNL     1      41.019 -15.466   0.655  1.00  0.00     0.096 A 
HETATM    2  C   UNL     1      39.849 -14.775   0.398  1.00  0.00     0.138 A 
HETATM    3  N   UNL     1      40.147 -13.898  -0.620  1.00  0.00    -0.240 N 
HETATM    4  C   UNL     1      39.211 -12.938  -1.177  1.00  0.00     0.221 C 
HETATM    5  C   UNL     1      37.775 -13.250  -0.709  1.00  0.00     0.066 C 
HETATM    6  C   UNL     1      37.735 -13.622   0.783  1.00  0.00     0.118 C 
HETATM    7  N   UNL     1      38.611 -14.791   0.968  1.00  0.00    -0.365 N 
HETATM    8  N   UNL     1      41.451 -13.864  -0.930  1.00  0.00    -0.181 NA
HETATM    9  C   UNL     1      41.977 -14.830  -0.170  1.00  0.00     0.160 A 
HETATM   10  H   UNL     1      38.503 -15.213   1.892  1.00  0.00     0.161 HD
ENDROOT
BRANCH   1  11
HETATM   11  C   UNL     1      41.259 -16.545   1.595  1.00  0.00     0.261 C 
HETATM   12  N   UNL     1      42.585 -16.933   1.648  1.00  0.00    -0.323 N 
HETATM   13  H   UNL     1      43.230 -16.339   1.138  1.00  0.00     0.169 HD
HETATM   14  O   UNL     1      40.348 -16.991   2.281  1.00  0.00    -0.267 OA
BRANCH  12  15
HETATM   15  C   UNL     1      43.149 -17.959   2.429  1.00  0.00     0.035 A 
HETATM   16  C   UNL     1      43.449 -17.826   3.784  1.00  0.00     0.030 A 
HETATM   17  C   UNL     1      44.008 -18.893   4.497  1.00  0.00     0.012 A 
HETATM   18  C   UNL     1      44.280 -20.113   3.866  1.00  0.00    -0.030 A 
HETATM   19  C   UNL     1      43.982 -20.241   2.503  1.00  0.00     0.012 A 
HETATM   20  C   UNL     1      43.410 -19.179   1.795  1.00  0.00     0.030 A 
BRANCH  18  21
HETATM   21  C   UNL     1      44.920 -21.243   4.644  1.00  0.00     0.147 C 
HETATM   22  C   UNL     1      44.684 -22.593   3.984  1.00  0.00     0.044 C 
BRANCH  21  23
HETATM   23  O   UNL     1      44.409 -21.284   5.975  1.00  0.00    -0.391 OA
HETATM   24  H   UNL     1      43.452 -21.446   5.904  1.00  0.00     0.210 HD
ENDBRANCH  21  23
ENDBRANCH  18  21
ENDBRANCH  12  15
ENDBRANCH   1  11
BRANCH   4  25
HETATM   25  C   UNL     1      39.256 -12.935  -2.690  1.00  0.00     0.409 C 
HETATM   26  F   UNL     1      39.412 -14.177  -3.201  1.00  0.00    -0.169 F 
HETATM   27  F   UNL     1      38.073 -12.467  -3.176  1.00  0.00    -0.169 F 
HETATM   28  F   UNL     1      40.213 -12.140  -3.206  1.00  0.00    -0.169 F 
ENDBRANCH   4  25
BRANCH   6  29
HETATM   29  C   UNL     1      38.058 -12.462   1.726  1.00  0.00    -0.035 A 
HETATM   30  C   UNL     1      37.354 -11.246   1.600  1.00  0.00     0.012 A 
HETATM   31  C   UNL     1      37.621 -10.163   2.443  1.00  0.00     0.043 A 
HETATM   32  C   UNL     1      38.581 -10.289   3.437  1.00  0.00     0.116 A 
HETATM   33  F   UNL     1      38.834  -9.252   4.246  1.00  0.00    -0.206 F 
HETATM   34  C   UNL     1      39.274 -11.477   3.606  1.00  0.00     0.043 A 
HETATM   35  C   UNL     1      39.011 -12.558   2.760  1.00  0.00     0.012 A 
ENDBRANCH   6  29
TORSDOF 6
ENDMDL
MODEL 5
REMARK VINA RESULT:      -8.3      2.481      3.284
REMARK  6 active torsions:
REMARK  status: ('A' for Active; 'I' for Inactive)
REMARK    1  A    between atoms: C_2  and  O_3 
REMARK    2  A    between atoms: C_2  and  C_4 
REMARK    3  A    between atoms: C_7  and  N_8 
REMARK       I    between atoms: N_8  and  C_9 
REMARK    4  A    between atoms: C_9  and  C_10 
REMARK    5  A    between atoms: C_13  and  C_14 
REMARK    6  A    between atoms: C_19  and  C_20 
ROOT
HETATM    1  C   UNL     1      41.913 -14.070   3.095  1.00  0.00     0.096 A 
HETATM    2  C   UNL     1      42.025 -15.009   4.104  1.00  0.00     0.138 A 
HETATM    3  N   UNL     1      43.219 -14.742   4.735  1.00  0.00    -0.240 N 
HETATM    4  C   UNL     1      43.759 -15.521   5.835  1.00  0.00     0.221 C 
HETATM    5  C   UNL     1      42.684 -16.469   6.403  1.00  0.00     0.066 C 
HETATM    6  C   UNL     1      41.870 -17.138   5.282  1.00  0.00     0.118 C 
HETATM    7  N   UNL     1      41.251 -16.064   4.486  1.00  0.00    -0.365 N 
HETATM    8  N   UNL     1      43.952 -13.806   4.114  1.00  0.00    -0.181 NA
HETATM    9  C   UNL     1      43.151 -13.385   3.131  1.00  0.00     0.160 A 
HETATM   10  H   UNL     1      40.551 -16.420   3.834  1.00  0.00     0.161 HD
ENDROOT
BRANCH   1  11
HETATM   11  C   UNL     1      40.828 -13.858   2.155  1.00  0.00     0.261 C 
HETATM   12  N   UNL     1      39.883 -12.959   2.613  1.00  0.00    -0.323 N 
HETATM   13  H   UNL     1      40.130 -12.468   3.466  1.00  0.00     0.169 HD
HETATM   14  O   UNL     1      40.830 -14.411   1.062  1.00  0.00    -0.267 OA
BRANCH  12  15
HETATM   15  C   UNL     1      38.701 -12.552   1.966  1.00  0.00     0.035 A 
HETATM   16  C   UNL     1      37.987 -13.356   1.079  1.00  0.00     0.030 A 
HETATM   17  C   UNL     1      36.816 -12.883   0.474  1.00  0.00     0.012 A 
HETATM   18  C   UNL     1      36.340 -11.594   0.744  1.00  0.00    -0.030 A 
HETATM   19  C   UNL     1      37.064 -10.787   1.632  1.00  0.00     0.012 A 
HETATM   20  C   UNL     1      38.225 -11.267   2.247  1.00  0.00     0.030 A 
BRANCH  18  21
HETATM   21  C   UNL     1      35.094 -11.085   0.052  1.00  0.00     0.147 C 
HETATM   22  C   UNL     1      35.284  -9.682  -0.503  1.00  0.00     0.044 C 
BRANCH  21  23
HETATM   23  O   UNL     1      33.988 -11.079   0.953  1.00  0.00    -0.391 OA
HETATM   24  H   UNL     1      33.292 -11.623   0.546  1.00  0.00     0.210 HD
ENDBRANCH  21  23
ENDBRANCH  18  21
ENDBRANCH  12  15
ENDBRANCH   1  11
BRANCH   4  25
HETATM   25  C   UNL     1      44.278 -14.630   6.942  1.00  0.00     0.409 C 
HETATM   26  F   UNL     1      45.578 -14.302   6.769  1.00  0.00    -0.169 F 
HETATM   27  F   UNL     1      43.584 -13.459   6.942  1.00  0.00    -0.169 F 
HETATM   28  F   UNL     1      44.132 -15.152   8.175  1.00  0.00    -0.169 F 
ENDBRANCH   4  25
BRANCH   6  29
HETATM   29  C   UNL     1      42.665 -18.139   4.443  1.00  0.00    -0.035 A 
HETATM   30  C   UNL     1      42.415 -18.240   3.058  1.00  0.00     0.012 A 
HETATM   31  C   UNL     1      43.121 -19.143   2.259  1.00  0.00     0.043 A 
HETATM   32  C   UNL     1      44.101 -19.943   2.829  1.00  0.00     0.116 A 
HETATM   33  F   UNL     1      44.779 -20.806   2.061  1.00  0.00    -0.206 F 
HETATM   34  C   UNL     1      44.390 -19.852   4.181  1.00  0.00     0.043 A 
HETATM   35  C   UNL     1      43.681 -18.953   4.982  1.00  0.00     0.012 A 
ENDBRANCH   6  29
TORSDOF 6
ENDMDL
MODEL 6
REMARK VINA RESULT:      -8.3      2.233      3.089
REMARK  6 active torsions:
REMARK  status: ('A' for Active; 'I' for Inactive)
REMARK    1  A    between atoms: C_2  and  O_3 
REMARK    2  A    between atoms: C_2  and  C_4 
REMARK    3  A    between atoms: C_7  and  N_8 
REMARK       I    between atoms: N_8  and  C_9 
REMARK    4  A    between atoms: C_9  and  C_10 
REMARK    5  A    between atoms: C_13  and  C_14 
REMARK    6  A    between atoms: C_19  and  C_20 
ROOT
HETATM    1  C   UNL     1      41.032 -13.934   0.318  1.00  0.00     0.096 A 
HETATM    2  C   UNL     1      40.853 -14.613   1.509  1.00  0.00     0.138 A 
HETATM    3  N   UNL     1      41.632 -13.958   2.436  1.00  0.00    -0.240 N 
HETATM    4  C   UNL     1      41.778 -14.367   3.821  1.00  0.00     0.221 C 
HETATM    5  C   UNL     1      40.712 -15.419   4.189  1.00  0.00     0.066 C 
HETATM    6  C   UNL     1      40.534 -16.459   3.070  1.00  0.00     0.118 C 
HETATM    7  N   UNL     1      40.149 -15.730   1.849  1.00  0.00    -0.365 N 
HETATM    8  N   UNL     1      42.412 -13.009   1.900  1.00  0.00    -0.181 NA
HETATM    9  C   UNL     1      42.033 -12.981   0.619  1.00  0.00     0.160 A 
HETATM   10  H   UNL     1      39.837 -16.358   1.106  1.00  0.00     0.161 HD
ENDROOT
BRANCH   1  11
HETATM   11  C   UNL     1      40.409 -14.164  -0.972  1.00  0.00     0.261 C 
HETATM   12  N   UNL     1      39.161 -13.579  -1.084  1.00  0.00    -0.323 N 
HETATM   13  H   UNL     1      38.903 -12.962  -0.321  1.00  0.00     0.169 HD
HETATM   14  O   UNL     1      40.999 -14.781  -1.850  1.00  0.00    -0.267 OA
BRANCH  12  15
HETATM   15  C   UNL     1      38.284 -13.631  -2.183  1.00  0.00     0.035 A 
HETATM   16  C   UNL     1      37.897 -14.814  -2.810  1.00  0.00     0.030 A 
HETATM   17  C   UNL     1      37.018 -14.788  -3.900  1.00  0.00     0.012 A 
HETATM   18  C   UNL     1      36.512 -13.575  -4.384  1.00  0.00    -0.030 A 
HETATM   19  C   UNL     1      36.907 -12.388  -3.754  1.00  0.00     0.012 A 
HETATM   20  C   UNL     1      37.774 -12.417  -2.656  1.00  0.00     0.030 A 
BRANCH  18  21
HETATM   21  C   UNL     1      35.592 -13.563  -5.586  1.00  0.00     0.147 C 
HETATM   22  C   UNL     1      34.542 -12.466  -5.488  1.00  0.00     0.044 C 
BRANCH  21  23
HETATM   23  O   UNL     1      34.935 -14.821  -5.725  1.00  0.00    -0.391 OA
HETATM   24  H   UNL     1      34.662 -14.894  -6.656  1.00  0.00     0.210 HD
ENDBRANCH  21  23
ENDBRANCH  18  21
ENDBRANCH  12  15
ENDBRANCH   1  11
BRANCH   4  25
HETATM   25  C   UNL     1      41.664 -13.187   4.762  1.00  0.00     0.409 C 
HETATM   26  F   UNL     1      40.751 -12.282   4.341  1.00  0.00    -0.169 F 
HETATM   27  F   UNL     1      41.240 -13.620   5.981  1.00  0.00    -0.169 F 
HETATM   28  F   UNL     1      42.829 -12.546   4.976  1.00  0.00    -0.169 F 
ENDBRANCH   4  25
BRANCH   6  29
HETATM   29  C   UNL     1      41.738 -17.382   2.877  1.00  0.00    -0.035 A 
HETATM   30  C   UNL     1      42.274 -17.564   1.585  1.00  0.00     0.012 A 
HETATM   31  C   UNL     1      43.373 -18.400   1.368  1.00  0.00     0.043 A 
HETATM   32  C   UNL     1      43.963 -19.049   2.443  1.00  0.00     0.116 A 
HETATM   33  F   UNL     1      45.018 -19.848   2.235  1.00  0.00    -0.206 F 
HETATM   34  C   UNL     1      43.478 -18.874   3.729  1.00  0.00     0.043 A 
HETATM   35  C   UNL     1      42.376 -18.042   3.946  1.00  0.00     0.012 A 
ENDBRANCH   6  29
TORSDOF 6
ENDMDL
MODEL 7
REMARK VINA RESULT:      -8.2      5.182      9.802
REMARK  6 active torsions:
REMARK  status: ('A' for Active; 'I' for Inactive)
REMARK    1  A    between atoms: C_2  and  O_3 
REMARK    2  A    between atoms: C_2  and  C_4 
REMARK    3  A    between atoms: C_7  and  N_8 
REMARK       I    between atoms: N_8  and  C_9 
REMARK    4  A    between atoms: C_9  and  C_10 
REMARK    5  A    between atoms: C_13  and  C_14 
REMARK    6  A    between atoms: C_19  and  C_20 
ROOT
HETATM    1  C   UNL     1      40.912 -15.401  -0.942  1.00  0.00     0.096 A 
HETATM    2  C   UNL     1      40.026 -14.378  -1.226  1.00  0.00     0.138 A 
HETATM    3  N   UNL     1      39.565 -14.623  -2.500  1.00  0.00    -0.240 N 
HETATM    4  C   UNL     1      38.641 -13.764  -3.219  1.00  0.00     0.221 C 
HETATM    5  C   UNL     1      38.005 -12.736  -2.261  1.00  0.00     0.066 C 
HETATM    6  C   UNL     1      39.044 -12.147  -1.292  1.00  0.00     0.118 C 
HETATM    7  N   UNL     1      39.629 -13.270  -0.539  1.00  0.00    -0.365 N 
HETATM    8  N   UNL     1      40.201 -15.633  -3.111  1.00  0.00    -0.181 NA
HETATM    9  C   UNL     1      41.004 -16.117  -2.159  1.00  0.00     0.160 A 
HETATM   10  H   UNL     1      40.195 -12.953   0.250  1.00  0.00     0.161 HD
ENDROOT
BRANCH   1  11
HETATM   11  C   UNL     1      41.647 -15.664   0.281  1.00  0.00     0.261 C 
HETATM   12  N   UNL     1      41.724 -17.010   0.587  1.00  0.00    -0.323 N 
HETATM   13  H   UNL     1      41.386 -17.638  -0.133  1.00  0.00     0.169 HD
HETATM   14  O   UNL     1      42.166 -14.749   0.908  1.00  0.00    -0.267 OA
BRANCH  12  15
HETATM   15  C   UNL     1      42.338 -17.601   1.707  1.00  0.00     0.035 A 
HETATM   16  C   UNL     1      41.844 -17.497   3.007  1.00  0.00     0.030 A 
HETATM   17  C   UNL     1      42.509 -18.115   4.073  1.00  0.00     0.012 A 
HETATM   18  C   UNL     1      43.684 -18.847   3.858  1.00  0.00    -0.030 A 
HETATM   19  C   UNL     1      44.179 -18.945   2.551  1.00  0.00     0.012 A 
HETATM   20  C   UNL     1      43.506 -18.339   1.486  1.00  0.00     0.030 A 
BRANCH  18  21
HETATM   21  C   UNL     1      44.410 -19.476   5.027  1.00  0.00     0.147 C 
HETATM   22  C   UNL     1      45.090 -18.433   5.901  1.00  0.00     0.044 C 
BRANCH  21  23
HETATM   23  O   UNL     1      45.390 -20.404   4.566  1.00  0.00    -0.391 OA
HETATM   24  H   UNL     1      45.258 -21.226   5.070  1.00  0.00     0.210 HD
ENDBRANCH  21  23
ENDBRANCH  18  21
ENDBRANCH  12  15
ENDBRANCH   1  11
BRANCH   4  25
HETATM   25  C   UNL     1      37.548 -14.566  -3.891  1.00  0.00     0.409 C 
HETATM   26  F   UNL     1      36.910 -15.388  -3.027  1.00  0.00    -0.169 F 
HETATM   27  F   UNL     1      36.603 -13.719  -4.383  1.00  0.00    -0.169 F 
HETATM   28  F   UNL     1      37.975 -15.299  -4.937  1.00  0.00    -0.169 F 
ENDBRANCH   4  25
BRANCH   6  29
HETATM   29  C   UNL     1      40.087 -11.251  -1.961  1.00  0.00    -0.035 A 
HETATM   30  C   UNL     1      39.669 -10.249  -2.862  1.00  0.00     0.012 A 
HETATM   31  C   UNL     1      40.593  -9.412  -3.494  1.00  0.00     0.043 A 
HETATM   32  C   UNL     1      41.945  -9.551  -3.216  1.00  0.00     0.116 A 
HETATM   33  F   UNL     1      42.829  -8.745  -3.820  1.00  0.00    -0.206 F 
HETATM   34  C   UNL     1      42.389 -10.507  -2.317  1.00  0.00     0.043 A 
HETATM   35  C   UNL     1      41.466 -11.348  -1.690  1.00  0.00     0.012 A 
ENDBRANCH   6  29
TORSDOF 6
ENDMDL
MODEL 8
REMARK VINA RESULT:      -8.1      4.502      8.527
REMARK  6 active torsions:
REMARK  status: ('A' for Active; 'I' for Inactive)
REMARK    1  A    between atoms: C_2  and  O_3 
REMARK    2  A    between atoms: C_2  and  C_4 
REMARK    3  A    between atoms: C_7  and  N_8 
REMARK       I    between atoms: N_8  and  C_9 
REMARK    4  A    between atoms: C_9  and  C_10 
REMARK    5  A    between atoms: C_13  and  C_14 
REMARK    6  A    between atoms: C_19  and  C_20 
ROOT
HETATM    1  C   UNL     1      41.074 -14.722   2.019  1.00  0.00     0.096 A 
HETATM    2  C   UNL     1      41.100 -13.366   1.748  1.00  0.00     0.138 A 
HETATM    3  N   UNL     1      39.803 -13.019   1.441  1.00  0.00    -0.240 N 
HETATM    4  C   UNL     1      39.381 -11.687   1.046  1.00  0.00     0.221 C 
HETATM    5  C   UNL     1      40.498 -10.661   1.327  1.00  0.00     0.066 C 
HETATM    6  C   UNL     1      41.880 -11.206   0.927  1.00  0.00     0.118 C 
HETATM    7  N   UNL     1      42.103 -12.445   1.693  1.00  0.00    -0.365 N 
HETATM    8  N   UNL     1      38.979 -14.072   1.344  1.00  0.00    -0.181 NA
HETATM    9  C   UNL     1      39.746 -15.103   1.715  1.00  0.00     0.160 A 
HETATM   10  H   UNL     1      43.068 -12.774   1.623  1.00  0.00     0.161 HD
ENDROOT
BRANCH   1  11
HETATM   11  C   UNL     1      42.153 -15.592   2.447  1.00  0.00     0.261 C 
HETATM   12  N   UNL     1      41.788 -16.925   2.491  1.00  0.00    -0.323 N 
HETATM   13  H   UNL     1      40.878 -17.138   2.097  1.00  0.00     0.169 HD
HETATM   14  O   UNL     1      43.266 -15.139   2.683  1.00  0.00    -0.267 OA
BRANCH  12  15
HETATM   15  C   UNL     1      42.581 -18.019   2.885  1.00  0.00     0.035 A 
HETATM   16  C   UNL     1      43.079 -18.974   1.999  1.00  0.00     0.030 A 
HETATM   17  C   UNL     1      43.864 -20.036   2.465  1.00  0.00     0.012 A 
HETATM   18  C   UNL     1      44.163 -20.163   3.828  1.00  0.00    -0.030 A 
HETATM   19  C   UNL     1      43.657 -19.204   4.715  1.00  0.00     0.012 A 
HETATM   20  C   UNL     1      42.885 -18.136   4.246  1.00  0.00     0.030 A 
BRANCH  18  21
HETATM   21  C   UNL     1      44.981 -21.338   4.318  1.00  0.00     0.147 C 
HETATM   22  C   UNL     1      44.661 -22.613   3.551  1.00  0.00     0.044 C 
BRANCH  21  23
HETATM   23  O   UNL     1      44.749 -21.564   5.707  1.00  0.00    -0.391 OA
HETATM   24  H   UNL     1      45.357 -20.979   6.192  1.00  0.00     0.210 HD
ENDBRANCH  21  23
ENDBRANCH  18  21
ENDBRANCH  12  15
ENDBRANCH   1  11
BRANCH   4  25
HETATM   25  C   UNL     1      38.122 -11.268   1.772  1.00  0.00     0.409 C 
HETATM   26  F   UNL     1      37.927  -9.930   1.731  1.00  0.00    -0.169 F 
HETATM   27  F   UNL     1      37.041 -11.831   1.164  1.00  0.00    -0.169 F 
HETATM   28  F   UNL     1      38.076 -11.664   3.059  1.00  0.00    -0.169 F 
ENDBRANCH   4  25
BRANCH   6  29
HETATM   29  C   UNL     1      42.072 -11.378  -0.581  1.00  0.00    -0.035 A 
HETATM   30  C   UNL     1      42.013 -10.247  -1.423  1.00  0.00     0.012 A 
HETATM   31  C   UNL     1      42.184 -10.364  -2.805  1.00  0.00     0.043 A 
HETATM   32  C   UNL     1      42.437 -11.609  -3.361  1.00  0.00     0.116 A 
HETATM   33  F   UNL     1      42.603 -11.719  -4.686  1.00  0.00    -0.206 F 
HETATM   34  C   UNL     1      42.527 -12.737  -2.562  1.00  0.00     0.043 A 
HETATM   35  C   UNL     1      42.351 -12.622  -1.180  1.00  0.00     0.012 A 
ENDBRANCH   6  29
TORSDOF 6
ENDMDL
MODEL 9
REMARK VINA RESULT:      -8.0      5.325      9.559
REMARK  6 active torsions:
REMARK  status: ('A' for Active; 'I' for Inactive)
REMARK    1  A    between atoms: C_2  and  O_3 
REMARK    2  A    between atoms: C_2  and  C_4 
REMARK    3  A    between atoms: C_7  and  N_8 
REMARK       I    between atoms: N_8  and  C_9 
REMARK    4  A    between atoms: C_9  and  C_10 
REMARK    5  A    between atoms: C_13  and  C_14 
REMARK    6  A    between atoms: C_19  and  C_20 
ROOT
HETATM    1  C   UNL     1      40.915 -11.987   6.143  1.00  0.00     0.096 A 
HETATM    2  C   UNL     1      41.597 -12.823   5.278  1.00  0.00     0.138 A 
HETATM    3  N   UNL     1      40.630 -13.522   4.591  1.00  0.00    -0.240 N 
HETATM    4  C   UNL     1      40.906 -14.551   3.604  1.00  0.00     0.221 C 
HETATM    5  C   UNL     1      42.394 -14.526   3.200  1.00  0.00     0.066 C 
HETATM    6  C   UNL     1      43.308 -14.335   4.422  1.00  0.00     0.118 C 
HETATM    7  N   UNL     1      42.921 -13.069   5.067  1.00  0.00    -0.365 N 
HETATM    8  N   UNL     1      39.390 -13.311   5.055  1.00  0.00    -0.181 NA
HETATM    9  C   UNL     1      39.562 -12.365   5.984  1.00  0.00     0.160 A 
HETATM   10  H   UNL     1      43.594 -12.776   5.779  1.00  0.00     0.161 HD
ENDROOT
BRANCH   1  11
HETATM   11  C   UNL     1      41.440 -10.996   7.064  1.00  0.00     0.261 C 
HETATM   12  N   UNL     1      41.303 -11.363   8.390  1.00  0.00    -0.323 N 
HETATM   13  H   UNL     1      40.988 -12.314   8.546  1.00  0.00     0.169 HD
HETATM   14  O   UNL     1      41.982  -9.980   6.648  1.00  0.00    -0.267 OA
BRANCH  12  15
HETATM   15  C   UNL     1      41.680 -10.625   9.528  1.00  0.00     0.035 A 
HETATM   16  C   UNL     1      42.861 -10.842  10.237  1.00  0.00     0.030 A 
HETATM   17  C   UNL     1      43.170 -10.066  11.360  1.00  0.00     0.012 A 
HETATM   18  C   UNL     1      42.300  -9.058  11.797  1.00  0.00    -0.030 A 
HETATM   19  C   UNL     1      41.113  -8.846  11.085  1.00  0.00     0.012 A 
HETATM   20  C   UNL     1      40.812  -9.613   9.954  1.00  0.00     0.030 A 
BRANCH  18  21
HETATM   21  C   UNL     1      42.633  -8.255  13.036  1.00  0.00     0.147 C 
HETATM   22  C   UNL     1      43.313  -9.104  14.099  1.00  0.00     0.044 C 
BRANCH  21  23
HETATM   23  O   UNL     1      41.451  -7.679  13.590  1.00  0.00    -0.391 OA
HETATM   24  H   UNL     1      40.761  -7.744  12.908  1.00  0.00     0.210 HD
ENDBRANCH  21  23
ENDBRANCH  18  21
ENDBRANCH  12  15
ENDBRANCH   1  11
BRANCH   4  25
HETATM   25  C   UNL     1      40.048 -14.377   2.369  1.00  0.00     0.409 C 
HETATM   26  F   UNL     1      39.772 -13.077   2.116  1.00  0.00    -0.169 F 
HETATM   27  F   UNL     1      40.721 -14.844   1.282  1.00  0.00    -0.169 F 
HETATM   28  F   UNL     1      38.886 -15.057   2.412  1.00  0.00    -0.169 F 
ENDBRANCH   4  25
BRANCH   6  29
HETATM   29  C   UNL     1      43.329 -15.527   5.381  1.00  0.00    -0.035 A 
HETATM   30  C   UNL     1      43.196 -16.835   4.868  1.00  0.00     0.012 A 
HETATM   31  C   UNL     1      43.210 -17.948   5.713  1.00  0.00     0.043 A 
HETATM   32  C   UNL     1      43.379 -17.771   7.078  1.00  0.00     0.116 A 
HETATM   33  F   UNL     1      43.396 -18.839   7.886  1.00  0.00    -0.206 F 
HETATM   34  C   UNL     1      43.539 -16.503   7.613  1.00  0.00     0.043 A 
HETATM   35  C   UNL     1      43.519 -15.388   6.770  1.00  0.00     0.012 A 
ENDBRANCH   6  29
TORSDOF 6
ENDMDL
MODEL 10
REMARK VINA RESULT:      -7.9      4.425      9.290
REMARK  6 active torsions:
REMARK  status: ('A' for Active; 'I' for Inactive)
REMARK    1  A    between atoms: C_2  and  O_3 
REMARK    2  A    between atoms: C_2  and  C_4 
REMARK    3  A    between atoms: C_7  and  N_8 
REMARK       I    between atoms: N_8  and  C_9 
REMARK    4  A    between atoms: C_9  and  C_10 
REMARK    5  A    between atoms: C_13  and  C_14 
REMARK    6  A    between atoms: C_19  and  C_20 
ROOT
HETATM    1  C   UNL     1      41.589 -14.387   0.768  1.00  0.00     0.096 A 
HETATM    2  C   UNL     1      40.924 -14.144  -0.420  1.00  0.00     0.138 A 
HETATM    3  N   UNL     1      41.477 -12.991  -0.931  1.00  0.00    -0.240 N 
HETATM    4  C   UNL     1      41.042 -12.343  -2.155  1.00  0.00     0.221 C 
HETATM    5  C   UNL     1      40.117 -13.278  -2.961  1.00  0.00     0.066 C 
HETATM    6  C   UNL     1      39.114 -14.004  -2.049  1.00  0.00     0.118 C 
HETATM    7  N   UNL     1      39.893 -14.767  -1.057  1.00  0.00    -0.365 N 
HETATM    8  N   UNL     1      42.335 -12.394  -0.090  1.00  0.00    -0.181 NA
HETATM    9  C   UNL     1      42.417 -13.252   0.932  1.00  0.00     0.160 A 
HETATM   10  H   UNL     1      39.311 -15.419  -0.527  1.00  0.00     0.161 HD
ENDROOT
BRANCH   1  11
HETATM   11  C   UNL     1      41.442 -15.499   1.689  1.00  0.00     0.261 C 
HETATM   12  N   UNL     1      42.574 -15.724   2.450  1.00  0.00    -0.323 N 
HETATM   13  H   UNL     1      43.297 -15.017   2.371  1.00  0.00     0.169 HD
HETATM   14  O   UNL     1      40.382 -16.106   1.773  1.00  0.00    -0.267 OA
BRANCH  12  15
HETATM   15  C   UNL     1      42.774 -16.731   3.413  1.00  0.00     0.035 A 
HETATM   16  C   UNL     1      42.208 -16.709   4.687  1.00  0.00     0.030 A 
HETATM   17  C   UNL     1      42.452 -17.749   5.592  1.00  0.00     0.012 A 
HETATM   18  C   UNL     1      43.270 -18.830   5.239  1.00  0.00    -0.030 A 
HETATM   19  C   UNL     1      43.841 -18.846   3.960  1.00  0.00     0.012 A 
HETATM   20  C   UNL     1      43.585 -17.813   3.052  1.00  0.00     0.030 A 
BRANCH  18  21
HETATM   21  C   UNL     1      43.553 -19.926   6.244  1.00  0.00     0.147 C 
HETATM   22  C   UNL     1      43.898 -19.365   7.615  1.00  0.00     0.044 C 
BRANCH  21  23
HETATM   23  O   UNL     1      44.629 -20.748   5.797  1.00  0.00    -0.391 OA
HETATM   24  H   UNL     1      44.231 -21.492   5.312  1.00  0.00     0.210 HD
ENDBRANCH  21  23
ENDBRANCH  18  21
ENDBRANCH  12  15
ENDBRANCH   1  11
BRANCH   4  25
HETATM   25  C   UNL     1      42.219 -11.940  -3.016  1.00  0.00     0.409 C 
HETATM   26  F   UNL     1      43.204 -12.867  -3.006  1.00  0.00    -0.169 F 
HETATM   27  F   UNL     1      41.814 -11.825  -4.311  1.00  0.00    -0.169 F 
HETATM   28  F   UNL     1      42.754 -10.749  -2.684  1.00  0.00    -0.169 F 
ENDBRANCH   4  25
BRANCH   6  29
HETATM   29  C   UNL     1      38.060 -13.089  -1.424  1.00  0.00    -0.035 A 
HETATM   30  C   UNL     1      37.364 -12.172  -2.239  1.00  0.00     0.012 A 
HETATM   31  C   UNL     1      36.394 -11.320  -1.704  1.00  0.00     0.043 A 
HETATM   32  C   UNL     1      36.092 -11.387  -0.352  1.00  0.00     0.116 A 
HETATM   33  F   UNL     1      35.161 -10.571   0.159  1.00  0.00    -0.206 F 
HETATM   34  C   UNL     1      36.738 -12.293   0.474  1.00  0.00     0.043 A 
HETATM   35  C   UNL     1      37.712 -13.142  -0.059  1.00  0.00     0.012 A 
ENDBRANCH   6  29
TORSDOF 6
ENDMDL
