MODEL 1
REMARK VINA RESULT:      -9.6      0.000      0.000
REMARK  6 active torsions:
REMARK  status: ('A' for Active; 'I' for Inactive)
REMARK    1  A    between atoms: C_3  and  C_4 
REMARK    2  A    between atoms: C_4  and  C_5 
REMARK    3  A    between atoms: N_8  and  C_10 
REMARK    4  A    between atoms: C_10  and  C_11 
REMARK    5  A    between atoms: N_24  and  C_25 
REMARK    6  A    between atoms: C_25  and  C_26 
ROOT
HETATM    1  C   UNL     1      41.009 -14.592   1.796  1.00  0.00     0.164 C 
HETATM    2  N   UNL     1      42.440 -14.416   1.965  1.00  0.00    -0.319 N 
HETATM    3  C   UNL     1      42.762 -13.525   2.961  1.00  0.00     0.326 C 
HETATM    4  O   UNL     1      43.886 -13.381   3.403  1.00  0.00    -0.247 OA
HETATM    5  N   UNL     1      41.611 -12.945   3.399  1.00  0.00    -0.265 N 
HETATM    6  C   UNL     1      40.541 -13.451   2.720  1.00  0.00     0.263 C 
HETATM    7  O   UNL     1      39.378 -13.106   2.897  1.00  0.00    -0.270 OA
HETATM    8  H   UNL     1      43.154 -14.941   1.471  1.00  0.00     0.166 HD
ENDROOT
BRANCH   1   9
HETATM    9  C   UNL     1      40.615 -14.369   0.334  1.00  0.00     0.072 A 
HETATM   10  C   UNL     1      39.289 -14.168  -0.058  1.00  0.00     0.030 A 
HETATM   11  C   UNL     1      39.001 -13.950  -1.405  1.00  0.00     0.003 A 
HETATM   12  C   UNL     1      40.034 -13.911  -2.330  1.00  0.00     0.019 A 
HETATM   13  C   UNL     1      41.324 -14.087  -1.868  1.00  0.00     0.117 A 
HETATM   14  N   UNL     1      41.631 -14.311  -0.569  1.00  0.00    -0.262 NA
ENDBRANCH   1   9
BRANCH   1  15
HETATM   15  C   UNL     1      40.592 -16.020   2.342  1.00  0.00     0.033 C 
HETATM   16  C   UNL     1      41.106 -16.378   3.751  1.00  0.00     0.036 C 
HETATM   17  C   UNL     1      42.499 -16.991   3.828  1.00  0.00     0.235 C 
HETATM   18  N   UNL     1      42.680 -18.103   2.824  1.00  0.00    -0.067 N 
HETATM   19  H   UNL     1      42.106 -18.897   3.144  1.00  0.00     0.280 HD
HETATM   20  C   UNL     1      42.246 -17.763   1.426  1.00  0.00     0.235 C 
HETATM   21  C   UNL     1      40.829 -17.226   1.412  1.00  0.00     0.036 C 
BRANCH  18  22
HETATM   22  C   UNL     1      44.121 -18.607   2.790  1.00  0.00     0.278 C 
BRANCH  22  23
HETATM   23  C   UNL     1      44.353 -19.973   3.361  1.00  0.00     0.028 A 
HETATM   24  C   UNL     1      44.690 -20.195   4.702  1.00  0.00     0.045 A 
HETATM   25 CL   UNL     1      44.921 -18.874   5.789  1.00  0.00    -0.084 Cl
HETATM   26  C   UNL     1      44.868 -21.494   5.186  1.00  0.00     0.024 A 
HETATM   27  C   UNL     1      44.706 -22.590   4.334  1.00  0.00     0.005 A 
HETATM   28  C   UNL     1      44.373 -22.384   3.000  1.00  0.00     0.043 A 
HETATM   29  C   UNL     1      44.198 -21.087   2.530  1.00  0.00     0.126 A 
HETATM   30  F   UNL     1      43.883 -20.906   1.240  1.00  0.00    -0.205 F 
ENDBRANCH  22  23
ENDBRANCH  18  22
ENDBRANCH   1  15
BRANCH   5  31
HETATM   31  C   UNL     1      41.527 -11.915   4.425  1.00  0.00     0.168 C 
BRANCH  31  32
HETATM   32  C   UNL     1      41.574 -12.500   5.847  1.00  0.00     0.140 C 
HETATM   33  O   UNL     1      40.372 -13.245   6.089  1.00  0.00    -0.384 OA
HETATM   34  C   UNL     1      39.419 -12.387   6.742  1.00  0.00     0.168 C 
HETATM   35  C   UNL     1      40.116 -11.071   7.038  1.00  0.00     0.029 C 
HETATM   36  C   UNL     1      41.577 -11.427   6.922  1.00  0.00     0.036 C 
ENDBRANCH  31  32
ENDBRANCH   5  31
TORSDOF 6
ENDMDL
MODEL 2
REMARK VINA RESULT:      -9.2      1.533      1.991
REMARK  6 active torsions:
REMARK  status: ('A' for Active; 'I' for Inactive)
REMARK    1  A    between atoms: C_3  and  C_4 
REMARK    2  A    between atoms: C_4  and  C_5 
REMARK    3  A    between atoms: N_8  and  C_10 
REMARK    4  A    between atoms: C_10  and  C_11 
REMARK    5  A    between atoms: N_24  and  C_25 
REMARK    6  A    between atoms: C_25  and  C_26 
ROOT
HETATM    1  C   UNL     1      40.726 -14.670   2.482  1.00  0.00     0.164 C 
HETATM    2  N   UNL     1      42.106 -14.596   2.038  1.00  0.00    -0.319 N 
HETATM    3  C   UNL     1      42.942 -14.017   2.964  1.00  0.00     0.326 C 
HETATM    4  O   UNL     1      44.156 -14.036   2.885  1.00  0.00    -0.247 OA
HETATM    5  N   UNL     1      42.178 -13.537   3.984  1.00  0.00    -0.265 N 
HETATM    6  C   UNL     1      40.861 -13.805   3.750  1.00  0.00     0.263 C 
HETATM    7  O   UNL     1      39.943 -13.480   4.494  1.00  0.00    -0.270 OA
HETATM    8  H   UNL     1      42.464 -14.992   1.175  1.00  0.00     0.166 HD
ENDROOT
BRANCH   1   9
HETATM    9  C   UNL     1      39.798 -14.048   1.437  1.00  0.00     0.072 A 
HETATM   10  C   UNL     1      38.455 -14.418   1.318  1.00  0.00     0.030 A 
HETATM   11  C   UNL     1      37.658 -13.797   0.358  1.00  0.00     0.003 A 
HETATM   12  C   UNL     1      38.201 -12.806  -0.447  1.00  0.00     0.019 A 
HETATM   13  C   UNL     1      39.526 -12.469  -0.255  1.00  0.00     0.117 A 
HETATM   14  N   UNL     1      40.326 -13.062   0.662  1.00  0.00    -0.262 NA
ENDBRANCH   1   9
BRANCH   1  15
HETATM   15  C   UNL     1      40.367 -16.177   2.816  1.00  0.00     0.033 C 
HETATM   16  C   UNL     1      40.911 -16.718   4.153  1.00  0.00     0.036 C 
HETATM   17  C   UNL     1      42.325 -17.283   4.129  1.00  0.00     0.235 C 
HETATM   18  N   UNL     1      42.534 -18.229   2.972  1.00  0.00    -0.067 N 
HETATM   19  H   UNL     1      41.992 -19.082   3.176  1.00  0.00     0.280 HD
HETATM   20  C   UNL     1      42.071 -17.704   1.642  1.00  0.00     0.235 C 
HETATM   21  C   UNL     1      40.636 -17.224   1.717  1.00  0.00     0.036 C 
BRANCH  18  22
HETATM   22  C   UNL     1      43.992 -18.670   2.854  1.00  0.00     0.278 C 
BRANCH  22  23
HETATM   23  C   UNL     1      44.310 -20.033   3.386  1.00  0.00     0.028 A 
HETATM   24  C   UNL     1      44.699 -20.267   4.711  1.00  0.00     0.045 A 
HETATM   25 CL   UNL     1      44.892 -18.960   5.822  1.00  0.00    -0.084 Cl
HETATM   26  C   UNL     1      44.958 -21.565   5.159  1.00  0.00     0.024 A 
HETATM   27  C   UNL     1      44.828 -22.649   4.287  1.00  0.00     0.005 A 
HETATM   28  C   UNL     1      44.446 -22.431   2.967  1.00  0.00     0.043 A 
HETATM   29  C   UNL     1      44.189 -21.136   2.533  1.00  0.00     0.126 A 
HETATM   30  F   UNL     1      43.827 -20.943   1.258  1.00  0.00    -0.205 F 
ENDBRANCH  22  23
ENDBRANCH  18  22
ENDBRANCH   1  15
BRANCH   5  31
HETATM   31  C   UNL     1      42.683 -12.820   5.146  1.00  0.00     0.168 C 
BRANCH  31  32
HETATM   32  C   UNL     1      42.749 -13.708   6.400  1.00  0.00     0.140 C 
HETATM   33  O   UNL     1      43.224 -12.925   7.506  1.00  0.00    -0.384 OA
HETATM   34  C   UNL     1      44.648 -13.095   7.615  1.00  0.00     0.168 C 
HETATM   35  C   UNL     1      45.063 -14.144   6.599  1.00  0.00     0.029 C 
HETATM   36  C   UNL     1      43.762 -14.833   6.270  1.00  0.00     0.036 C 
ENDBRANCH  31  32
ENDBRANCH   5  31
TORSDOF 6
ENDMDL
MODEL 3
REMARK VINA RESULT:      -9.1      1.923      4.958
REMARK  6 active torsions:
REMARK  status: ('A' for Active; 'I' for Inactive)
REMARK    1  A    between atoms: C_3  and  C_4 
REMARK    2  A    between atoms: C_4  and  C_5 
REMARK    3  A    between atoms: N_8  and  C_10 
REMARK    4  A    between atoms: C_10  and  C_11 
REMARK    5  A    between atoms: N_24  and  C_25 
REMARK    6  A    between atoms: C_25  and  C_26 
ROOT
HETATM    1  C   UNL     1      40.685 -14.719   1.997  1.00  0.00     0.164 C 
HETATM    2  N   UNL     1      39.401 -14.116   2.308  1.00  0.00    -0.319 N 
HETATM    3  C   UNL     1      38.921 -13.315   1.299  1.00  0.00     0.326 C 
HETATM    4  O   UNL     1      37.786 -12.879   1.263  1.00  0.00    -0.247 OA
HETATM    5  N   UNL     1      39.890 -13.204   0.349  1.00  0.00    -0.265 N 
HETATM    6  C   UNL     1      40.988 -13.929   0.710  1.00  0.00     0.263 C 
HETATM    7  O   UNL     1      42.018 -14.005   0.051  1.00  0.00    -0.270 OA
HETATM    8  H   UNL     1      38.852 -14.309   3.140  1.00  0.00     0.166 HD
ENDROOT
BRANCH   1   9
HETATM    9  C   UNL     1      41.689 -14.435   3.116  1.00  0.00     0.072 A 
HETATM   10  C   UNL     1      43.056 -14.275   2.869  1.00  0.00     0.030 A 
HETATM   11  C   UNL     1      43.914 -13.997   3.932  1.00  0.00     0.003 A 
HETATM   12  C   UNL     1      43.398 -13.859   5.213  1.00  0.00     0.019 A 
HETATM   13  C   UNL     1      42.035 -14.000   5.380  1.00  0.00     0.117 A 
HETATM   14  N   UNL     1      41.179 -14.280   4.369  1.00  0.00    -0.262 NA
ENDBRANCH   1   9
BRANCH   1  15
HETATM   15  C   UNL     1      40.480 -16.266   1.722  1.00  0.00     0.033 C 
HETATM   16  C   UNL     1      40.533 -17.182   2.961  1.00  0.00     0.036 C 
HETATM   17  C   UNL     1      41.914 -17.659   3.392  1.00  0.00     0.235 C 
HETATM   18  N   UNL     1      42.718 -18.182   2.227  1.00  0.00    -0.067 N 
HETATM   19  H   UNL     1      42.291 -19.074   1.939  1.00  0.00     0.280 HD
HETATM   20  C   UNL     1      42.738 -17.279   1.025  1.00  0.00     0.235 C 
HETATM   21  C   UNL     1      41.333 -16.901   0.606  1.00  0.00     0.036 C 
BRANCH  18  22
HETATM   22  C   UNL     1      44.155 -18.508   2.630  1.00  0.00     0.278 C 
BRANCH  22  23
HETATM   23  C   UNL     1      44.373 -19.856   3.245  1.00  0.00     0.028 A 
HETATM   24  C   UNL     1      44.687 -20.040   4.596  1.00  0.00     0.045 A 
HETATM   25 CL   UNL     1      44.901 -18.688   5.649  1.00  0.00    -0.084 Cl
HETATM   26  C   UNL     1      44.854 -21.325   5.121  1.00  0.00     0.024 A 
HETATM   27  C   UNL     1      44.705 -22.445   4.299  1.00  0.00     0.005 A 
HETATM   28  C   UNL     1      44.396 -22.277   2.954  1.00  0.00     0.043 A 
HETATM   29  C   UNL     1      44.231 -20.995   2.443  1.00  0.00     0.126 A 
HETATM   30  F   UNL     1      43.939 -20.850   1.143  1.00  0.00    -0.205 F 
ENDBRANCH  22  23
ENDBRANCH  18  22
ENDBRANCH   1  15
BRANCH   5  31
HETATM   31  C   UNL     1      39.787 -12.408  -0.866  1.00  0.00     0.168 C 
BRANCH  31  32
HETATM   32  C   UNL     1      38.979 -13.119  -1.965  1.00  0.00     0.140 C 
HETATM   33  O   UNL     1      39.285 -14.521  -1.942  1.00  0.00    -0.384 OA
HETATM   34  C   UNL     1      40.334 -14.781  -2.891  1.00  0.00     0.168 C 
HETATM   35  C   UNL     1      40.605 -13.488  -3.639  1.00  0.00     0.029 C 
HETATM   36  C   UNL     1      39.369 -12.670  -3.363  1.00  0.00     0.036 C 
ENDBRANCH  31  32
ENDBRANCH   5  31
TORSDOF 6
ENDMDL
MODEL 4
REMARK VINA RESULT:      -9.1      1.710      2.168
REMARK  6 active torsions:
REMARK  status: ('A' for Active; 'I' for Inactive)
REMARK    1  A    between atoms: C_3  and  C_4 
REMARK    2  A    between atoms: C_4  and  C_5 
REMARK    3  A    between atoms: N_8  and  C_10 
REMARK    4  A    between atoms: C_10  and  C_11 
REMARK    5  A    between atoms: N_24  and  C_25 
REMARK    6  A    between atoms: C_25  and  C_26 
ROOT
HETATM    1  C   UNL     1      41.460 -15.212   0.685  1.00  0.00     0.164 C 
HETATM    2  N   UNL     1      42.573 -14.590   1.378  1.00  0.00    -0.319 N 
HETATM    3  C   UNL     1      42.207 -13.989   2.560  1.00  0.00     0.326 C 
HETATM    4  O   UNL     1      43.000 -13.588   3.390  1.00  0.00    -0.247 OA
HETATM    5  N   UNL     1      40.849 -14.028   2.652  1.00  0.00    -0.265 N 
HETATM    6  C   UNL     1      40.321 -14.657   1.561  1.00  0.00     0.263 C 
HETATM    7  O   UNL     1      39.124 -14.828   1.369  1.00  0.00    -0.270 OA
HETATM    8  H   UNL     1      43.544 -14.643   1.089  1.00  0.00     0.166 HD
ENDROOT
BRANCH   1   9
HETATM    9  C   UNL     1      41.391 -14.716  -0.761  1.00  0.00     0.072 A 
HETATM   10  C   UNL     1      40.968 -15.536  -1.811  1.00  0.00     0.030 A 
HETATM   11  C   UNL     1      40.908 -15.015  -3.103  1.00  0.00     0.003 A 
HETATM   12  C   UNL     1      41.244 -13.687  -3.323  1.00  0.00     0.019 A 
HETATM   13  C   UNL     1      41.624 -12.927  -2.235  1.00  0.00     0.117 A 
HETATM   14  N   UNL     1      41.702 -13.408  -0.973  1.00  0.00    -0.262 NA
ENDBRANCH   1   9
BRANCH   1  15
HETATM   15  C   UNL     1      41.594 -16.787   0.796  1.00  0.00     0.033 C 
HETATM   16  C   UNL     1      40.902 -17.436   2.012  1.00  0.00     0.036 C 
HETATM   17  C   UNL     1      41.711 -17.491   3.302  1.00  0.00     0.235 C 
HETATM   18  N   UNL     1      43.111 -18.002   3.067  1.00  0.00    -0.067 N 
HETATM   19  H   UNL     1      43.035 -19.006   2.849  1.00  0.00     0.280 HD
HETATM   20  C   UNL     1      43.836 -17.342   1.927  1.00  0.00     0.235 C 
HETATM   21  C   UNL     1      43.007 -17.386   0.659  1.00  0.00     0.036 C 
BRANCH  18  22
HETATM   22  C   UNL     1      43.970 -17.903   4.326  1.00  0.00     0.278 C 
BRANCH  22  23
HETATM   23  C   UNL     1      44.033 -19.137   5.175  1.00  0.00     0.028 A 
HETATM   24  C   UNL     1      43.539 -19.192   6.483  1.00  0.00     0.045 A 
HETATM   25 CL   UNL     1      42.861 -17.794   7.235  1.00  0.00    -0.084 Cl
HETATM   26  C   UNL     1      43.601 -20.380   7.219  1.00  0.00     0.024 A 
HETATM   27  C   UNL     1      44.157 -21.529   6.652  1.00  0.00     0.005 A 
HETATM   28  C   UNL     1      44.655 -21.487   5.354  1.00  0.00     0.043 A 
HETATM   29  C   UNL     1      44.586 -20.302   4.632  1.00  0.00     0.126 A 
HETATM   30  F   UNL     1      45.075 -20.277   3.384  1.00  0.00    -0.205 F 
ENDBRANCH  22  23
ENDBRANCH  18  22
ENDBRANCH   1  15
BRANCH   5  31
HETATM   31  C   UNL     1      40.064 -13.462   3.740  1.00  0.00     0.168 C 
BRANCH  31  32
HETATM   32  C   UNL     1      39.571 -12.039   3.427  1.00  0.00     0.140 C 
HETATM   33  O   UNL     1      40.702 -11.158   3.341  1.00  0.00    -0.384 OA
HETATM   34  C   UNL     1      40.905 -10.538   4.623  1.00  0.00     0.168 C 
HETATM   35  C   UNL     1      39.757 -10.961   5.522  1.00  0.00     0.029 C 
HETATM   36  C   UNL     1      38.721 -11.454   4.543  1.00  0.00     0.036 C 
ENDBRANCH  31  32
ENDBRANCH   5  31
TORSDOF 6
ENDMDL
MODEL 5
REMARK VINA RESULT:      -9.0      3.383      7.995
REMARK  6 active torsions:
REMARK  status: ('A' for Active; 'I' for Inactive)
REMARK    1  A    between atoms: C_3  and  C_4 
REMARK    2  A    between atoms: C_4  and  C_5 
REMARK    3  A    between atoms: N_8  and  C_10 
REMARK    4  A    between atoms: C_10  and  C_11 
REMARK    5  A    between atoms: N_24  and  C_25 
REMARK    6  A    between atoms: C_25  and  C_26 
ROOT
HETATM    1  C   UNL     1      42.611 -16.327   3.857  1.00  0.00     0.164 C 
HETATM    2  N   UNL     1      43.495 -16.182   2.715  1.00  0.00    -0.319 N 
HETATM    3  C   UNL     1      43.759 -17.373   2.080  1.00  0.00     0.326 C 
HETATM    4  O   UNL     1      44.305 -17.456   0.996  1.00  0.00    -0.247 OA
HETATM    5  N   UNL     1      43.220 -18.378   2.824  1.00  0.00    -0.265 N 
HETATM    6  C   UNL     1      42.595 -17.866   3.924  1.00  0.00     0.263 C 
HETATM    7  O   UNL     1      42.030 -18.538   4.778  1.00  0.00    -0.270 OA
HETATM    8  H   UNL     1      43.835 -15.299   2.349  1.00  0.00     0.166 HD
ENDROOT
BRANCH   1   9
HETATM    9  C   UNL     1      43.237 -15.686   5.097  1.00  0.00     0.072 A 
HETATM   10  C   UNL     1      43.342 -16.366   6.315  1.00  0.00     0.030 A 
HETATM   11  C   UNL     1      43.943 -15.731   7.401  1.00  0.00     0.003 A 
HETATM   12  C   UNL     1      44.448 -14.448   7.252  1.00  0.00     0.019 A 
HETATM   13  C   UNL     1      44.337 -13.848   6.014  1.00  0.00     0.117 A 
HETATM   14  N   UNL     1      43.750 -14.435   4.945  1.00  0.00    -0.262 NA
ENDBRANCH   1   9
BRANCH   1  15
HETATM   15  C   UNL     1      41.191 -15.724   3.495  1.00  0.00     0.033 C 
HETATM   16  C   UNL     1      40.368 -16.517   2.460  1.00  0.00     0.036 C 
HETATM   17  C   UNL     1      40.638 -16.200   0.994  1.00  0.00     0.235 C 
HETATM   18  N   UNL     1      40.655 -14.714   0.734  1.00  0.00    -0.067 N 
HETATM   19  H   UNL     1      39.685 -14.378   0.824  1.00  0.00     0.280 HD
HETATM   20  C   UNL     1      41.502 -13.920   1.689  1.00  0.00     0.235 C 
HETATM   21  C   UNL     1      41.133 -14.229   3.126  1.00  0.00     0.036 C 
BRANCH  18  22
HETATM   22  C   UNL     1      41.085 -14.393  -0.697  1.00  0.00     0.278 C 
BRANCH  22  23
HETATM   23  C   UNL     1      40.058 -14.634  -1.760  1.00  0.00     0.028 A 
HETATM   24  C   UNL     1      38.795 -14.029  -1.756  1.00  0.00     0.045 A 
HETATM   25 CL   UNL     1      38.315 -12.988  -0.465  1.00  0.00    -0.084 Cl
HETATM   26  C   UNL     1      37.886 -14.270  -2.790  1.00  0.00     0.024 A 
HETATM   27  C   UNL     1      38.230 -15.119  -3.844  1.00  0.00     0.005 A 
HETATM   28  C   UNL     1      39.479 -15.729  -3.860  1.00  0.00     0.043 A 
HETATM   29  C   UNL     1      40.376 -15.481  -2.827  1.00  0.00     0.126 A 
HETATM   30  F   UNL     1      41.574 -16.081  -2.855  1.00  0.00    -0.205 F 
ENDBRANCH  22  23
ENDBRANCH  18  22
ENDBRANCH   1  15
BRANCH   5  31
HETATM   31  C   UNL     1      43.314 -19.797   2.512  1.00  0.00     0.168 C 
BRANCH  31  32
HETATM   32  C   UNL     1      44.740 -20.343   2.690  1.00  0.00     0.140 C 
HETATM   33  O   UNL     1      44.767 -21.724   2.299  1.00  0.00    -0.384 OA
HETATM   34  C   UNL     1      44.577 -22.539   3.470  1.00  0.00     0.168 C 
HETATM   35  C   UNL     1      44.559 -21.614   4.673  1.00  0.00     0.029 C 
HETATM   36  C   UNL     1      45.189 -20.351   4.141  1.00  0.00     0.036 C 
ENDBRANCH  31  32
ENDBRANCH   5  31
TORSDOF 6
ENDMDL
MODEL 6
REMARK VINA RESULT:      -8.8      2.038      5.298
REMARK  6 active torsions:
REMARK  status: ('A' for Active; 'I' for Inactive)
REMARK    1  A    between atoms: C_3  and  C_4 
REMARK    2  A    between atoms: C_4  and  C_5 
REMARK    3  A    between atoms: N_8  and  C_10 
REMARK    4  A    between atoms: C_10  and  C_11 
REMARK    5  A    between atoms: N_24  and  C_25 
REMARK    6  A    between atoms: C_25  and  C_26 
ROOT
HETATM    1  C   UNL     1      41.006 -12.776   3.393  1.00  0.00     0.164 C 
HETATM    2  N   UNL     1      39.978 -13.800   3.410  1.00  0.00    -0.319 N 
HETATM    3  C   UNL     1      39.677 -14.284   2.158  1.00  0.00     0.326 C 
HETATM    4  O   UNL     1      38.999 -15.275   1.961  1.00  0.00    -0.247 OA
HETATM    5  N   UNL     1      40.343 -13.531   1.241  1.00  0.00    -0.265 N 
HETATM    6  C   UNL     1      41.086 -12.573   1.868  1.00  0.00     0.263 C 
HETATM    7  O   UNL     1      41.780 -11.743   1.293  1.00  0.00    -0.270 OA
HETATM    8  H   UNL     1      39.562 -14.196   4.246  1.00  0.00     0.166 HD
ENDROOT
BRANCH   1   9
HETATM    9  C   UNL     1      40.523 -11.526   4.132  1.00  0.00     0.072 A 
HETATM   10  C   UNL     1      41.398 -10.686   4.828  1.00  0.00     0.030 A 
HETATM   11  C   UNL     1      40.894  -9.552   5.462  1.00  0.00     0.003 A 
HETATM   12  C   UNL     1      39.541  -9.260   5.374  1.00  0.00     0.019 A 
HETATM   13  C   UNL     1      38.740 -10.116   4.645  1.00  0.00     0.117 A 
HETATM   14  N   UNL     1      39.199 -11.230   4.028  1.00  0.00    -0.262 NA
ENDBRANCH   1   9
BRANCH   1  15
HETATM   15  C   UNL     1      42.346 -13.374   3.992  1.00  0.00     0.033 C 
HETATM   16  C   UNL     1      43.183 -14.243   3.033  1.00  0.00     0.036 C 
HETATM   17  C   UNL     1      42.810 -15.718   2.957  1.00  0.00     0.235 C 
HETATM   18  N   UNL     1      42.645 -16.329   4.327  1.00  0.00    -0.067 N 
HETATM   19  H   UNL     1      43.584 -16.392   4.746  1.00  0.00     0.280 HD
HETATM   20  C   UNL     1      41.781 -15.535   5.267  1.00  0.00     0.235 C 
HETATM   21  C   UNL     1      42.249 -14.097   5.351  1.00  0.00     0.036 C 
BRANCH  18  22
HETATM   22  C   UNL     1      42.115 -17.759   4.251  1.00  0.00     0.278 C 
BRANCH  22  23
HETATM   23  C   UNL     1      43.074 -18.788   3.734  1.00  0.00     0.028 A 
HETATM   24  C   UNL     1      44.094 -19.344   4.515  1.00  0.00     0.045 A 
HETATM   25 CL   UNL     1      44.350 -18.825   6.142  1.00  0.00    -0.084 Cl
HETATM   26  C   UNL     1      44.944 -20.320   3.987  1.00  0.00     0.024 A 
HETATM   27  C   UNL     1      44.780 -20.756   2.669  1.00  0.00     0.005 A 
HETATM   28  C   UNL     1      43.772 -20.210   1.882  1.00  0.00     0.043 A 
HETATM   29  C   UNL     1      42.933 -19.241   2.418  1.00  0.00     0.126 A 
HETATM   30  F   UNL     1      41.970 -18.721   1.644  1.00  0.00    -0.205 F 
ENDBRANCH  22  23
ENDBRANCH  18  22
ENDBRANCH   1  15
BRANCH   5  31
HETATM   31  C   UNL     1      40.260 -13.699  -0.204  1.00  0.00     0.168 C 
BRANCH  31  32
HETATM   32  C   UNL     1      41.477 -14.444  -0.777  1.00  0.00     0.140 C 
HETATM   33  O   UNL     1      42.041 -13.671  -1.847  1.00  0.00    -0.384 OA
HETATM   34  C   UNL     1      41.486 -14.131  -3.092  1.00  0.00     0.168 C 
HETATM   35  C   UNL     1      40.626 -15.344  -2.789  1.00  0.00     0.029 C 
HETATM   36  C   UNL     1      41.104 -15.768  -1.423  1.00  0.00     0.036 C 
ENDBRANCH  31  32
ENDBRANCH   5  31
TORSDOF 6
ENDMDL
MODEL 7
REMARK VINA RESULT:      -8.5      2.985      6.915
REMARK  6 active torsions:
REMARK  status: ('A' for Active; 'I' for Inactive)
REMARK    1  A    between atoms: C_3  and  C_4 
REMARK    2  A    between atoms: C_4  and  C_5 
REMARK    3  A    between atoms: N_8  and  C_10 
REMARK    4  A    between atoms: C_10  and  C_11 
REMARK    5  A    between atoms: N_24  and  C_25 
REMARK    6  A    between atoms: C_25  and  C_26 
ROOT
HETATM    1  C   UNL     1      42.078 -17.373   3.413  1.00  0.00     0.164 C 
HETATM    2  N   UNL     1      41.174 -17.348   4.548  1.00  0.00    -0.319 N 
HETATM    3  C   UNL     1      41.068 -16.105   5.127  1.00  0.00     0.326 C 
HETATM    4  O   UNL     1      40.224 -15.812   5.953  1.00  0.00    -0.247 OA
HETATM    5  N   UNL     1      41.983 -15.285   4.541  1.00  0.00    -0.265 N 
HETATM    6  C   UNL     1      42.674 -15.963   3.579  1.00  0.00     0.263 C 
HETATM    7  O   UNL     1      43.569 -15.480   2.895  1.00  0.00    -0.270 OA
HETATM    8  H   UNL     1      40.603 -18.127   4.858  1.00  0.00     0.166 HD
ENDROOT
BRANCH   1   9
HETATM    9  C   UNL     1      43.120 -18.481   3.589  1.00  0.00     0.072 A 
HETATM   10  C   UNL     1      43.497 -19.323   2.540  1.00  0.00     0.030 A 
HETATM   11  C   UNL     1      44.468 -20.298   2.762  1.00  0.00     0.003 A 
HETATM   12  C   UNL     1      45.061 -20.403   4.012  1.00  0.00     0.019 A 
HETATM   13  C   UNL     1      44.662 -19.519   4.994  1.00  0.00     0.117 A 
HETATM   14  N   UNL     1      43.715 -18.569   4.810  1.00  0.00    -0.262 NA
ENDBRANCH   1   9
BRANCH   1  15
HETATM   15  C   UNL     1      41.235 -17.519   2.079  1.00  0.00     0.033 C 
HETATM   16  C   UNL     1      41.929 -17.038   0.789  1.00  0.00     0.036 C 
HETATM   17  C   UNL     1      41.794 -15.556   0.461  1.00  0.00     0.235 C 
HETATM   18  N   UNL     1      40.368 -15.080   0.586  1.00  0.00    -0.067 N 
HETATM   19  H   UNL     1      39.839 -15.496  -0.194  1.00  0.00     0.280 HD
HETATM   20  C   UNL     1      39.684 -15.480   1.864  1.00  0.00     0.235 C 
HETATM   21  C   UNL     1      39.794 -16.973   2.094  1.00  0.00     0.036 C 
BRANCH  18  22
HETATM   22  C   UNL     1      40.258 -13.566   0.415  1.00  0.00     0.278 C 
BRANCH  22  23
HETATM   23  C   UNL     1      41.050 -12.974  -0.711  1.00  0.00     0.028 A 
HETATM   24  C   UNL     1      40.730 -13.172  -2.059  1.00  0.00     0.045 A 
HETATM   25 CL   UNL     1      39.405 -14.181  -2.517  1.00  0.00    -0.084 Cl
HETATM   26  C   UNL     1      41.490 -12.572  -3.068  1.00  0.00     0.024 A 
HETATM   27  C   UNL     1      42.579 -11.762  -2.739  1.00  0.00     0.005 A 
HETATM   28  C   UNL     1      42.910 -11.558  -1.404  1.00  0.00     0.043 A 
HETATM   29  C   UNL     1      42.147 -12.159  -0.409  1.00  0.00     0.126 A 
HETATM   30  F   UNL     1      42.482 -11.957   0.872  1.00  0.00    -0.205 F 
ENDBRANCH  22  23
ENDBRANCH  18  22
ENDBRANCH   1  15
BRANCH   5  31
HETATM   31  C   UNL     1      42.214 -13.892   4.899  1.00  0.00     0.168 C 
BRANCH  31  32
HETATM   32  C   UNL     1      41.427 -12.919   4.006  1.00  0.00     0.140 C 
HETATM   33  O   UNL     1      41.888 -11.581   4.248  1.00  0.00    -0.384 OA
HETATM   34  C   UNL     1      41.038 -10.971   5.235  1.00  0.00     0.168 C 
HETATM   35  C   UNL     1      39.908 -11.940   5.529  1.00  0.00     0.029 C 
HETATM   36  C   UNL     1      39.947 -12.877   4.347  1.00  0.00     0.036 C 
ENDBRANCH  31  32
ENDBRANCH   5  31
TORSDOF 6
ENDMDL
MODEL 8
REMARK VINA RESULT:      -8.4      3.196      7.626
REMARK  6 active torsions:
REMARK  status: ('A' for Active; 'I' for Inactive)
REMARK    1  A    between atoms: C_3  and  C_4 
REMARK    2  A    between atoms: C_4  and  C_5 
REMARK    3  A    between atoms: N_8  and  C_10 
REMARK    4  A    between atoms: C_10  and  C_11 
REMARK    5  A    between atoms: N_24  and  C_25 
REMARK    6  A    between atoms: C_25  and  C_26 
ROOT
HETATM    1  C   UNL     1      42.435 -16.353   3.816  1.00  0.00     0.164 C 
HETATM    2  N   UNL     1      43.208 -15.236   3.305  1.00  0.00    -0.319 N 
HETATM    3  C   UNL     1      42.500 -14.442   2.433  1.00  0.00     0.326 C 
HETATM    4  O   UNL     1      42.881 -13.353   2.047  1.00  0.00    -0.247 OA
HETATM    5  N   UNL     1      41.304 -15.044   2.188  1.00  0.00    -0.265 N 
HETATM    6  C   UNL     1      41.209 -16.208   2.894  1.00  0.00     0.263 C 
HETATM    7  O   UNL     1      40.247 -16.966   2.860  1.00  0.00    -0.270 OA
HETATM    8  H   UNL     1      44.148 -14.992   3.600  1.00  0.00     0.166 HD
ENDROOT
BRANCH   1   9
HETATM    9  C   UNL     1      43.190 -17.666   3.595  1.00  0.00     0.072 A 
HETATM   10  C   UNL     1      43.498 -18.143   2.318  1.00  0.00     0.030 A 
HETATM   11  C   UNL     1      44.207 -19.336   2.188  1.00  0.00     0.003 A 
HETATM   12  C   UNL     1      44.617 -20.018   3.325  1.00  0.00     0.019 A 
HETATM   13  C   UNL     1      44.305 -19.473   4.554  1.00  0.00     0.117 A 
HETATM   14  N   UNL     1      43.609 -18.323   4.711  1.00  0.00    -0.262 NA
ENDBRANCH   1   9
BRANCH   1  15
HETATM   15  C   UNL     1      42.081 -16.087   5.337  1.00  0.00     0.033 C 
HETATM   16  C   UNL     1      40.699 -15.460   5.606  1.00  0.00     0.036 C 
HETATM   17  C   UNL     1      40.622 -13.939   5.544  1.00  0.00     0.235 C 
HETATM   18  N   UNL     1      41.737 -13.287   6.325  1.00  0.00    -0.067 N 
HETATM   19  H   UNL     1      41.541 -13.446   7.324  1.00  0.00     0.280 HD
HETATM   20  C   UNL     1      43.107 -13.836   6.037  1.00  0.00     0.235 C 
HETATM   21  C   UNL     1      43.131 -15.343   6.186  1.00  0.00     0.036 C 
BRANCH  18  22
HETATM   22  C   UNL     1      41.756 -11.772   6.130  1.00  0.00     0.278 C 
BRANCH  22  23
HETATM   23  C   UNL     1      41.136 -10.963   7.228  1.00  0.00     0.028 A 
HETATM   24  C   UNL     1      41.800 -10.655   8.421  1.00  0.00     0.045 A 
HETATM   25 CL   UNL     1      43.392 -11.250   8.729  1.00  0.00    -0.084 Cl
HETATM   26  C   UNL     1      41.182  -9.871   9.400  1.00  0.00     0.024 A 
HETATM   27  C   UNL     1      39.889  -9.384   9.196  1.00  0.00     0.005 A 
HETATM   28  C   UNL     1      39.216  -9.684   8.016  1.00  0.00     0.043 A 
HETATM   29  C   UNL     1      39.842 -10.462   7.049  1.00  0.00     0.126 A 
HETATM   30  F   UNL     1      39.177 -10.747   5.921  1.00  0.00    -0.205 F 
ENDBRANCH  22  23
ENDBRANCH  18  22
ENDBRANCH   1  15
BRANCH   5  31
HETATM   31  C   UNL     1      40.279 -14.539   1.286  1.00  0.00     0.168 C 
BRANCH  31  32
HETATM   32  C   UNL     1      39.002 -14.111   2.029  1.00  0.00     0.140 C 
HETATM   33  O   UNL     1      37.861 -14.397   1.207  1.00  0.00    -0.384 OA
HETATM   34  C   UNL     1      37.522 -13.216   0.459  1.00  0.00     0.168 C 
HETATM   35  C   UNL     1      38.425 -12.095   0.941  1.00  0.00     0.029 C 
HETATM   36  C   UNL     1      38.934 -12.612   2.263  1.00  0.00     0.036 C 
ENDBRANCH  31  32
ENDBRANCH   5  31
TORSDOF 6
ENDMDL
MODEL 9
REMARK VINA RESULT:      -8.3      2.122      3.350
REMARK  6 active torsions:
REMARK  status: ('A' for Active; 'I' for Inactive)
REMARK    1  A    between atoms: C_3  and  C_4 
REMARK    2  A    between atoms: C_4  and  C_5 
REMARK    3  A    between atoms: N_8  and  C_10 
REMARK    4  A    between atoms: C_10  and  C_11 
REMARK    5  A    between atoms: N_24  and  C_25 
REMARK    6  A    between atoms: C_25  and  C_26 
ROOT
HETATM    1  C   UNL     1      41.442 -12.572   4.278  1.00  0.00     0.164 C 
HETATM    2  N   UNL     1      41.734 -11.171   4.035  1.00  0.00    -0.319 N 
HETATM    3  C   UNL     1      41.319 -10.347   5.054  1.00  0.00     0.326 C 
HETATM    4  O   UNL     1      41.637  -9.177   5.152  1.00  0.00    -0.247 OA
HETATM    5  N   UNL     1      40.603 -11.095   5.939  1.00  0.00    -0.265 N 
HETATM    6  C   UNL     1      40.556 -12.395   5.526  1.00  0.00     0.263 C 
HETATM    7  O   UNL     1      39.971 -13.292   6.120  1.00  0.00    -0.270 OA
HETATM    8  H   UNL     1      42.260 -10.814   3.244  1.00  0.00     0.166 HD
ENDROOT
BRANCH   1   9
HETATM    9  C   UNL     1      40.681 -13.169   3.092  1.00  0.00     0.072 A 
HETATM   10  C   UNL     1      40.820 -12.675   1.792  1.00  0.00     0.030 A 
HETATM   11  C   UNL     1      40.114 -13.279   0.753  1.00  0.00     0.003 A 
HETATM   12  C   UNL     1      39.305 -14.374   1.019  1.00  0.00     0.019 A 
HETATM   13  C   UNL     1      39.238 -14.828   2.321  1.00  0.00     0.117 A 
HETATM   14  N   UNL     1      39.904 -14.256   3.351  1.00  0.00    -0.262 NA
ENDBRANCH   1   9
BRANCH   1  15
HETATM   15  C   UNL     1      42.792 -13.337   4.600  1.00  0.00     0.033 C 
HETATM   16  C   UNL     1      43.434 -14.093   3.421  1.00  0.00     0.036 C 
HETATM   17  C   UNL     1      42.938 -15.512   3.176  1.00  0.00     0.235 C 
HETATM   18  N   UNL     1      42.891 -16.320   4.449  1.00  0.00    -0.067 N 
HETATM   19  H   UNL     1      43.866 -16.506   4.727  1.00  0.00     0.280 HD
HETATM   20  C   UNL     1      42.213 -15.634   5.602  1.00  0.00     0.235 C 
HETATM   21  C   UNL     1      42.802 -14.258   5.837  1.00  0.00     0.036 C 
BRANCH  18  22
HETATM   22  C   UNL     1      42.243 -17.686   4.232  1.00  0.00     0.278 C 
BRANCH  22  23
HETATM   23  C   UNL     1      43.148 -18.768   3.727  1.00  0.00     0.028 A 
HETATM   24  C   UNL     1      44.140 -19.367   4.513  1.00  0.00     0.045 A 
HETATM   25 CL   UNL     1      44.423 -18.842   6.133  1.00  0.00    -0.084 Cl
HETATM   26  C   UNL     1      44.937 -20.392   3.995  1.00  0.00     0.024 A 
HETATM   27  C   UNL     1      44.750 -20.834   2.683  1.00  0.00     0.005 A 
HETATM   28  C   UNL     1      43.770 -20.246   1.890  1.00  0.00     0.043 A 
HETATM   29  C   UNL     1      42.982 -19.229   2.416  1.00  0.00     0.126 A 
HETATM   30  F   UNL     1      42.046 -18.670   1.637  1.00  0.00    -0.205 F 
ENDBRANCH  22  23
ENDBRANCH  18  22
ENDBRANCH   1  15
BRANCH   5  31
HETATM   31  C   UNL     1      39.957 -10.584   7.140  1.00  0.00     0.168 C 
BRANCH  31  32
HETATM   32  C   UNL     1      40.880 -10.637   8.369  1.00  0.00     0.140 C 
HETATM   33  O   UNL     1      40.120 -11.065   9.509  1.00  0.00    -0.384 OA
HETATM   34  C   UNL     1      39.655  -9.903  10.218  1.00  0.00     0.168 C 
HETATM   35  C   UNL     1      40.269  -8.685   9.553  1.00  0.00     0.029 C 
HETATM   36  C   UNL     1      41.413  -9.269   8.761  1.00  0.00     0.036 C 
ENDBRANCH  31  32
ENDBRANCH   5  31
TORSDOF 6
ENDMDL
MODEL 10
REMARK VINA RESULT:      -8.3      3.311      7.861
REMARK  6 active torsions:
REMARK  status: ('A' for Active; 'I' for Inactive)
REMARK    1  A    between atoms: C_3  and  C_4 
REMARK    2  A    between atoms: C_4  and  C_5 
REMARK    3  A    between atoms: N_8  and  C_10 
REMARK    4  A    between atoms: C_10  and  C_11 
REMARK    5  A    between atoms: N_24  and  C_25 
REMARK    6  A    between atoms: C_25  and  C_26 
ROOT
HETATM    1  C   UNL     1      42.369 -16.058   3.706  1.00  0.00     0.164 C 
HETATM    2  N   UNL     1      43.186 -14.949   3.247  1.00  0.00    -0.319 N 
HETATM    3  C   UNL     1      42.497 -14.062   2.453  1.00  0.00     0.326 C 
HETATM    4  O   UNL     1      42.923 -12.970   2.129  1.00  0.00    -0.247 OA
HETATM    5  N   UNL     1      41.264 -14.585   2.205  1.00  0.00    -0.265 N 
HETATM    6  C   UNL     1      41.128 -15.788   2.834  1.00  0.00     0.263 C 
HETATM    7  O   UNL     1      40.127 -16.493   2.779  1.00  0.00    -0.270 OA
HETATM    8  H   UNL     1      44.144 -14.774   3.529  1.00  0.00     0.166 HD
ENDROOT
BRANCH   1   9
HETATM    9  C   UNL     1      43.048 -17.389   3.375  1.00  0.00     0.072 A 
HETATM   10  C   UNL     1      43.350 -17.766   2.063  1.00  0.00     0.030 A 
HETATM   11  C   UNL     1      43.988 -18.983   1.833  1.00  0.00     0.003 A 
HETATM   12  C   UNL     1      44.336 -19.790   2.907  1.00  0.00     0.019 A 
HETATM   13  C   UNL     1      44.034 -19.342   4.177  1.00  0.00     0.117 A 
HETATM   14  N   UNL     1      43.406 -18.170   4.430  1.00  0.00    -0.262 NA
ENDBRANCH   1   9
BRANCH   1  15
HETATM   15  C   UNL     1      42.071 -15.879   5.252  1.00  0.00     0.033 C 
HETATM   16  C   UNL     1      40.729 -15.208   5.605  1.00  0.00     0.036 C 
HETATM   17  C   UNL     1      40.724 -13.685   5.646  1.00  0.00     0.235 C 
HETATM   18  N   UNL     1      41.891 -13.140   6.433  1.00  0.00    -0.067 N 
HETATM   19  H   UNL     1      41.716 -13.357   7.425  1.00  0.00     0.280 HD
HETATM   20  C   UNL     1      43.224 -13.731   6.067  1.00  0.00     0.235 C 
HETATM   21  C   UNL     1      43.179 -15.244   6.115  1.00  0.00     0.036 C 
BRANCH  18  22
HETATM   22  C   UNL     1      41.978 -11.618   6.338  1.00  0.00     0.278 C 
BRANCH  22  23
HETATM   23  C   UNL     1      41.710 -10.866   7.606  1.00  0.00     0.028 A 
HETATM   24  C   UNL     1      40.534 -10.142   7.834  1.00  0.00     0.045 A 
HETATM   25 CL   UNL     1      39.316 -10.024   6.616  1.00  0.00    -0.084 Cl
HETATM   26  C   UNL     1      40.327  -9.481   9.048  1.00  0.00     0.024 A 
HETATM   27  C   UNL     1      41.295  -9.539  10.053  1.00  0.00     0.005 A 
HETATM   28  C   UNL     1      42.470 -10.252   9.840  1.00  0.00     0.043 A 
HETATM   29  C   UNL     1      42.664 -10.906   8.629  1.00  0.00     0.126 A 
HETATM   30  F   UNL     1      43.804 -11.584   8.438  1.00  0.00    -0.205 F 
ENDBRANCH  22  23
ENDBRANCH  18  22
ENDBRANCH   1  15
BRANCH   5  31
HETATM   31  C   UNL     1      40.243 -13.968   1.370  1.00  0.00     0.168 C 
BRANCH  31  32
HETATM   32  C   UNL     1      40.188 -14.582  -0.039  1.00  0.00     0.140 C 
HETATM   33  O   UNL     1      41.526 -14.756  -0.528  1.00  0.00    -0.384 OA
HETATM   34  C   UNL     1      41.884 -13.606  -1.314  1.00  0.00     0.168 C 
HETATM   35  C   UNL     1      40.652 -12.726  -1.426  1.00  0.00     0.029 C 
HETATM   36  C   UNL     1      39.530 -13.663  -1.054  1.00  0.00     0.036 C 
ENDBRANCH  31  32
ENDBRANCH   5  31
TORSDOF 6
ENDMDL
