MODEL 1
REMARK VINA RESULT:      -8.7      0.000      0.000
REMARK  6 active torsions:
REMARK  status: ('A' for Active; 'I' for Inactive)
REMARK    1  A    between atoms: C_2  and  C_3 
REMARK    2  A    between atoms: C_7  and  C_8 
REMARK       I    between atoms: C_8  and  N_9 
REMARK    3  A    between atoms: N_9  and  C_10 
REMARK    4  A    between atoms: C_13  and  C_14 
REMARK       I    between atoms: C_14  and  N_15 
REMARK    5  A    between atoms: N_15  and  C_16 
REMARK    6  A    between atoms: C_16  and  C_17 
ROOT
HETATM    1  C   UNL     1      43.544 -13.885   6.549  1.00  0.00     0.035 A 
HETATM    2  C   UNL     1      43.340 -13.279   5.307  1.00  0.00     0.030 A 
HETATM    3  C   UNL     1      43.316 -14.045   4.133  1.00  0.00     0.019 A 
HETATM    4  C   UNL     1      43.493 -15.430   4.192  1.00  0.00     0.032 A 
HETATM    5  C   UNL     1      43.735 -16.036   5.428  1.00  0.00     0.019 A 
HETATM    6  C   UNL     1      43.758 -15.269   6.597  1.00  0.00     0.030 A 
ENDROOT
BRANCH   1   7
HETATM    7  N   UNL     1      43.541 -13.197   7.778  1.00  0.00    -0.322 N 
HETATM    8  C   UNL     1      44.629 -12.806   8.536  1.00  0.00     0.274 C 
HETATM    9  O   UNL     1      45.802 -13.034   8.262  1.00  0.00    -0.266 OA
HETATM   10  H   UNL     1      42.632 -12.927   8.126  1.00  0.00     0.169 HD
BRANCH   8  11
HETATM   11  C   UNL     1      44.289 -12.061   9.726  1.00  0.00     0.120 A 
HETATM   12  N   UNL     1      43.861 -12.698  10.860  1.00  0.00    -0.273 N 
HETATM   13  N   UNL     1      43.591 -11.875  11.886  1.00  0.00    -0.179 NA
HETATM   14  H   UNL     1      43.738 -13.698  10.985  1.00  0.00     0.189 HD
HETATM   15  C   UNL     1      43.851 -10.657  11.400  1.00  0.00     0.056 A 
HETATM   16  C   UNL     1      44.288 -10.718  10.055  1.00  0.00     0.065 A 
BRANCH  15  17
HETATM   17  C   UNL     1      43.672  -9.447  12.253  1.00  0.00     0.056 C 
HETATM   18  C   UNL     1      43.189  -9.796  13.653  1.00  0.00     0.011 C 
ENDBRANCH  15  17
ENDBRANCH   8  11
ENDBRANCH   1   7
BRANCH   4  19
HETATM   19  C   UNL     1      43.416 -16.302   2.988  1.00  0.00     0.251 C 
HETATM   20  N   UNL     1      42.765 -17.504   3.143  1.00  0.00    -0.353 N 
HETATM   21  H   UNL     1      42.342 -17.756   4.025  1.00  0.00     0.163 HD
HETATM   22  O   UNL     1      43.967 -15.963   1.947  1.00  0.00    -0.268 OA
BRANCH  20  23
HETATM   23  C   UNL     1      42.724 -18.479   2.074  1.00  0.00     0.161 C 
BRANCH  23  24
HETATM   24  C   UNL     1      43.380 -19.776   2.481  1.00  0.00    -0.040 A 
HETATM   25  C   UNL     1      43.323 -20.895   1.635  1.00  0.00     0.012 A 
HETATM   26  C   UNL     1      43.953 -22.088   1.997  1.00  0.00     0.043 A 
HETATM   27  C   UNL     1      44.643 -22.163   3.201  1.00  0.00     0.116 A 
HETATM   28  F   UNL     1      45.244 -23.309   3.546  1.00  0.00    -0.206 F 
HETATM   29  C   UNL     1      44.725 -21.065   4.047  1.00  0.00     0.043 A 
HETATM   30  C   UNL     1      44.102 -19.870   3.685  1.00  0.00     0.012 A 
ENDBRANCH  23  24
ENDBRANCH  20  23
ENDBRANCH   4  19
TORSDOF 6
ENDMDL
MODEL 2
REMARK VINA RESULT:      -8.1      3.819     10.572
REMARK  6 active torsions:
REMARK  status: ('A' for Active; 'I' for Inactive)
REMARK    1  A    between atoms: C_2  and  C_3 
REMARK    2  A    between atoms: C_7  and  C_8 
REMARK       I    between atoms: C_8  and  N_9 
REMARK    3  A    between atoms: N_9  and  C_10 
REMARK    4  A    between atoms: C_13  and  C_14 
REMARK       I    between atoms: C_14  and  N_15 
REMARK    5  A    between atoms: N_15  and  C_16 
REMARK    6  A    between atoms: C_16  and  C_17 
ROOT
HETATM    1  C   UNL     1      42.823 -15.739   4.851  1.00  0.00     0.035 A 
HETATM    2  C   UNL     1      43.735 -14.962   5.569  1.00  0.00     0.030 A 
HETATM    3  C   UNL     1      43.377 -13.691   6.039  1.00  0.00     0.019 A 
HETATM    4  C   UNL     1      42.097 -13.185   5.797  1.00  0.00     0.032 A 
HETATM    5  C   UNL     1      41.194 -13.943   5.046  1.00  0.00     0.019 A 
HETATM    6  C   UNL     1      41.554 -15.211   4.579  1.00  0.00     0.030 A 
ENDROOT
BRANCH   1   7
HETATM    7  N   UNL     1      43.087 -17.040   4.379  1.00  0.00    -0.322 N 
HETATM    8  C   UNL     1      43.643 -17.409   3.168  1.00  0.00     0.274 C 
HETATM    9  O   UNL     1      43.974 -16.637   2.275  1.00  0.00    -0.266 OA
HETATM   10  H   UNL     1      42.875 -17.789   5.022  1.00  0.00     0.169 HD
BRANCH   8  11
HETATM   11  C   UNL     1      43.837 -18.832   3.011  1.00  0.00     0.120 A 
HETATM   12  N   UNL     1      43.538 -19.459   1.830  1.00  0.00    -0.273 N 
HETATM   13  N   UNL     1      43.779 -20.779   1.832  1.00  0.00    -0.179 NA
HETATM   14  H   UNL     1      43.167 -19.026   0.990  1.00  0.00     0.189 HD
HETATM   15  C   UNL     1      44.250 -21.020   3.059  1.00  0.00     0.056 A 
HETATM   16  C   UNL     1      44.305 -19.838   3.836  1.00  0.00     0.065 A 
BRANCH  15  17
HETATM   17  C   UNL     1      44.644 -22.402   3.461  1.00  0.00     0.056 C 
HETATM   18  C   UNL     1      44.988 -22.496   4.940  1.00  0.00     0.011 C 
ENDBRANCH  15  17
ENDBRANCH   8  11
ENDBRANCH   1   7
BRANCH   4  19
HETATM   19  C   UNL     1      41.639 -11.870   6.323  1.00  0.00     0.251 C 
HETATM   20  N   UNL     1      42.152 -11.486   7.541  1.00  0.00    -0.353 N 
HETATM   21  H   UNL     1      42.824 -12.063   8.027  1.00  0.00     0.163 HD
HETATM   22  O   UNL     1      40.804 -11.219   5.708  1.00  0.00    -0.268 OA
BRANCH  20  23
HETATM   23  C   UNL     1      41.697 -10.281   8.201  1.00  0.00     0.161 C 
BRANCH  23  24
HETATM   24  C   UNL     1      42.331 -10.121   9.562  1.00  0.00    -0.040 A 
HETATM   25  C   UNL     1      41.715  -9.327  10.541  1.00  0.00     0.012 A 
HETATM   26  C   UNL     1      42.285  -9.199  11.810  1.00  0.00     0.043 A 
HETATM   27  C   UNL     1      43.468  -9.868  12.103  1.00  0.00     0.116 A 
HETATM   28  F   UNL     1      44.013  -9.743  13.319  1.00  0.00    -0.206 F 
HETATM   29  C   UNL     1      44.088 -10.672  11.154  1.00  0.00     0.043 A 
HETATM   30  C   UNL     1      43.516 -10.806   9.889  1.00  0.00     0.012 A 
ENDBRANCH  23  24
ENDBRANCH  20  23
ENDBRANCH   4  19
TORSDOF 6
ENDMDL
MODEL 3
REMARK VINA RESULT:      -8.1      3.392      3.603
REMARK  6 active torsions:
REMARK  status: ('A' for Active; 'I' for Inactive)
REMARK    1  A    between atoms: C_2  and  C_3 
REMARK    2  A    between atoms: C_7  and  C_8 
REMARK       I    between atoms: C_8  and  N_9 
REMARK    3  A    between atoms: N_9  and  C_10 
REMARK    4  A    between atoms: C_13  and  C_14 
REMARK       I    between atoms: C_14  and  N_15 
REMARK    5  A    between atoms: N_15  and  C_16 
REMARK    6  A    between atoms: C_16  and  C_17 
ROOT
HETATM    1  C   UNL     1      41.120 -13.506   5.731  1.00  0.00     0.035 A 
HETATM    2  C   UNL     1      41.952 -13.179   4.658  1.00  0.00     0.030 A 
HETATM    3  C   UNL     1      42.255 -14.129   3.672  1.00  0.00     0.019 A 
HETATM    4  C   UNL     1      41.721 -15.419   3.750  1.00  0.00     0.032 A 
HETATM    5  C   UNL     1      40.918 -15.761   4.842  1.00  0.00     0.019 A 
HETATM    6  C   UNL     1      40.618 -14.811   5.823  1.00  0.00     0.030 A 
ENDROOT
BRANCH   1   7
HETATM    7  N   UNL     1      40.734 -12.602   6.739  1.00  0.00    -0.322 N 
HETATM    8  C   UNL     1      39.609 -11.799   6.777  1.00  0.00     0.274 C 
HETATM    9  O   UNL     1      38.762 -11.724   5.894  1.00  0.00    -0.266 OA
HETATM   10  H   UNL     1      41.338 -12.565   7.548  1.00  0.00     0.169 HD
BRANCH   8  11
HETATM   11  C   UNL     1      39.472 -11.021   7.987  1.00  0.00     0.120 A 
HETATM   12  N   UNL     1      39.910 -11.506   9.191  1.00  0.00    -0.273 N 
HETATM   13  N   UNL     1      39.723 -10.668  10.223  1.00  0.00    -0.179 NA
HETATM   14  H   UNL     1      40.348 -12.406   9.360  1.00  0.00     0.189 HD
HETATM   15  C   UNL     1      39.140  -9.600   9.669  1.00  0.00     0.056 A 
HETATM   16  C   UNL     1      38.959  -9.771   8.276  1.00  0.00     0.065 A 
BRANCH  15  17
HETATM   17  C   UNL     1      38.766  -8.423  10.507  1.00  0.00     0.056 C 
HETATM   18  C   UNL     1      37.908  -8.815  11.701  1.00  0.00     0.011 C 
ENDBRANCH  15  17
ENDBRANCH   8  11
ENDBRANCH   1   7
BRANCH   4  19
HETATM   19  C   UNL     1      41.955 -16.450   2.703  1.00  0.00     0.251 C 
HETATM   20  N   UNL     1      43.079 -17.231   2.853  1.00  0.00    -0.353 N 
HETATM   21  H   UNL     1      43.686 -17.118   3.651  1.00  0.00     0.163 HD
HETATM   22  O   UNL     1      41.201 -16.532   1.740  1.00  0.00    -0.268 OA
BRANCH  20  23
HETATM   23  C   UNL     1      43.467 -18.190   1.842  1.00  0.00     0.161 C 
BRANCH  23  24
HETATM   24  C   UNL     1      43.896 -19.500   2.457  1.00  0.00    -0.040 A 
HETATM   25  C   UNL     1      44.310 -19.553   3.797  1.00  0.00     0.012 A 
HETATM   26  C   UNL     1      44.681 -20.769   4.376  1.00  0.00     0.043 A 
HETATM   27  C   UNL     1      44.636 -21.933   3.618  1.00  0.00     0.116 A 
HETATM   28  F   UNL     1      44.994 -23.097   4.175  1.00  0.00    -0.206 F 
HETATM   29  C   UNL     1      44.216 -21.908   2.294  1.00  0.00     0.043 A 
HETATM   30  C   UNL     1      43.838 -20.696   1.717  1.00  0.00     0.012 A 
ENDBRANCH  23  24
ENDBRANCH  20  23
ENDBRANCH   4  19
TORSDOF 6
ENDMDL
MODEL 4
REMARK VINA RESULT:      -7.7      5.526      9.660
REMARK  6 active torsions:
REMARK  status: ('A' for Active; 'I' for Inactive)
REMARK    1  A    between atoms: C_2  and  C_3 
REMARK    2  A    between atoms: C_7  and  C_8 
REMARK       I    between atoms: C_8  and  N_9 
REMARK    3  A    between atoms: N_9  and  C_10 
REMARK    4  A    between atoms: C_13  and  C_14 
REMARK       I    between atoms: C_14  and  N_15 
REMARK    5  A    between atoms: N_15  and  C_16 
REMARK    6  A    between atoms: C_16  and  C_17 
ROOT
HETATM    1  C   UNL     1      39.629 -15.000   1.427  1.00  0.00     0.035 A 
HETATM    2  C   UNL     1      39.457 -14.264   2.601  1.00  0.00     0.030 A 
HETATM    3  C   UNL     1      40.175 -14.590   3.760  1.00  0.00     0.019 A 
HETATM    4  C   UNL     1      41.078 -15.657   3.753  1.00  0.00     0.032 A 
HETATM    5  C   UNL     1      41.224 -16.420   2.591  1.00  0.00     0.019 A 
HETATM    6  C   UNL     1      40.506 -16.092   1.436  1.00  0.00     0.030 A 
ENDROOT
BRANCH   1   7
HETATM    7  N   UNL     1      38.979 -14.715   0.210  1.00  0.00    -0.322 N 
HETATM    8  C   UNL     1      39.498 -14.082  -0.904  1.00  0.00     0.274 C 
HETATM    9  O   UNL     1      40.633 -13.628  -0.996  1.00  0.00    -0.266 OA
HETATM   10  H   UNL     1      38.028 -15.047   0.134  1.00  0.00     0.169 HD
BRANCH   8  11
HETATM   11  C   UNL     1      38.584 -13.994  -2.019  1.00  0.00     0.120 A 
HETATM   12  N   UNL     1      38.267 -15.102  -2.760  1.00  0.00    -0.273 N 
HETATM   13  N   UNL     1      37.399 -14.867  -3.758  1.00  0.00    -0.179 NA
HETATM   14  H   UNL     1      38.615 -16.045  -2.623  1.00  0.00     0.189 HD
HETATM   15  C   UNL     1      37.146 -13.558  -3.663  1.00  0.00     0.056 A 
HETATM   16  C   UNL     1      37.862 -12.966  -2.595  1.00  0.00     0.065 A 
BRANCH  15  17
HETATM   17  C   UNL     1      36.206 -12.898  -4.616  1.00  0.00     0.056 C 
HETATM   18  C   UNL     1      35.606 -13.883  -5.609  1.00  0.00     0.011 C 
ENDBRANCH  15  17
ENDBRANCH   8  11
ENDBRANCH   1   7
BRANCH   4  19
HETATM   19  C   UNL     1      41.913 -16.011   4.933  1.00  0.00     0.251 C 
HETATM   20  N   UNL     1      42.808 -17.043   4.762  1.00  0.00    -0.353 N 
HETATM   21  H   UNL     1      42.901 -17.507   3.870  1.00  0.00     0.163 HD
HETATM   22  O   UNL     1      41.745 -15.435   6.000  1.00  0.00    -0.268 OA
BRANCH  20  23
HETATM   23  C   UNL     1      43.593 -17.546   5.868  1.00  0.00     0.161 C 
BRANCH  23  24
HETATM   24  C   UNL     1      43.979 -18.991   5.662  1.00  0.00    -0.040 A 
HETATM   25  C   UNL     1      44.701 -19.378   4.522  1.00  0.00     0.012 A 
HETATM   26  C   UNL     1      45.082 -20.709   4.343  1.00  0.00     0.043 A 
HETATM   27  C   UNL     1      44.748 -21.655   5.305  1.00  0.00     0.116 A 
HETATM   28  F   UNL     1      45.114 -22.931   5.130  1.00  0.00    -0.206 F 
HETATM   29  C   UNL     1      44.047 -21.294   6.448  1.00  0.00     0.043 A 
HETATM   30  C   UNL     1      43.671 -19.963   6.632  1.00  0.00     0.012 A 
ENDBRANCH  23  24
ENDBRANCH  20  23
ENDBRANCH   4  19
TORSDOF 6
ENDMDL
MODEL 5
REMARK VINA RESULT:      -7.6      3.385      3.569
REMARK  6 active torsions:
REMARK  status: ('A' for Active; 'I' for Inactive)
REMARK    1  A    between atoms: C_2  and  C_3 
REMARK    2  A    between atoms: C_7  and  C_8 
REMARK       I    between atoms: C_8  and  N_9 
REMARK    3  A    between atoms: N_9  and  C_10 
REMARK    4  A    between atoms: C_13  and  C_14 
REMARK       I    between atoms: C_14  and  N_15 
REMARK    5  A    between atoms: N_15  and  C_16 
REMARK    6  A    between atoms: C_16  and  C_17 
ROOT
HETATM    1  C   UNL     1      40.674 -13.099   5.998  1.00  0.00     0.035 A 
HETATM    2  C   UNL     1      39.745 -13.900   5.331  1.00  0.00     0.030 A 
HETATM    3  C   UNL     1      40.137 -14.705   4.252  1.00  0.00     0.019 A 
HETATM    4  C   UNL     1      41.471 -14.720   3.834  1.00  0.00     0.032 A 
HETATM    5  C   UNL     1      42.397 -13.891   4.474  1.00  0.00     0.019 A 
HETATM    6  C   UNL     1      42.001 -13.089   5.549  1.00  0.00     0.030 A 
ENDROOT
BRANCH   1   7
HETATM    7  N   UNL     1      40.372 -12.294   7.113  1.00  0.00    -0.322 N 
HETATM    8  C   UNL     1      39.632 -11.127   7.144  1.00  0.00     0.274 C 
HETATM    9  O   UNL     1      39.135 -10.577   6.168  1.00  0.00    -0.266 OA
HETATM   10  H   UNL     1      40.709 -12.635   8.002  1.00  0.00     0.169 HD
BRANCH   8  11
HETATM   11  C   UNL     1      39.454 -10.569   8.465  1.00  0.00     0.120 A 
HETATM   12  N   UNL     1      38.668  -9.465   8.665  1.00  0.00    -0.273 N 
HETATM   13  N   UNL     1      38.592  -9.068   9.945  1.00  0.00    -0.179 NA
HETATM   14  H   UNL     1      38.158  -8.946   7.957  1.00  0.00     0.189 HD
HETATM   15  C   UNL     1      39.359  -9.944  10.601  1.00  0.00     0.056 A 
HETATM   16  C   UNL     1      39.922 -10.901   9.722  1.00  0.00     0.065 A 
BRANCH  15  17
HETATM   17  C   UNL     1      39.533  -9.839  12.079  1.00  0.00     0.056 C 
HETATM   18  C   UNL     1      40.314  -8.597  12.480  1.00  0.00     0.011 C 
ENDBRANCH  15  17
ENDBRANCH   8  11
ENDBRANCH   1   7
BRANCH   4  19
HETATM   19  C   UNL     1      41.960 -15.599   2.737  1.00  0.00     0.251 C 
HETATM   20  N   UNL     1      41.787 -16.953   2.914  1.00  0.00    -0.353 N 
HETATM   21  H   UNL     1      41.326 -17.314   3.736  1.00  0.00     0.163 HD
HETATM   22  O   UNL     1      42.534 -15.113   1.769  1.00  0.00    -0.268 OA
BRANCH  20  23
HETATM   23  C   UNL     1      42.319 -17.907   1.967  1.00  0.00     0.161 C 
BRANCH  23  24
HETATM   24  C   UNL     1      43.143 -18.970   2.653  1.00  0.00    -0.040 A 
HETATM   25  C   UNL     1      43.531 -20.126   1.959  1.00  0.00     0.012 A 
HETATM   26  C   UNL     1      44.317 -21.097   2.584  1.00  0.00     0.043 A 
HETATM   27  C   UNL     1      44.720 -20.912   3.900  1.00  0.00     0.116 A 
HETATM   28  F   UNL     1      45.472 -21.845   4.498  1.00  0.00    -0.206 F 
HETATM   29  C   UNL     1      44.361 -19.769   4.603  1.00  0.00     0.043 A 
HETATM   30  C   UNL     1      43.582 -18.795   3.979  1.00  0.00     0.012 A 
ENDBRANCH  23  24
ENDBRANCH  20  23
ENDBRANCH   4  19
TORSDOF 6
ENDMDL
MODEL 6
REMARK VINA RESULT:      -7.4      3.985      5.221
REMARK  6 active torsions:
REMARK  status: ('A' for Active; 'I' for Inactive)
REMARK    1  A    between atoms: C_2  and  C_3 
REMARK    2  A    between atoms: C_7  and  C_8 
REMARK       I    between atoms: C_8  and  N_9 
REMARK    3  A    between atoms: N_9  and  C_10 
REMARK    4  A    between atoms: C_13  and  C_14 
REMARK       I    between atoms: C_14  and  N_15 
REMARK    5  A    between atoms: N_15  and  C_16 
REMARK    6  A    between atoms: C_16  and  C_17 
ROOT
HETATM    1  C   UNL     1      43.046 -13.905   6.137  1.00  0.00     0.035 A 
HETATM    2  C   UNL     1      42.939 -15.297   6.162  1.00  0.00     0.030 A 
HETATM    3  C   UNL     1      42.654 -16.013   4.991  1.00  0.00     0.019 A 
HETATM    4  C   UNL     1      42.478 -15.340   3.779  1.00  0.00     0.032 A 
HETATM    5  C   UNL     1      42.546 -13.944   3.757  1.00  0.00     0.019 A 
HETATM    6  C   UNL     1      42.830 -13.233   4.927  1.00  0.00     0.030 A 
ENDROOT
BRANCH   1   7
HETATM    7  N   UNL     1      43.368 -13.114   7.257  1.00  0.00    -0.322 N 
HETATM    8  C   UNL     1      44.564 -13.067   7.949  1.00  0.00     0.274 C 
HETATM    9  O   UNL     1      45.550 -13.752   7.706  1.00  0.00    -0.266 OA
HETATM   10  H   UNL     1      42.646 -12.479   7.567  1.00  0.00     0.169 HD
BRANCH   8  11
HETATM   11  C   UNL     1      44.593 -12.102   9.024  1.00  0.00     0.120 A 
HETATM   12  N   UNL     1      45.578 -11.152   9.093  1.00  0.00    -0.273 N 
HETATM   13  N   UNL     1      45.468 -10.320  10.141  1.00  0.00    -0.179 NA
HETATM   14  H   UNL     1      46.349 -11.028   8.444  1.00  0.00     0.189 HD
HETATM   15  C   UNL     1      44.373 -10.747  10.778  1.00  0.00     0.056 A 
HETATM   16  C   UNL     1      43.790 -11.858  10.122  1.00  0.00     0.065 A 
BRANCH  15  17
HETATM   17  C   UNL     1      43.906 -10.064  12.020  1.00  0.00     0.056 C 
HETATM   18  C   UNL     1      42.956 -10.932  12.832  1.00  0.00     0.011 C 
ENDBRANCH  15  17
ENDBRANCH   8  11
ENDBRANCH   1   7
BRANCH   4  19
HETATM   19  C   UNL     1      42.235 -16.049   2.493  1.00  0.00     0.251 C 
HETATM   20  N   UNL     1      41.355 -15.452   1.620  1.00  0.00    -0.353 N 
HETATM   21  H   UNL     1      40.926 -14.565   1.842  1.00  0.00     0.163 HD
HETATM   22  O   UNL     1      42.762 -17.136   2.281  1.00  0.00    -0.268 OA
BRANCH  20  23
HETATM   23  C   UNL     1      40.960 -16.102   0.390  1.00  0.00     0.161 C 
BRANCH  23  24
HETATM   24  C   UNL     1      41.184 -15.210  -0.807  1.00  0.00    -0.040 A 
HETATM   25  C   UNL     1      41.622 -13.887  -0.633  1.00  0.00     0.012 A 
HETATM   26  C   UNL     1      41.857 -13.068  -1.739  1.00  0.00     0.043 A 
HETATM   27  C   UNL     1      41.660 -13.570  -3.020  1.00  0.00     0.116 A 
HETATM   28  F   UNL     1      41.884 -12.782  -4.080  1.00  0.00    -0.206 F 
HETATM   29  C   UNL     1      41.241 -14.880  -3.217  1.00  0.00     0.043 A 
HETATM   30  C   UNL     1      41.012 -15.702  -2.114  1.00  0.00     0.012 A 
ENDBRANCH  23  24
ENDBRANCH  20  23
ENDBRANCH   4  19
TORSDOF 6
ENDMDL
MODEL 7
REMARK VINA RESULT:      -7.3      6.527      9.832
REMARK  6 active torsions:
REMARK  status: ('A' for Active; 'I' for Inactive)
REMARK    1  A    between atoms: C_2  and  C_3 
REMARK    2  A    between atoms: C_7  and  C_8 
REMARK       I    between atoms: C_8  and  N_9 
REMARK    3  A    between atoms: N_9  and  C_10 
REMARK    4  A    between atoms: C_13  and  C_14 
REMARK       I    between atoms: C_14  and  N_15 
REMARK    5  A    between atoms: N_15  and  C_16 
REMARK    6  A    between atoms: C_16  and  C_17 
ROOT
HETATM    1  C   UNL     1      41.557 -16.622   2.017  1.00  0.00     0.035 A 
HETATM    2  C   UNL     1      40.436 -15.934   2.489  1.00  0.00     0.030 A 
HETATM    3  C   UNL     1      39.748 -15.035   1.661  1.00  0.00     0.019 A 
HETATM    4  C   UNL     1      40.174 -14.820   0.347  1.00  0.00     0.032 A 
HETATM    5  C   UNL     1      41.317 -15.477  -0.116  1.00  0.00     0.019 A 
HETATM    6  C   UNL     1      42.001 -16.373   0.712  1.00  0.00     0.030 A 
ENDROOT
BRANCH   1   7
HETATM    7  N   UNL     1      42.279 -17.570   2.768  1.00  0.00    -0.322 N 
HETATM    8  C   UNL     1      43.104 -17.345   3.854  1.00  0.00     0.274 C 
HETATM    9  O   UNL     1      43.367 -16.246   4.328  1.00  0.00    -0.266 OA
HETATM   10  H   UNL     1      42.148 -18.534   2.496  1.00  0.00     0.169 HD
BRANCH   8  11
HETATM   11  C   UNL     1      43.656 -18.544   4.441  1.00  0.00     0.120 A 
HETATM   12  N   UNL     1      43.876 -18.632   5.790  1.00  0.00    -0.273 N 
HETATM   13  N   UNL     1      44.384 -19.809   6.189  1.00  0.00    -0.179 NA
HETATM   14  H   UNL     1      43.692 -17.914   6.484  1.00  0.00     0.189 HD
HETATM   15  C   UNL     1      44.502 -20.510   5.057  1.00  0.00     0.056 A 
HETATM   16  C   UNL     1      44.063 -19.765   3.937  1.00  0.00     0.065 A 
BRANCH  15  17
HETATM   17  C   UNL     1      45.040 -21.901   5.081  1.00  0.00     0.056 C 
HETATM   18  C   UNL     1      44.689 -22.678   3.821  1.00  0.00     0.011 C 
ENDBRANCH  15  17
ENDBRANCH   8  11
ENDBRANCH   1   7
BRANCH   4  19
HETATM   19  C   UNL     1      39.449 -13.927  -0.597  1.00  0.00     0.251 C 
HETATM   20  N   UNL     1      39.620 -14.185  -1.938  1.00  0.00    -0.353 N 
HETATM   21  H   UNL     1      40.188 -14.959  -2.249  1.00  0.00     0.163 HD
HETATM   22  O   UNL     1      38.791 -12.985  -0.170  1.00  0.00    -0.268 OA
BRANCH  20  23
HETATM   23  C   UNL     1      39.053 -13.317  -2.947  1.00  0.00     0.161 C 
BRANCH  23  24
HETATM   24  C   UNL     1      40.095 -12.396  -3.535  1.00  0.00    -0.040 A 
HETATM   25  C   UNL     1      41.461 -12.686  -3.390  1.00  0.00     0.012 A 
HETATM   26  C   UNL     1      42.425 -11.850  -3.957  1.00  0.00     0.043 A 
HETATM   27  C   UNL     1      42.027 -10.728  -4.673  1.00  0.00     0.116 A 
HETATM   28  F   UNL     1      42.954  -9.927  -5.214  1.00  0.00    -0.206 F 
HETATM   29  C   UNL     1      40.681 -10.429  -4.842  1.00  0.00     0.043 A 
HETATM   30  C   UNL     1      39.716 -11.266  -4.283  1.00  0.00     0.012 A 
ENDBRANCH  23  24
ENDBRANCH  20  23
ENDBRANCH   4  19
TORSDOF 6
ENDMDL
MODEL 8
REMARK VINA RESULT:      -7.2      5.357      9.323
REMARK  6 active torsions:
REMARK  status: ('A' for Active; 'I' for Inactive)
REMARK    1  A    between atoms: C_2  and  C_3 
REMARK    2  A    between atoms: C_7  and  C_8 
REMARK       I    between atoms: C_8  and  N_9 
REMARK    3  A    between atoms: N_9  and  C_10 
REMARK    4  A    between atoms: C_13  and  C_14 
REMARK       I    between atoms: C_14  and  N_15 
REMARK    5  A    between atoms: N_15  and  C_16 
REMARK    6  A    between atoms: C_16  and  C_17 
ROOT
HETATM    1  C   UNL     1      41.846 -14.969   0.389  1.00  0.00     0.035 A 
HETATM    2  C   UNL     1      41.733 -16.361   0.399  1.00  0.00     0.030 A 
HETATM    3  C   UNL     1      41.819 -17.077   1.601  1.00  0.00     0.019 A 
HETATM    4  C   UNL     1      42.015 -16.404   2.809  1.00  0.00     0.032 A 
HETATM    5  C   UNL     1      42.166 -15.014   2.800  1.00  0.00     0.019 A 
HETATM    6  C   UNL     1      42.080 -14.303   1.599  1.00  0.00     0.030 A 
ENDROOT
BRANCH   1   7
HETATM    7  N   UNL     1      41.730 -14.171  -0.766  1.00  0.00    -0.322 N 
HETATM    8  C   UNL     1      40.580 -13.823  -1.448  1.00  0.00     0.274 C 
HETATM    9  O   UNL     1      39.447 -14.192  -1.160  1.00  0.00    -0.266 OA
HETATM   10  H   UNL     1      42.594 -13.780  -1.115  1.00  0.00     0.169 HD
BRANCH   8  11
HETATM   11  C   UNL     1      40.796 -12.938  -2.569  1.00  0.00     0.120 A 
HETATM   12  N   UNL     1      42.041 -12.790  -3.121  1.00  0.00    -0.273 N 
HETATM   13  N   UNL     1      42.084 -11.942  -4.161  1.00  0.00    -0.179 NA
HETATM   14  H   UNL     1      42.896 -13.249  -2.824  1.00  0.00     0.189 HD
HETATM   15  C   UNL     1      40.822 -11.522  -4.289  1.00  0.00     0.056 A 
HETATM   16  C   UNL     1      39.978 -12.113  -3.318  1.00  0.00     0.065 A 
BRANCH  15  17
HETATM   17  C   UNL     1      40.452 -10.550  -5.358  1.00  0.00     0.056 C 
HETATM   18  C   UNL     1      41.655  -9.774  -5.873  1.00  0.00     0.011 C 
ENDBRANCH  15  17
ENDBRANCH   8  11
ENDBRANCH   1   7
BRANCH   4  19
HETATM   19  C   UNL     1      42.053 -17.103   4.123  1.00  0.00     0.251 C 
HETATM   20  N   UNL     1      43.242 -17.047   4.813  1.00  0.00    -0.353 N 
HETATM   21  H   UNL     1      44.029 -16.531   4.448  1.00  0.00     0.163 HD
HETATM   22  O   UNL     1      41.078 -17.736   4.510  1.00  0.00    -0.268 OA
BRANCH  20  23
HETATM   23  C   UNL     1      43.430 -17.779   6.046  1.00  0.00     0.161 C 
BRANCH  23  24
HETATM   24  C   UNL     1      43.902 -19.190   5.786  1.00  0.00    -0.040 A 
HETATM   25  C   UNL     1      44.656 -19.486   4.640  1.00  0.00     0.012 A 
HETATM   26  C   UNL     1      45.117 -20.784   4.412  1.00  0.00     0.043 A 
HETATM   27  C   UNL     1      44.830 -21.787   5.330  1.00  0.00     0.116 A 
HETATM   28  F   UNL     1      45.272 -23.031   5.109  1.00  0.00    -0.206 F 
HETATM   29  C   UNL     1      44.097 -21.515   6.479  1.00  0.00     0.043 A 
HETATM   30  C   UNL     1      43.641 -20.217   6.712  1.00  0.00     0.012 A 
ENDBRANCH  23  24
ENDBRANCH  20  23
ENDBRANCH   4  19
TORSDOF 6
ENDMDL
MODEL 9
REMARK VINA RESULT:      -7.1      6.669     10.039
REMARK  6 active torsions:
REMARK  status: ('A' for Active; 'I' for Inactive)
REMARK    1  A    between atoms: C_2  and  C_3 
REMARK    2  A    between atoms: C_7  and  C_8 
REMARK       I    between atoms: C_8  and  N_9 
REMARK    3  A    between atoms: N_9  and  C_10 
REMARK    4  A    between atoms: C_13  and  C_14 
REMARK       I    between atoms: C_14  and  N_15 
REMARK    5  A    between atoms: N_15  and  C_16 
REMARK    6  A    between atoms: C_16  and  C_17 
ROOT
HETATM    1  C   UNL     1      41.462 -16.732   1.918  1.00  0.00     0.035 A 
HETATM    2  C   UNL     1      41.922 -16.207   0.708  1.00  0.00     0.030 A 
HETATM    3  C   UNL     1      41.179 -15.236   0.022  1.00  0.00     0.019 A 
HETATM    4  C   UNL     1      39.967 -14.777   0.545  1.00  0.00     0.032 A 
HETATM    5  C   UNL     1      39.485 -15.327   1.736  1.00  0.00     0.019 A 
HETATM    6  C   UNL     1      40.229 -16.296   2.418  1.00  0.00     0.030 A 
ENDROOT
BRANCH   1   7
HETATM    7  N   UNL     1      42.165 -17.678   2.690  1.00  0.00    -0.322 N 
HETATM    8  C   UNL     1      43.061 -17.442   3.716  1.00  0.00     0.274 C 
HETATM    9  O   UNL     1      43.418 -16.335   4.104  1.00  0.00    -0.266 OA
HETATM   10  H   UNL     1      41.959 -18.646   2.489  1.00  0.00     0.169 HD
BRANCH   8  11
HETATM   11  C   UNL     1      43.569 -18.636   4.350  1.00  0.00     0.120 A 
HETATM   12  N   UNL     1      43.478 -18.808   5.706  1.00  0.00    -0.273 N 
HETATM   13  N   UNL     1      43.985 -19.971   6.148  1.00  0.00    -0.179 NA
HETATM   14  H   UNL     1      43.075 -18.160   6.375  1.00  0.00     0.189 HD
HETATM   15  C   UNL     1      44.424 -20.574   5.039  1.00  0.00     0.056 A 
HETATM   16  C   UNL     1      44.189 -19.782   3.889  1.00  0.00     0.065 A 
BRANCH  15  17
HETATM   17  C   UNL     1      45.066 -21.919   5.113  1.00  0.00     0.056 C 
HETATM   18  C   UNL     1      44.752 -22.775   3.895  1.00  0.00     0.011 C 
ENDBRANCH  15  17
ENDBRANCH   8  11
ENDBRANCH   1   7
BRANCH   4  19
HETATM   19  C   UNL     1      39.165 -13.705  -0.106  1.00  0.00     0.251 C 
HETATM   20  N   UNL     1      39.434 -13.458  -1.433  1.00  0.00    -0.353 N 
HETATM   21  H   UNL     1      40.122 -14.003  -1.932  1.00  0.00     0.163 HD
HETATM   22  O   UNL     1      38.359 -13.056   0.551  1.00  0.00    -0.268 OA
BRANCH  20  23
HETATM   23  C   UNL     1      38.796 -12.369  -2.138  1.00  0.00     0.161 C 
BRANCH  23  24
HETATM   24  C   UNL     1      37.764 -12.872  -3.118  1.00  0.00    -0.040 A 
HETATM   25  C   UNL     1      36.951 -11.967  -3.820  1.00  0.00     0.012 A 
HETATM   26  C   UNL     1      36.015 -12.429  -4.747  1.00  0.00     0.043 A 
HETATM   27  C   UNL     1      35.892 -13.793  -4.978  1.00  0.00     0.116 A 
HETATM   28  F   UNL     1      34.992 -14.234  -5.867  1.00  0.00    -0.206 F 
HETATM   29  C   UNL     1      36.695 -14.707  -4.307  1.00  0.00     0.043 A 
HETATM   30  C   UNL     1      37.635 -14.247  -3.385  1.00  0.00     0.012 A 
ENDBRANCH  23  24
ENDBRANCH  20  23
ENDBRANCH   4  19
TORSDOF 6
ENDMDL
MODEL 10
REMARK VINA RESULT:      -7.0      4.482      5.850
REMARK  6 active torsions:
REMARK  status: ('A' for Active; 'I' for Inactive)
REMARK    1  A    between atoms: C_2  and  C_3 
REMARK    2  A    between atoms: C_7  and  C_8 
REMARK       I    between atoms: C_8  and  N_9 
REMARK    3  A    between atoms: N_9  and  C_10 
REMARK    4  A    between atoms: C_13  and  C_14 
REMARK       I    between atoms: C_14  and  N_15 
REMARK    5  A    between atoms: N_15  and  C_16 
REMARK    6  A    between atoms: C_16  and  C_17 
ROOT
HETATM    1  C   UNL     1      40.968 -13.395   4.874  1.00  0.00     0.035 A 
HETATM    2  C   UNL     1      40.391 -14.635   4.592  1.00  0.00     0.030 A 
HETATM    3  C   UNL     1      41.061 -15.825   4.909  1.00  0.00     0.019 A 
HETATM    4  C   UNL     1      42.318 -15.783   5.520  1.00  0.00     0.032 A 
HETATM    5  C   UNL     1      42.916 -14.545   5.769  1.00  0.00     0.019 A 
HETATM    6  C   UNL     1      42.244 -13.360   5.451  1.00  0.00     0.030 A 
ENDROOT
BRANCH   1   7
HETATM    7  N   UNL     1      40.346 -12.156   4.625  1.00  0.00    -0.322 N 
HETATM    8  C   UNL     1      39.341 -11.548   5.353  1.00  0.00     0.274 C 
HETATM    9  O   UNL     1      38.795 -12.023   6.342  1.00  0.00    -0.266 OA
HETATM   10  H   UNL     1      40.707 -11.636   3.838  1.00  0.00     0.169 HD
BRANCH   8  11
HETATM   11  C   UNL     1      38.958 -10.243   4.865  1.00  0.00     0.120 A 
HETATM   12  N   UNL     1      39.100  -9.128   5.648  1.00  0.00    -0.273 N 
HETATM   13  N   UNL     1      38.712  -7.986   5.057  1.00  0.00    -0.179 NA
HETATM   14  H   UNL     1      39.462  -9.093   6.596  1.00  0.00     0.189 HD
HETATM   15  C   UNL     1      38.299  -8.375   3.846  1.00  0.00     0.056 A 
HETATM   16  C   UNL     1      38.431  -9.774   3.677  1.00  0.00     0.065 A 
BRANCH  15  17
HETATM   17  C   UNL     1      37.782  -7.375   2.867  1.00  0.00     0.056 C 
HETATM   18  C   UNL     1      36.846  -8.002   1.844  1.00  0.00     0.011 C 
ENDBRANCH  15  17
ENDBRANCH   8  11
ENDBRANCH   1   7
BRANCH   4  19
HETATM   19  C   UNL     1      43.050 -17.010   5.936  1.00  0.00     0.251 C 
HETATM   20  N   UNL     1      43.876 -17.581   4.994  1.00  0.00    -0.353 N 
HETATM   21  H   UNL     1      43.990 -17.162   4.083  1.00  0.00     0.163 HD
HETATM   22  O   UNL     1      42.859 -17.494   7.046  1.00  0.00    -0.268 OA
BRANCH  20  23
HETATM   23  C   UNL     1      44.552 -18.834   5.249  1.00  0.00     0.161 C 
BRANCH  23  24
HETATM   24  C   UNL     1      44.361 -19.808   4.112  1.00  0.00    -0.040 A 
HETATM   25  C   UNL     1      43.813 -19.378   2.893  1.00  0.00     0.012 A 
HETATM   26  C   UNL     1      43.662 -20.271   1.831  1.00  0.00     0.043 A 
HETATM   27  C   UNL     1      44.060 -21.593   1.982  1.00  0.00     0.116 A 
HETATM   28  F   UNL     1      43.912 -22.449   0.962  1.00  0.00    -0.206 F 
HETATM   29  C   UNL     1      44.618 -22.039   3.173  1.00  0.00     0.043 A 
HETATM   30  C   UNL     1      44.777 -21.147   4.234  1.00  0.00     0.012 A 
ENDBRANCH  23  24
ENDBRANCH  20  23
ENDBRANCH   4  19
TORSDOF 6
ENDMDL
