MODEL 1
REMARK VINA RESULT:      -9.3      0.000      0.000
REMARK  6 active torsions:
REMARK  status: ('A' for Active; 'I' for Inactive)
REMARK    1  A    between atoms: C_2  and  O_4 
REMARK    2  A    between atoms: O_4  and  C_5 
REMARK    3  A    between atoms: C_9  and  N_10 
REMARK    4  A    between atoms: N_10  and  C_11 
REMARK    5  A    between atoms: N_14  and  C_17 
REMARK    6  A    between atoms: C_20  and  C_23 
ROOT
HETATM    1  C   UNL     1      41.406 -11.683   5.862  1.00  0.00     0.176 C 
HETATM    2  C   UNL     1      40.583 -11.637   4.584  1.00  0.00     0.055 C 
HETATM    3  C   UNL     1      40.370 -13.099   4.243  1.00  0.00     0.135 C 
HETATM    4  N   UNL     1      41.568 -13.760   4.703  1.00  0.00    -0.316 N 
HETATM    5  C   UNL     1      42.179 -13.001   5.716  1.00  0.00     0.247 C 
HETATM    6  O   UNL     1      43.132 -13.294   6.427  1.00  0.00    -0.271 OA
ENDROOT
BRANCH   4   7
HETATM    7  C   UNL     1      41.988 -15.035   4.228  1.00  0.00     0.037 A 
HETATM    8  C   UNL     1      41.282 -16.207   4.537  1.00  0.00     0.030 A 
HETATM    9  C   UNL     1      41.736 -17.467   4.123  1.00  0.00     0.016 A 
HETATM   10  C   UNL     1      42.930 -17.578   3.414  1.00  0.00    -0.005 A 
HETATM   11  C   UNL     1      43.621 -16.425   3.048  1.00  0.00     0.016 A 
HETATM   12  C   UNL     1      43.153 -15.167   3.452  1.00  0.00     0.030 A 
BRANCH  10  13
HETATM   13  C   UNL     1      43.451 -18.904   2.992  1.00  0.00     0.098 A 
HETATM   14  N   UNL     1      43.507 -19.127   1.712  1.00  0.00    -0.170 NA
HETATM   15  N   UNL     1      43.924 -20.346   1.282  1.00  0.00    -0.242 N 
HETATM   16  C   UNL     1      44.250 -21.417   2.078  1.00  0.00     0.272 A 
HETATM   17  H   UNL     1      43.926 -20.499   0.278  1.00  0.00     0.192 HD
HETATM   18  O   UNL     1      44.556 -22.510   1.616  1.00  0.00    -0.266 OA
HETATM   19  C   UNL     1      44.241 -21.172   3.528  1.00  0.00     0.046 A 
HETATM   20  C   UNL     1      44.630 -22.184   4.415  1.00  0.00     0.018 A 
HETATM   21  C   UNL     1      43.879 -19.912   4.001  1.00  0.00     0.011 A 
HETATM   22  C   UNL     1      44.676 -21.929   5.785  1.00  0.00     0.001 A 
HETATM   23  C   UNL     1      44.354 -20.659   6.263  1.00  0.00     0.001 A 
HETATM   24  C   UNL     1      43.966 -19.650   5.375  1.00  0.00     0.015 A 
ENDBRANCH  10  13
ENDBRANCH   4   7
BRANCH   1  25
HETATM   25  N   UNL     1      40.517 -11.713   7.027  1.00  0.00    -0.377 N 
HETATM   26  H   UNL     1      40.094 -12.627   7.196  1.00  0.00     0.160 HD
BRANCH  25  27
HETATM   27  C   UNL     1      40.809 -11.031   8.208  1.00  0.00     0.031 A 
HETATM   28  C   UNL     1      39.860 -10.669   9.170  1.00  0.00     0.029 A 
HETATM   29  C   UNL     1      40.238 -10.036  10.360  1.00  0.00     0.005 A 
HETATM   30  C   UNL     1      41.583  -9.806  10.631  1.00  0.00     0.037 A 
HETATM   31  C   UNL     1      42.552 -10.217   9.720  1.00  0.00     0.077 A 
HETATM   32  C   UNL     1      42.161 -10.800   8.510  1.00  0.00     0.066 A 
BRANCH  31  33
HETATM   33  O   UNL     1      43.847  -9.983  10.091  1.00  0.00    -0.290 OA
BRANCH  33  34
HETATM   34  C   UNL     1      44.275 -10.728  11.221  1.00  0.00     0.505 C 
HETATM   35  F   UNL     1      45.554 -11.133  11.023  1.00  0.00    -0.184 F 
HETATM   36  F   UNL     1      44.298  -9.879  12.280  1.00  0.00    -0.184 F 
ENDBRANCH  33  34
ENDBRANCH  31  33
ENDBRANCH  25  27
ENDBRANCH   1  25
TORSDOF 6
ENDMDL
MODEL 2
REMARK VINA RESULT:      -9.3      1.984      2.644
REMARK  6 active torsions:
REMARK  status: ('A' for Active; 'I' for Inactive)
REMARK    1  A    between atoms: C_2  and  O_4 
REMARK    2  A    between atoms: O_4  and  C_5 
REMARK    3  A    between atoms: C_9  and  N_10 
REMARK    4  A    between atoms: N_10  and  C_11 
REMARK    5  A    between atoms: N_14  and  C_17 
REMARK    6  A    between atoms: C_20  and  C_23 
ROOT
HETATM    1  C   UNL     1      40.482 -10.658   6.532  1.00  0.00     0.176 C 
HETATM    2  C   UNL     1      39.463 -11.095   5.490  1.00  0.00     0.055 C 
HETATM    3  C   UNL     1      39.457 -12.607   5.608  1.00  0.00     0.135 C 
HETATM    4  N   UNL     1      40.811 -12.951   5.968  1.00  0.00    -0.316 N 
HETATM    5  C   UNL     1      41.438 -11.857   6.589  1.00  0.00     0.247 C 
HETATM    6  O   UNL     1      42.533 -11.808   7.136  1.00  0.00    -0.271 OA
ENDROOT
BRANCH   4   7
HETATM    7  C   UNL     1      41.363 -14.250   5.778  1.00  0.00     0.037 A 
HETATM    8  C   UNL     1      40.584 -15.409   5.906  1.00  0.00     0.030 A 
HETATM    9  C   UNL     1      41.147 -16.687   5.783  1.00  0.00     0.016 A 
HETATM   10  C   UNL     1      42.515 -16.827   5.560  1.00  0.00    -0.005 A 
HETATM   11  C   UNL     1      43.300 -15.691   5.376  1.00  0.00     0.016 A 
HETATM   12  C   UNL     1      42.728 -14.416   5.483  1.00  0.00     0.030 A 
BRANCH  10  13
HETATM   13  C   UNL     1      43.142 -18.170   5.459  1.00  0.00     0.098 A 
HETATM   14  N   UNL     1      43.481 -18.740   6.578  1.00  0.00    -0.170 NA
HETATM   15  N   UNL     1      44.109 -19.944   6.530  1.00  0.00    -0.242 N 
HETATM   16  C   UNL     1      44.482 -20.617   5.393  1.00  0.00     0.272 A 
HETATM   17  H   UNL     1      44.390 -20.346   7.419  1.00  0.00     0.192 HD
HETATM   18  O   UNL     1      45.106 -21.671   5.428  1.00  0.00    -0.266 OA
HETATM   19  C   UNL     1      44.064 -20.015   4.118  1.00  0.00     0.046 A 
HETATM   20  C   UNL     1      44.337 -20.669   2.909  1.00  0.00     0.018 A 
HETATM   21  C   UNL     1      43.363 -18.811   4.134  1.00  0.00     0.011 A 
HETATM   22  C   UNL     1      43.887 -20.124   1.707  1.00  0.00     0.001 A 
HETATM   23  C   UNL     1      43.150 -18.941   1.717  1.00  0.00     0.001 A 
HETATM   24  C   UNL     1      42.879 -18.291   2.926  1.00  0.00     0.015 A 
ENDBRANCH  10  13
ENDBRANCH   4   7
BRANCH   1  25
HETATM   25  N   UNL     1      39.817 -10.446   7.821  1.00  0.00    -0.377 N 
HETATM   26  H   UNL     1      39.343 -11.276   8.179  1.00  0.00     0.160 HD
BRANCH  25  27
HETATM   27  C   UNL     1      40.381  -9.671   8.834  1.00  0.00     0.031 A 
HETATM   28  C   UNL     1      40.216  -8.287   8.958  1.00  0.00     0.029 A 
HETATM   29  C   UNL     1      40.766  -7.585  10.036  1.00  0.00     0.005 A 
HETATM   30  C   UNL     1      41.444  -8.267  11.041  1.00  0.00     0.037 A 
HETATM   31  C   UNL     1      41.564  -9.653  10.976  1.00  0.00     0.077 A 
HETATM   32  C   UNL     1      41.058 -10.340   9.867  1.00  0.00     0.066 A 
BRANCH  31  33
HETATM   33  O   UNL     1      42.212 -10.239  12.027  1.00  0.00    -0.290 OA
BRANCH  33  34
HETATM   34  C   UNL     1      43.580  -9.877  12.146  1.00  0.00     0.505 C 
HETATM   35  F   UNL     1      43.856  -9.618  13.448  1.00  0.00    -0.184 F 
HETATM   36  F   UNL     1      44.317 -10.963  11.802  1.00  0.00    -0.184 F 
ENDBRANCH  33  34
ENDBRANCH  31  33
ENDBRANCH  25  27
ENDBRANCH   1  25
TORSDOF 6
ENDMDL
MODEL 3
REMARK VINA RESULT:      -9.1      8.255     10.639
REMARK  6 active torsions:
REMARK  status: ('A' for Active; 'I' for Inactive)
REMARK    1  A    between atoms: C_2  and  O_4 
REMARK    2  A    between atoms: O_4  and  C_5 
REMARK    3  A    between atoms: C_9  and  N_10 
REMARK    4  A    between atoms: N_10  and  C_11 
REMARK    5  A    between atoms: N_14  and  C_17 
REMARK    6  A    between atoms: C_20  and  C_23 
ROOT
HETATM    1  C   UNL     1      39.478 -13.840  -2.237  1.00  0.00     0.176 C 
HETATM    2  C   UNL     1      40.738 -14.476  -2.805  1.00  0.00     0.055 C 
HETATM    3  C   UNL     1      41.041 -15.600  -1.834  1.00  0.00     0.135 C 
HETATM    4  N   UNL     1      40.594 -15.108  -0.553  1.00  0.00    -0.316 N 
HETATM    5  C   UNL     1      39.612 -14.118  -0.733  1.00  0.00     0.247 C 
HETATM    6  O   UNL     1      38.918 -13.563   0.109  1.00  0.00    -0.271 OA
ENDROOT
BRANCH   4   7
HETATM    7  C   UNL     1      41.050 -15.635   0.688  1.00  0.00     0.037 A 
HETATM    8  C   UNL     1      42.340 -15.375   1.172  1.00  0.00     0.030 A 
HETATM    9  C   UNL     1      42.807 -15.950   2.362  1.00  0.00     0.016 A 
HETATM   10  C   UNL     1      41.994 -16.828   3.076  1.00  0.00    -0.005 A 
HETATM   11  C   UNL     1      40.690 -17.061   2.645  1.00  0.00     0.016 A 
HETATM   12  C   UNL     1      40.224 -16.469   1.463  1.00  0.00     0.030 A 
BRANCH  10  13
HETATM   13  C   UNL     1      42.477 -17.478   4.322  1.00  0.00     0.098 A 
HETATM   14  N   UNL     1      42.113 -16.928   5.444  1.00  0.00    -0.170 NA
HETATM   15  N   UNL     1      42.577 -17.456   6.606  1.00  0.00    -0.242 N 
HETATM   16  C   UNL     1      43.456 -18.504   6.725  1.00  0.00     0.272 A 
HETATM   17  H   UNL     1      42.302 -16.984   7.462  1.00  0.00     0.192 HD
HETATM   18  O   UNL     1      43.883 -18.884   7.809  1.00  0.00    -0.266 OA
HETATM   19  C   UNL     1      43.841 -19.171   5.473  1.00  0.00     0.046 A 
HETATM   20  C   UNL     1      44.677 -20.296   5.503  1.00  0.00     0.018 A 
HETATM   21  C   UNL     1      43.333 -18.695   4.266  1.00  0.00     0.011 A 
HETATM   22  C   UNL     1      44.990 -20.961   4.318  1.00  0.00     0.001 A 
HETATM   23  C   UNL     1      44.454 -20.514   3.111  1.00  0.00     0.001 A 
HETATM   24  C   UNL     1      43.620 -19.392   3.084  1.00  0.00     0.015 A 
ENDBRANCH  10  13
ENDBRANCH   4   7
BRANCH   1  25
HETATM   25  N   UNL     1      38.292 -14.497  -2.795  1.00  0.00    -0.377 N 
HETATM   26  H   UNL     1      37.876 -15.189  -2.172  1.00  0.00     0.160 HD
BRANCH  25  27
HETATM   27  C   UNL     1      37.340 -13.807  -3.545  1.00  0.00     0.031 A 
HETATM   28  C   UNL     1      37.191 -12.415  -3.549  1.00  0.00     0.029 A 
HETATM   29  C   UNL     1      36.250 -11.789  -4.373  1.00  0.00     0.005 A 
HETATM   30  C   UNL     1      35.480 -12.544  -5.252  1.00  0.00     0.037 A 
HETATM   31  C   UNL     1      35.657 -13.923  -5.317  1.00  0.00     0.077 A 
HETATM   32  C   UNL     1      36.562 -14.546  -4.450  1.00  0.00     0.066 A 
BRANCH  31  33
HETATM   33  O   UNL     1      34.884 -14.575  -6.237  1.00  0.00    -0.290 OA
BRANCH  33  34
HETATM   34  C   UNL     1      35.132 -14.195  -7.583  1.00  0.00     0.505 C 
HETATM   35  F   UNL     1      36.435 -14.428  -7.875  1.00  0.00    -0.184 F 
HETATM   36  F   UNL     1      34.402 -15.020  -8.376  1.00  0.00    -0.184 F 
ENDBRANCH  33  34
ENDBRANCH  31  33
ENDBRANCH  25  27
ENDBRANCH   1  25
TORSDOF 6
ENDMDL
MODEL 4
REMARK VINA RESULT:      -9.1      3.494     10.530
REMARK  6 active torsions:
REMARK  status: ('A' for Active; 'I' for Inactive)
REMARK    1  A    between atoms: C_2  and  O_4 
REMARK    2  A    between atoms: O_4  and  C_5 
REMARK    3  A    between atoms: C_9  and  N_10 
REMARK    4  A    between atoms: N_10  and  C_11 
REMARK    5  A    between atoms: N_14  and  C_17 
REMARK    6  A    between atoms: C_20  and  C_23 
ROOT
HETATM    1  C   UNL     1      40.822 -15.879   3.626  1.00  0.00     0.176 C 
HETATM    2  C   UNL     1      40.085 -14.830   2.807  1.00  0.00     0.055 C 
HETATM    3  C   UNL     1      40.493 -13.520   3.453  1.00  0.00     0.135 C 
HETATM    4  N   UNL     1      40.662 -13.839   4.850  1.00  0.00    -0.316 N 
HETATM    5  C   UNL     1      40.935 -15.209   5.002  1.00  0.00     0.247 C 
HETATM    6  O   UNL     1      41.256 -15.821   6.014  1.00  0.00    -0.271 OA
ENDROOT
BRANCH   4   7
HETATM    7  C   UNL     1      40.631 -12.860   5.883  1.00  0.00     0.037 A 
HETATM    8  C   UNL     1      41.700 -11.978   6.098  1.00  0.00     0.030 A 
HETATM    9  C   UNL     1      41.692 -11.061   7.158  1.00  0.00     0.016 A 
HETATM   10  C   UNL     1      40.620 -11.033   8.046  1.00  0.00    -0.005 A 
HETATM   11  C   UNL     1      39.521 -11.862   7.823  1.00  0.00     0.016 A 
HETATM   12  C   UNL     1      39.529 -12.765   6.752  1.00  0.00     0.030 A 
BRANCH  10  13
HETATM   13  C   UNL     1      40.601 -10.094   9.197  1.00  0.00     0.098 A 
HETATM   14  N   UNL     1      39.610  -9.253   9.247  1.00  0.00    -0.170 NA
HETATM   15  N   UNL     1      39.583  -8.339  10.252  1.00  0.00    -0.242 N 
HETATM   16  C   UNL     1      40.546  -8.168  11.216  1.00  0.00     0.272 A 
HETATM   17  H   UNL     1      38.814  -7.676  10.244  1.00  0.00     0.192 HD
HETATM   18  O   UNL     1      40.485  -7.276  12.054  1.00  0.00    -0.266 OA
HETATM   19  C   UNL     1      41.650  -9.139  11.208  1.00  0.00     0.046 A 
HETATM   20  C   UNL     1      42.639  -9.087  12.199  1.00  0.00     0.018 A 
HETATM   21  C   UNL     1      41.675 -10.130  10.229  1.00  0.00     0.011 A 
HETATM   22  C   UNL     1      43.651 -10.046  12.222  1.00  0.00     0.001 A 
HETATM   23  C   UNL     1      43.661 -11.065  11.269  1.00  0.00     0.001 A 
HETATM   24  C   UNL     1      42.671 -11.114  10.282  1.00  0.00     0.015 A 
ENDBRANCH  10  13
ENDBRANCH   4   7
BRANCH   1  25
HETATM   25  N   UNL     1      42.143 -16.129   3.044  1.00  0.00    -0.377 N 
HETATM   26  H   UNL     1      42.842 -15.429   3.299  1.00  0.00     0.160 HD
BRANCH  25  27
HETATM   27  C   UNL     1      42.682 -17.411   2.937  1.00  0.00     0.031 A 
HETATM   28  C   UNL     1      42.699 -18.167   1.760  1.00  0.00     0.029 A 
HETATM   29  C   UNL     1      43.311 -19.425   1.715  1.00  0.00     0.005 A 
HETATM   30  C   UNL     1      43.967 -19.923   2.836  1.00  0.00     0.037 A 
HETATM   31  C   UNL     1      44.023 -19.160   3.999  1.00  0.00     0.077 A 
HETATM   32  C   UNL     1      43.362 -17.928   4.052  1.00  0.00     0.066 A 
BRANCH  31  33
HETATM   33  O   UNL     1      44.722 -19.715   5.035  1.00  0.00    -0.290 OA
BRANCH  33  34
HETATM   34  C   UNL     1      44.344 -21.047   5.348  1.00  0.00     0.505 C 
HETATM   35  F   UNL     1      45.461 -21.807   5.461  1.00  0.00    -0.184 F 
HETATM   36  F   UNL     1      43.764 -21.026   6.575  1.00  0.00    -0.184 F 
ENDBRANCH  33  34
ENDBRANCH  31  33
ENDBRANCH  25  27
ENDBRANCH   1  25
TORSDOF 6
ENDMDL
MODEL 5
REMARK VINA RESULT:      -9.0      8.007     10.312
REMARK  6 active torsions:
REMARK  status: ('A' for Active; 'I' for Inactive)
REMARK    1  A    between atoms: C_2  and  O_4 
REMARK    2  A    between atoms: O_4  and  C_5 
REMARK    3  A    between atoms: C_9  and  N_10 
REMARK    4  A    between atoms: N_10  and  C_11 
REMARK    5  A    between atoms: N_14  and  C_17 
REMARK    6  A    between atoms: C_20  and  C_23 
ROOT
HETATM    1  C   UNL     1      39.674 -14.084  -1.831  1.00  0.00     0.176 C 
HETATM    2  C   UNL     1      40.730 -14.637  -2.776  1.00  0.00     0.055 C 
HETATM    3  C   UNL     1      41.123 -15.957  -2.141  1.00  0.00     0.135 C 
HETATM    4  N   UNL     1      40.993 -15.732  -0.721  1.00  0.00    -0.316 N 
HETATM    5  C   UNL     1      40.088 -14.684  -0.480  1.00  0.00     0.247 C 
HETATM    6  O   UNL     1      39.632 -14.293   0.588  1.00  0.00    -0.271 OA
ENDROOT
BRANCH   4   7
HETATM    7  C   UNL     1      41.643 -16.534   0.259  1.00  0.00     0.037 A 
HETATM    8  C   UNL     1      43.040 -16.554   0.388  1.00  0.00     0.030 A 
HETATM    9  C   UNL     1      43.679 -17.395   1.309  1.00  0.00     0.016 A 
HETATM   10  C   UNL     1      42.926 -18.259   2.102  1.00  0.00    -0.005 A 
HETATM   11  C   UNL     1      41.534 -18.219   2.031  1.00  0.00     0.016 A 
HETATM   12  C   UNL     1      40.902 -17.363   1.119  1.00  0.00     0.030 A 
BRANCH  10  13
HETATM   13  C   UNL     1      43.580 -19.185   3.063  1.00  0.00     0.098 A 
HETATM   14  N   UNL     1      44.154 -20.237   2.559  1.00  0.00    -0.170 NA
HETATM   15  N   UNL     1      44.716 -21.139   3.405  1.00  0.00    -0.242 N 
HETATM   16  C   UNL     1      44.694 -21.084   4.777  1.00  0.00     0.272 A 
HETATM   17  H   UNL     1      45.127 -21.965   2.982  1.00  0.00     0.192 HD
HETATM   18  O   UNL     1      45.166 -21.971   5.478  1.00  0.00    -0.266 OA
HETATM   19  C   UNL     1      44.092 -19.879   5.367  1.00  0.00     0.046 A 
HETATM   20  C   UNL     1      44.091 -19.702   6.757  1.00  0.00     0.018 A 
HETATM   21  C   UNL     1      43.563 -18.903   4.525  1.00  0.00     0.011 A 
HETATM   22  C   UNL     1      43.573 -18.531   7.308  1.00  0.00     0.001 A 
HETATM   23  C   UNL     1      43.078 -17.532   6.470  1.00  0.00     0.001 A 
HETATM   24  C   UNL     1      43.082 -17.711   5.083  1.00  0.00     0.015 A 
ENDBRANCH  10  13
ENDBRANCH   4   7
BRANCH   1  25
HETATM   25  N   UNL     1      38.346 -14.551  -2.237  1.00  0.00    -0.377 N 
HETATM   26  H   UNL     1      37.831 -15.020  -1.491  1.00  0.00     0.160 HD
BRANCH  25  27
HETATM   27  C   UNL     1      37.517 -13.808  -3.077  1.00  0.00     0.031 A 
HETATM   28  C   UNL     1      37.453 -12.410  -3.093  1.00  0.00     0.029 A 
HETATM   29  C   UNL     1      36.639 -11.732  -4.006  1.00  0.00     0.005 A 
HETATM   30  C   UNL     1      35.917 -12.442  -4.959  1.00  0.00     0.037 A 
HETATM   31  C   UNL     1      36.016 -13.830  -5.009  1.00  0.00     0.077 A 
HETATM   32  C   UNL     1      36.791 -14.503  -4.058  1.00  0.00     0.066 A 
BRANCH  31  33
HETATM   33  O   UNL     1      35.301 -14.437  -6.004  1.00  0.00    -0.290 OA
BRANCH  33  34
HETATM   34  C   UNL     1      35.451 -13.836  -7.281  1.00  0.00     0.505 C 
HETATM   35  F   UNL     1      35.882 -14.773  -8.161  1.00  0.00    -0.184 F 
HETATM   36  F   UNL     1      34.215 -13.455  -7.696  1.00  0.00    -0.184 F 
ENDBRANCH  33  34
ENDBRANCH  31  33
ENDBRANCH  25  27
ENDBRANCH   1  25
TORSDOF 6
ENDMDL
MODEL 6
REMARK VINA RESULT:      -9.0      5.639      9.626
REMARK  6 active torsions:
REMARK  status: ('A' for Active; 'I' for Inactive)
REMARK    1  A    between atoms: C_2  and  O_4 
REMARK    2  A    between atoms: O_4  and  C_5 
REMARK    3  A    between atoms: C_9  and  N_10 
REMARK    4  A    between atoms: N_10  and  C_11 
REMARK    5  A    between atoms: N_14  and  C_17 
REMARK    6  A    between atoms: C_20  and  C_23 
ROOT
HETATM    1  C   UNL     1      43.065 -16.772   6.168  1.00  0.00     0.176 C 
HETATM    2  C   UNL     1      41.906 -17.754   6.085  1.00  0.00     0.055 C 
HETATM    3  C   UNL     1      41.541 -17.753   4.613  1.00  0.00     0.135 C 
HETATM    4  N   UNL     1      41.817 -16.407   4.169  1.00  0.00    -0.316 N 
HETATM    5  C   UNL     1      42.771 -15.808   5.010  1.00  0.00     0.247 C 
HETATM    6  O   UNL     1      43.341 -14.732   4.880  1.00  0.00    -0.271 OA
ENDROOT
BRANCH   4   7
HETATM    7  C   UNL     1      41.245 -15.840   2.995  1.00  0.00     0.037 A 
HETATM    8  C   UNL     1      41.486 -16.377   1.722  1.00  0.00     0.030 A 
HETATM    9  C   UNL     1      40.975 -15.776   0.564  1.00  0.00     0.016 A 
HETATM   10  C   UNL     1      40.234 -14.601   0.659  1.00  0.00    -0.005 A 
HETATM   11  C   UNL     1      39.935 -14.077   1.915  1.00  0.00     0.016 A 
HETATM   12  C   UNL     1      40.436 -14.693   3.070  1.00  0.00     0.030 A 
BRANCH  10  13
HETATM   13  C   UNL     1      39.708 -13.925  -0.555  1.00  0.00     0.098 A 
HETATM   14  N   UNL     1      38.417 -13.919  -0.705  1.00  0.00    -0.170 NA
HETATM   15  N   UNL     1      37.895 -13.361  -1.830  1.00  0.00    -0.242 N 
HETATM   16  C   UNL     1      38.609 -12.836  -2.878  1.00  0.00     0.272 A 
HETATM   17  H   UNL     1      36.886 -13.402  -1.931  1.00  0.00     0.192 HD
HETATM   18  O   UNL     1      38.070 -12.409  -3.892  1.00  0.00    -0.266 OA
HETATM   19  C   UNL     1      40.069 -12.788  -2.707  1.00  0.00     0.046 A 
HETATM   20  C   UNL     1      40.874 -12.203  -3.695  1.00  0.00     0.018 A 
HETATM   21  C   UNL     1      40.633 -13.294  -1.538  1.00  0.00     0.011 A 
HETATM   22  C   UNL     1      42.251 -12.106  -3.502  1.00  0.00     0.001 A 
HETATM   23  C   UNL     1      42.818 -12.574  -2.317  1.00  0.00     0.001 A 
HETATM   24  C   UNL     1      42.013 -13.157  -1.333  1.00  0.00     0.015 A 
ENDBRANCH  10  13
ENDBRANCH   4   7
BRANCH   1  25
HETATM   25  N   UNL     1      44.333 -17.478   5.964  1.00  0.00    -0.377 N 
HETATM   26  H   UNL     1      45.094 -17.130   6.549  1.00  0.00     0.160 HD
BRANCH  25  27
HETATM   27  C   UNL     1      44.396 -18.856   5.765  1.00  0.00     0.031 A 
HETATM   28  C   UNL     1      44.044 -19.813   6.723  1.00  0.00     0.029 A 
HETATM   29  C   UNL     1      44.078 -21.181   6.430  1.00  0.00     0.005 A 
HETATM   30  C   UNL     1      44.411 -21.612   5.150  1.00  0.00     0.037 A 
HETATM   31  C   UNL     1      44.699 -20.678   4.159  1.00  0.00     0.077 A 
HETATM   32  C   UNL     1      44.715 -19.315   4.476  1.00  0.00     0.066 A 
BRANCH  31  33
HETATM   33  O   UNL     1      44.976 -21.194   2.924  1.00  0.00    -0.290 OA
BRANCH  33  34
HETATM   34  C   UNL     1      43.838 -21.369   2.094  1.00  0.00     0.505 C 
HETATM   35  F   UNL     1      43.521 -20.181   1.524  1.00  0.00    -0.184 F 
HETATM   36  F   UNL     1      44.199 -22.201   1.083  1.00  0.00    -0.184 F 
ENDBRANCH  33  34
ENDBRANCH  31  33
ENDBRANCH  25  27
ENDBRANCH   1  25
TORSDOF 6
ENDMDL
MODEL 7
REMARK VINA RESULT:      -9.0      6.003      8.263
REMARK  6 active torsions:
REMARK  status: ('A' for Active; 'I' for Inactive)
REMARK    1  A    between atoms: C_2  and  O_4 
REMARK    2  A    between atoms: O_4  and  C_5 
REMARK    3  A    between atoms: C_9  and  N_10 
REMARK    4  A    between atoms: N_10  and  C_11 
REMARK    5  A    between atoms: N_14  and  C_17 
REMARK    6  A    between atoms: C_20  and  C_23 
ROOT
HETATM    1  C   UNL     1      39.498 -12.519   1.687  1.00  0.00     0.176 C 
HETATM    2  C   UNL     1      40.354 -11.817   2.731  1.00  0.00     0.055 C 
HETATM    3  C   UNL     1      41.545 -12.741   2.897  1.00  0.00     0.135 C 
HETATM    4  N   UNL     1      41.012 -14.066   2.688  1.00  0.00    -0.316 N 
HETATM    5  C   UNL     1      39.842 -13.998   1.913  1.00  0.00     0.247 C 
HETATM    6  O   UNL     1      39.185 -14.913   1.432  1.00  0.00    -0.271 OA
ENDROOT
BRANCH   4   7
HETATM    7  C   UNL     1      41.656 -15.248   3.150  1.00  0.00     0.037 A 
HETATM    8  C   UNL     1      42.953 -15.591   2.739  1.00  0.00     0.030 A 
HETATM    9  C   UNL     1      43.557 -16.789   3.144  1.00  0.00     0.016 A 
HETATM   10  C   UNL     1      42.857 -17.685   3.948  1.00  0.00    -0.005 A 
HETATM   11  C   UNL     1      41.588 -17.344   4.414  1.00  0.00     0.016 A 
HETATM   12  C   UNL     1      40.996 -16.136   4.018  1.00  0.00     0.030 A 
BRANCH  10  13
HETATM   13  C   UNL     1      43.461 -18.977   4.364  1.00  0.00     0.098 A 
HETATM   14  N   UNL     1      43.742 -19.109   5.627  1.00  0.00    -0.170 NA
HETATM   15  N   UNL     1      44.348 -20.252   6.043  1.00  0.00    -0.242 N 
HETATM   16  C   UNL     1      44.755 -21.289   5.241  1.00  0.00     0.272 A 
HETATM   17  H   UNL     1      44.584 -20.309   7.029  1.00  0.00     0.192 HD
HETATM   18  O   UNL     1      45.356 -22.262   5.681  1.00  0.00    -0.266 OA
HETATM   19  C   UNL     1      44.403 -21.184   3.818  1.00  0.00     0.046 A 
HETATM   20  C   UNL     1      44.713 -22.229   2.937  1.00  0.00     0.018 A 
HETATM   21  C   UNL     1      43.725 -20.052   3.368  1.00  0.00     0.011 A 
HETATM   22  C   UNL     1      44.324 -22.150   1.601  1.00  0.00     0.001 A 
HETATM   23  C   UNL     1      43.611 -21.040   1.152  1.00  0.00     0.001 A 
HETATM   24  C   UNL     1      43.302 -19.998   2.033  1.00  0.00     0.015 A 
ENDBRANCH  10  13
ENDBRANCH   4   7
BRANCH   1  25
HETATM   25  N   UNL     1      39.888 -12.081   0.345  1.00  0.00    -0.377 N 
HETATM   26  H   UNL     1      40.898 -12.079   0.192  1.00  0.00     0.160 HD
BRANCH  25  27
HETATM   27  C   UNL     1      39.173 -12.442  -0.796  1.00  0.00     0.031 A 
HETATM   28  C   UNL     1      37.947 -11.883  -1.174  1.00  0.00     0.029 A 
HETATM   29  C   UNL     1      37.316 -12.255  -2.366  1.00  0.00     0.005 A 
HETATM   30  C   UNL     1      37.931 -13.155  -3.230  1.00  0.00     0.037 A 
HETATM   31  C   UNL     1      39.183 -13.674  -2.910  1.00  0.00     0.077 A 
HETATM   32  C   UNL     1      39.781 -13.337  -1.691  1.00  0.00     0.066 A 
BRANCH  31  33
HETATM   33  O   UNL     1      39.725 -14.519  -3.838  1.00  0.00    -0.290 OA
BRANCH  33  34
HETATM   34  C   UNL     1      39.288 -15.865  -3.729  1.00  0.00     0.505 C 
HETATM   35  F   UNL     1      38.916 -16.309  -4.955  1.00  0.00    -0.184 F 
HETATM   36  F   UNL     1      40.360 -16.610  -3.356  1.00  0.00    -0.184 F 
ENDBRANCH  33  34
ENDBRANCH  31  33
ENDBRANCH  25  27
ENDBRANCH   1  25
TORSDOF 6
ENDMDL
MODEL 8
REMARK VINA RESULT:      -9.0      6.047      8.152
REMARK  6 active torsions:
REMARK  status: ('A' for Active; 'I' for Inactive)
REMARK    1  A    between atoms: C_2  and  O_4 
REMARK    2  A    between atoms: O_4  and  C_5 
REMARK    3  A    between atoms: C_9  and  N_10 
REMARK    4  A    between atoms: N_10  and  C_11 
REMARK    5  A    between atoms: N_14  and  C_17 
REMARK    6  A    between atoms: C_20  and  C_23 
ROOT
HETATM    1  C   UNL     1      39.154 -13.437  -2.381  1.00  0.00     0.176 C 
HETATM    2  C   UNL     1      37.937 -13.814  -1.550  1.00  0.00     0.055 C 
HETATM    3  C   UNL     1      38.481 -13.901  -0.137  1.00  0.00     0.135 C 
HETATM    4  N   UNL     1      39.836 -14.371  -0.295  1.00  0.00    -0.316 N 
HETATM    5  C   UNL     1      40.309 -14.054  -1.580  1.00  0.00     0.247 C 
HETATM    6  O   UNL     1      41.440 -14.180  -2.035  1.00  0.00    -0.271 OA
ENDROOT
BRANCH   4   7
HETATM    7  C   UNL     1      40.575 -14.989   0.753  1.00  0.00     0.037 A 
HETATM    8  C   UNL     1      41.973 -14.898   0.824  1.00  0.00     0.030 A 
HETATM    9  C   UNL     1      42.701 -15.563   1.820  1.00  0.00     0.016 A 
HETATM   10  C   UNL     1      42.040 -16.362   2.750  1.00  0.00    -0.005 A 
HETATM   11  C   UNL     1      40.647 -16.426   2.733  1.00  0.00     0.016 A 
HETATM   12  C   UNL     1      39.925 -15.745   1.744  1.00  0.00     0.030 A 
BRANCH  10  13
HETATM   13  C   UNL     1      42.790 -17.104   3.795  1.00  0.00     0.098 A 
HETATM   14  N   UNL     1      42.898 -16.527   4.955  1.00  0.00    -0.170 NA
HETATM   15  N   UNL     1      43.624 -17.144   5.924  1.00  0.00    -0.242 N 
HETATM   16  C   UNL     1      44.320 -18.320   5.788  1.00  0.00     0.272 A 
HETATM   17  H   UNL     1      43.717 -16.651   6.807  1.00  0.00     0.192 HD
HETATM   18  O   UNL     1      45.008 -18.784   6.689  1.00  0.00    -0.266 OA
HETATM   19  C   UNL     1      44.170 -19.015   4.501  1.00  0.00     0.046 A 
HETATM   20  C   UNL     1      44.785 -20.258   4.297  1.00  0.00     0.018 A 
HETATM   21  C   UNL     1      43.381 -18.440   3.507  1.00  0.00     0.011 A 
HETATM   22  C   UNL     1      44.592 -20.941   3.097  1.00  0.00     0.001 A 
HETATM   23  C   UNL     1      43.771 -20.391   2.113  1.00  0.00     0.001 A 
HETATM   24  C   UNL     1      43.159 -19.151   2.319  1.00  0.00     0.015 A 
ENDBRANCH  10  13
ENDBRANCH   4   7
BRANCH   1  25
HETATM   25  N   UNL     1      39.277 -11.979  -2.454  1.00  0.00    -0.377 N 
HETATM   26  H   UNL     1      38.906 -11.495  -1.635  1.00  0.00     0.160 HD
BRANCH  25  27
HETATM   27  C   UNL     1      40.402 -11.350  -2.986  1.00  0.00     0.031 A 
HETATM   28  C   UNL     1      40.826 -11.473  -4.314  1.00  0.00     0.029 A 
HETATM   29  C   UNL     1      41.933 -10.764  -4.792  1.00  0.00     0.005 A 
HETATM   30  C   UNL     1      42.602  -9.872  -3.960  1.00  0.00     0.037 A 
HETATM   31  C   UNL     1      42.159  -9.680  -2.654  1.00  0.00     0.077 A 
HETATM   32  C   UNL     1      41.084 -10.434  -2.169  1.00  0.00     0.066 A 
BRANCH  31  33
HETATM   33  O   UNL     1      42.855  -8.756  -1.925  1.00  0.00    -0.290 OA
BRANCH  33  34
HETATM   34  C   UNL     1      43.648  -9.309  -0.885  1.00  0.00     0.505 C 
HETATM   35  F   UNL     1      44.918  -9.464  -1.333  1.00  0.00    -0.184 F 
HETATM   36  F   UNL     1      43.699  -8.392   0.115  1.00  0.00    -0.184 F 
ENDBRANCH  33  34
ENDBRANCH  31  33
ENDBRANCH  25  27
ENDBRANCH   1  25
TORSDOF 6
ENDMDL
MODEL 9
REMARK VINA RESULT:      -8.9      6.363     10.421
REMARK  6 active torsions:
REMARK  status: ('A' for Active; 'I' for Inactive)
REMARK    1  A    between atoms: C_2  and  O_4 
REMARK    2  A    between atoms: O_4  and  C_5 
REMARK    3  A    between atoms: C_9  and  N_10 
REMARK    4  A    between atoms: N_10  and  C_11 
REMARK    5  A    between atoms: N_14  and  C_17 
REMARK    6  A    between atoms: C_20  and  C_23 
ROOT
HETATM    1  C   UNL     1      42.116 -16.300   4.868  1.00  0.00     0.176 C 
HETATM    2  C   UNL     1      41.180 -17.421   4.442  1.00  0.00     0.055 C 
HETATM    3  C   UNL     1      40.901 -17.120   2.983  1.00  0.00     0.135 C 
HETATM    4  N   UNL     1      40.930 -15.679   2.894  1.00  0.00    -0.316 N 
HETATM    5  C   UNL     1      41.700 -15.147   3.943  1.00  0.00     0.247 C 
HETATM    6  O   UNL     1      42.051 -13.989   4.126  1.00  0.00    -0.271 OA
ENDROOT
BRANCH   4   7
HETATM    7  C   UNL     1      40.321 -14.951   1.834  1.00  0.00     0.037 A 
HETATM    8  C   UNL     1      41.077 -14.380   0.800  1.00  0.00     0.030 A 
HETATM    9  C   UNL     1      40.480 -13.608  -0.205  1.00  0.00     0.016 A 
HETATM   10  C   UNL     1      39.108 -13.365  -0.174  1.00  0.00    -0.005 A 
HETATM   11  C   UNL     1      38.327 -13.964   0.813  1.00  0.00     0.016 A 
HETATM   12  C   UNL     1      38.929 -14.749   1.805  1.00  0.00     0.030 A 
BRANCH  10  13
HETATM   13  C   UNL     1      38.455 -12.521  -1.208  1.00  0.00     0.098 A 
HETATM   14  N   UNL     1      38.511 -11.234  -1.031  1.00  0.00    -0.170 NA
HETATM   15  N   UNL     1      37.879 -10.427  -1.922  1.00  0.00    -0.242 N 
HETATM   16  C   UNL     1      37.120 -10.839  -2.990  1.00  0.00     0.272 A 
HETATM   17  H   UNL     1      37.914  -9.429  -1.737  1.00  0.00     0.192 HD
HETATM   18  O   UNL     1      36.523 -10.051  -3.714  1.00  0.00    -0.266 OA
HETATM   19  C   UNL     1      37.083 -12.288  -3.237  1.00  0.00     0.046 A 
HETATM   20  C   UNL     1      36.393 -12.795  -4.347  1.00  0.00     0.018 A 
HETATM   21  C   UNL     1      37.773 -13.141  -2.378  1.00  0.00     0.011 A 
HETATM   22  C   UNL     1      36.411 -14.163  -4.611  1.00  0.00     0.001 A 
HETATM   23  C   UNL     1      37.132 -15.019  -3.779  1.00  0.00     0.001 A 
HETATM   24  C   UNL     1      37.820 -14.511  -2.673  1.00  0.00     0.015 A 
ENDBRANCH  10  13
ENDBRANCH   4   7
BRANCH   1  25
HETATM   25  N   UNL     1      43.507 -16.695   4.633  1.00  0.00    -0.377 N 
HETATM   26  H   UNL     1      44.188 -16.003   4.949  1.00  0.00     0.160 HD
BRANCH  25  27
HETATM   27  C   UNL     1      43.951 -18.005   4.809  1.00  0.00     0.031 A 
HETATM   28  C   UNL     1      43.935 -18.691   6.029  1.00  0.00     0.029 A 
HETATM   29  C   UNL     1      44.342 -20.027   6.115  1.00  0.00     0.005 A 
HETATM   30  C   UNL     1      44.720 -20.717   4.968  1.00  0.00     0.037 A 
HETATM   31  C   UNL     1      44.681 -20.078   3.733  1.00  0.00     0.077 A 
HETATM   32  C   UNL     1      44.323 -18.727   3.663  1.00  0.00     0.066 A 
BRANCH  31  33
HETATM   33  O   UNL     1      45.032 -20.848   2.659  1.00  0.00    -0.290 OA
BRANCH  33  34
HETATM   34  C   UNL     1      44.179 -21.960   2.432  1.00  0.00     0.505 C 
HETATM   35  F   UNL     1      44.075 -22.170   1.097  1.00  0.00    -0.184 F 
HETATM   36  F   UNL     1      44.794 -23.053   2.950  1.00  0.00    -0.184 F 
ENDBRANCH  33  34
ENDBRANCH  31  33
ENDBRANCH  25  27
ENDBRANCH   1  25
TORSDOF 6
ENDMDL
MODEL 10
REMARK VINA RESULT:      -8.9      1.834      2.616
REMARK  6 active torsions:
REMARK  status: ('A' for Active; 'I' for Inactive)
REMARK    1  A    between atoms: C_2  and  O_4 
REMARK    2  A    between atoms: O_4  and  C_5 
REMARK    3  A    between atoms: C_9  and  N_10 
REMARK    4  A    between atoms: N_10  and  C_11 
REMARK    5  A    between atoms: N_14  and  C_17 
REMARK    6  A    between atoms: C_20  and  C_23 
ROOT
HETATM    1  C   UNL     1      40.622  -9.859   7.344  1.00  0.00     0.176 C 
HETATM    2  C   UNL     1      39.625  -9.726   6.203  1.00  0.00     0.055 C 
HETATM    3  C   UNL     1      39.408 -11.156   5.749  1.00  0.00     0.135 C 
HETATM    4  N   UNL     1      40.678 -11.806   5.969  1.00  0.00    -0.316 N 
HETATM    5  C   UNL     1      41.404 -11.122   6.960  1.00  0.00     0.247 C 
HETATM    6  O   UNL     1      42.457 -11.441   7.498  1.00  0.00    -0.271 OA
ENDROOT
BRANCH   4   7
HETATM    7  C   UNL     1      41.062 -13.010   5.314  1.00  0.00     0.037 A 
HETATM    8  C   UNL     1      40.378 -14.217   5.526  1.00  0.00     0.030 A 
HETATM    9  C   UNL     1      40.801 -15.413   4.930  1.00  0.00     0.016 A 
HETATM   10  C   UNL     1      41.943 -15.427   4.132  1.00  0.00    -0.005 A 
HETATM   11  C   UNL     1      42.608 -14.233   3.863  1.00  0.00     0.016 A 
HETATM   12  C   UNL     1      42.170 -13.037   4.449  1.00  0.00     0.030 A 
BRANCH  10  13
HETATM   13  C   UNL     1      42.432 -16.688   3.516  1.00  0.00     0.098 A 
HETATM   14  N   UNL     1      42.042 -16.931   2.299  1.00  0.00    -0.170 NA
HETATM   15  N   UNL     1      42.419 -18.099   1.717  1.00  0.00    -0.242 N 
HETATM   16  C   UNL     1      43.144 -19.102   2.311  1.00  0.00     0.272 A 
HETATM   17  H   UNL     1      42.071 -18.273   0.779  1.00  0.00     0.192 HD
HETATM   18  O   UNL     1      43.391 -20.159   1.743  1.00  0.00    -0.266 OA
HETATM   19  C   UNL     1      43.637 -18.827   3.669  1.00  0.00     0.046 A 
HETATM   20  C   UNL     1      44.447 -19.764   4.326  1.00  0.00     0.018 A 
HETATM   21  C   UNL     1      43.321 -17.612   4.272  1.00  0.00     0.011 A 
HETATM   22  C   UNL     1      44.961 -19.473   5.589  1.00  0.00     0.001 A 
HETATM   23  C   UNL     1      44.682 -18.243   6.183  1.00  0.00     0.001 A 
HETATM   24  C   UNL     1      43.875 -17.310   5.525  1.00  0.00     0.015 A 
ENDBRANCH  10  13
ENDBRANCH   4   7
BRANCH   1  25
HETATM   25  N   UNL     1      39.909 -10.039   8.612  1.00  0.00    -0.377 N 
HETATM   26  H   UNL     1      39.565 -10.989   8.757  1.00  0.00     0.160 HD
BRANCH  25  27
HETATM   27  C   UNL     1      40.326  -9.433   9.796  1.00  0.00     0.031 A 
HETATM   28  C   UNL     1      39.802  -8.238  10.303  1.00  0.00     0.029 A 
HETATM   29  C   UNL     1      40.231  -7.721  11.530  1.00  0.00     0.005 A 
HETATM   30  C   UNL     1      41.154  -8.422  12.299  1.00  0.00     0.037 A 
HETATM   31  C   UNL     1      41.640  -9.646  11.850  1.00  0.00     0.077 A 
HETATM   32  C   UNL     1      41.246 -10.130  10.597  1.00  0.00     0.066 A 
BRANCH  31  33
HETATM   33  O   UNL     1      42.512 -10.280  12.691  1.00  0.00    -0.290 OA
BRANCH  33  34
HETATM   34  C   UNL     1      42.740  -9.600  13.916  1.00  0.00     0.505 C 
HETATM   35  F   UNL     1      42.506 -10.453  14.944  1.00  0.00    -0.184 F 
HETATM   36  F   UNL     1      44.060  -9.288  13.965  1.00  0.00    -0.184 F 
ENDBRANCH  33  34
ENDBRANCH  31  33
ENDBRANCH  25  27
ENDBRANCH   1  25
TORSDOF 6
ENDMDL
