MODEL 1
REMARK VINA RESULT:      -8.2      0.000      0.000
REMARK  8 active torsions:
REMARK  status: ('A' for Active; 'I' for Inactive)
REMARK    1  A    between atoms: C_2  and  O_3 
REMARK    2  A    between atoms: O_3  and  C_4 
REMARK    3  A    between atoms: C_5  and  N_6 
REMARK       I    between atoms: N_6  and  C_7 
REMARK    4  A    between atoms: C_7  and  C_8 
REMARK    5  A    between atoms: C_8  and  C_9 
REMARK    6  A    between atoms: C_9  and  S_10 
REMARK    7  A    between atoms: S_10  and  C_11 
REMARK    8  A    between atoms: N_12  and  C_13 
ROOT
HETATM    1  C   UNL     1      43.175 -16.749   3.690  1.00  0.00     0.177 A 
HETATM    2  N   UNL     1      42.715 -16.467   4.997  1.00  0.00    -0.274 N 
HETATM    3  C   UNL     1      42.920 -17.472   6.014  1.00  0.00     0.124 A 
HETATM    4  N   UNL     1      42.571 -17.310   7.276  1.00  0.00    -0.384 N 
HETATM    5  H   UNL     1      42.738 -18.036   7.957  1.00  0.00     0.157 HD
HETATM    6  H   UNL     1      42.129 -16.454   7.583  1.00  0.00     0.157 HD
HETATM    7  C   UNL     1      43.558 -18.679   5.593  1.00  0.00     0.081 A 
HETATM    8  C   UNL     1      43.963 -18.789   4.268  1.00  0.00     0.187 A 
HETATM    9  N   UNL     1      44.536 -19.954   4.004  1.00  0.00    -0.153 NA
HETATM   10  N   UNL     1      44.492 -20.597   5.186  1.00  0.00    -0.280 N 
HETATM   11  H   UNL     1      44.880 -21.535   5.229  1.00  0.00     0.189 HD
HETATM   12  C   UNL     1      43.897 -19.868   6.196  1.00  0.00     0.042 A 
HETATM   13  C   UNL     1      43.738 -20.421   7.557  1.00  0.00     0.071 C 
HETATM   14  N   UNL     1      43.786 -17.824   3.289  1.00  0.00    -0.202 NA
ENDROOT
BRANCH   1  15
HETATM   15  S   UNL     1      42.927 -15.527   2.403  1.00  0.00    -0.091 SA
BRANCH  15  16
HETATM   16  C   UNL     1      41.349 -16.102   1.677  1.00  0.00     0.091 C 
BRANCH  16  17
HETATM   17  C   UNL     1      41.429 -16.193   0.159  1.00  0.00     0.113 C 
BRANCH  17  18
HETATM   18  C   UNL     1      41.113 -14.867  -0.509  1.00  0.00     0.223 C 
HETATM   19  N   UNL     1      42.219 -14.265  -1.066  1.00  0.00    -0.325 N 
HETATM   20  H   UNL     1      43.106 -14.755  -0.992  1.00  0.00     0.169 HD
HETATM   21  O   UNL     1      39.968 -14.423  -0.499  1.00  0.00    -0.273 OA
BRANCH  19  22
HETATM   22  C   UNL     1      42.283 -13.048  -1.777  1.00  0.00     0.068 A 
HETATM   23  C   UNL     1      42.537 -11.878  -1.039  1.00  0.00     0.095 A 
HETATM   24  C   UNL     1      42.679 -10.640  -1.667  1.00  0.00     0.039 A 
HETATM   25  C   UNL     1      42.524 -10.549  -3.047  1.00  0.00     0.003 A 
HETATM   26  C   UNL     1      42.240 -11.696  -3.789  1.00  0.00     0.002 A 
HETATM   27  C   UNL     1      42.122 -12.940  -3.158  1.00  0.00     0.032 A 
BRANCH  23  28
HETATM   28  O   UNL     1      42.679 -11.930   0.328  1.00  0.00    -0.349 OA
BRANCH  28  29
HETATM   29  C   UNL     1      41.544 -11.328   0.970  1.00  0.00     0.171 C 
HETATM   30  C   UNL     1      41.135 -12.199   2.143  1.00  0.00     0.034 C 
ENDBRANCH  28  29
ENDBRANCH  23  28
ENDBRANCH  19  22
ENDBRANCH  17  18
ENDBRANCH  16  17
ENDBRANCH  15  16
ENDBRANCH   1  15
BRANCH   2  31
HETATM   31  C   UNL     1      41.966 -15.284   5.289  1.00  0.00     0.065 A 
HETATM   32  C   UNL     1      42.603 -14.080   5.653  1.00  0.00     0.061 A 
HETATM   33 CL   UNL     1      44.319 -13.989   5.828  1.00  0.00    -0.082 Cl
HETATM   34  C   UNL     1      41.858 -12.919   5.871  1.00  0.00     0.026 A 
HETATM   35  C   UNL     1      40.471 -12.944   5.731  1.00  0.00     0.002 A 
HETATM   36  C   UNL     1      39.827 -14.128   5.372  1.00  0.00     0.002 A 
HETATM   37  C   UNL     1      40.569 -15.291   5.147  1.00  0.00     0.032 A 
ENDBRANCH   2  31
TORSDOF 8
ENDMDL
MODEL 2
REMARK VINA RESULT:      -8.2      1.126      2.073
REMARK  8 active torsions:
REMARK  status: ('A' for Active; 'I' for Inactive)
REMARK    1  A    between atoms: C_2  and  O_3 
REMARK    2  A    between atoms: O_3  and  C_4 
REMARK    3  A    between atoms: C_5  and  N_6 
REMARK       I    between atoms: N_6  and  C_7 
REMARK    4  A    between atoms: C_7  and  C_8 
REMARK    5  A    between atoms: C_8  and  C_9 
REMARK    6  A    between atoms: C_9  and  S_10 
REMARK    7  A    between atoms: S_10  and  C_11 
REMARK    8  A    between atoms: N_12  and  C_13 
ROOT
HETATM    1  C   UNL     1      43.196 -16.861   3.820  1.00  0.00     0.177 A 
HETATM    2  N   UNL     1      42.738 -16.559   5.123  1.00  0.00    -0.274 N 
HETATM    3  C   UNL     1      42.937 -17.552   6.153  1.00  0.00     0.124 A 
HETATM    4  N   UNL     1      42.589 -17.372   7.413  1.00  0.00    -0.384 N 
HETATM    5  H   UNL     1      42.752 -18.090   8.103  1.00  0.00     0.157 HD
HETATM    6  H   UNL     1      42.152 -16.509   7.708  1.00  0.00     0.157 HD
HETATM    7  C   UNL     1      43.567 -18.768   5.748  1.00  0.00     0.081 A 
HETATM    8  C   UNL     1      43.971 -18.898   4.424  1.00  0.00     0.187 A 
HETATM    9  N   UNL     1      44.537 -20.070   4.176  1.00  0.00    -0.153 NA
HETATM   10  N   UNL     1      44.488 -20.698   5.365  1.00  0.00    -0.280 N 
HETATM   11  H   UNL     1      44.870 -21.638   5.420  1.00  0.00     0.189 HD
HETATM   12  C   UNL     1      43.898 -19.952   6.366  1.00  0.00     0.042 A 
HETATM   13  C   UNL     1      43.735 -20.486   7.734  1.00  0.00     0.071 C 
HETATM   14  N   UNL     1      43.801 -17.945   3.433  1.00  0.00    -0.202 NA
ENDROOT
BRANCH   1  15
HETATM   15  S   UNL     1      42.957 -15.654   2.518  1.00  0.00    -0.091 SA
BRANCH  15  16
HETATM   16  C   UNL     1      41.387 -16.241   1.784  1.00  0.00     0.091 C 
BRANCH  16  17
HETATM   17  C   UNL     1      41.435 -16.219   0.261  1.00  0.00     0.113 C 
BRANCH  17  18
HETATM   18  C   UNL     1      41.192 -14.829  -0.297  1.00  0.00     0.223 C 
HETATM   19  N   UNL     1      42.104 -14.469  -1.264  1.00  0.00    -0.325 N 
HETATM   20  H   UNL     1      42.818 -15.148  -1.513  1.00  0.00     0.169 HD
HETATM   21  O   UNL     1      40.270 -14.141   0.130  1.00  0.00    -0.273 OA
BRANCH  19  22
HETATM   22  C   UNL     1      42.161 -13.267  -2.003  1.00  0.00     0.068 A 
HETATM   23  C   UNL     1      41.624 -13.279  -3.302  1.00  0.00     0.095 A 
HETATM   24  C   UNL     1      41.581 -12.121  -4.081  1.00  0.00     0.039 A 
HETATM   25  C   UNL     1      42.117 -10.938  -3.580  1.00  0.00     0.003 A 
HETATM   26  C   UNL     1      42.682 -10.919  -2.305  1.00  0.00     0.002 A 
HETATM   27  C   UNL     1      42.702 -12.077  -1.518  1.00  0.00     0.032 A 
BRANCH  23  28
HETATM   28  O   UNL     1      41.101 -14.435  -3.833  1.00  0.00    -0.349 OA
BRANCH  28  29
HETATM   29  C   UNL     1      39.679 -14.473  -3.641  1.00  0.00     0.171 C 
HETATM   30  C   UNL     1      39.178 -15.855  -4.017  1.00  0.00     0.034 C 
ENDBRANCH  28  29
ENDBRANCH  23  28
ENDBRANCH  19  22
ENDBRANCH  17  18
ENDBRANCH  16  17
ENDBRANCH  15  16
ENDBRANCH   1  15
BRANCH   2  31
HETATM   31  C   UNL     1      41.998 -15.368   5.400  1.00  0.00     0.065 A 
HETATM   32  C   UNL     1      42.642 -14.162   5.744  1.00  0.00     0.061 A 
HETATM   33 CL   UNL     1      44.360 -14.078   5.911  1.00  0.00    -0.082 Cl
HETATM   34  C   UNL     1      41.905 -12.993   5.947  1.00  0.00     0.026 A 
HETATM   35  C   UNL     1      40.517 -13.013   5.812  1.00  0.00     0.002 A 
HETATM   36  C   UNL     1      39.866 -14.198   5.472  1.00  0.00     0.002 A 
HETATM   37  C   UNL     1      40.600 -15.368   5.263  1.00  0.00     0.032 A 
ENDBRANCH   2  31
TORSDOF 8
ENDMDL
MODEL 3
REMARK VINA RESULT:      -8.2      4.215      8.501
REMARK  8 active torsions:
REMARK  status: ('A' for Active; 'I' for Inactive)
REMARK    1  A    between atoms: C_2  and  O_3 
REMARK    2  A    between atoms: O_3  and  C_4 
REMARK    3  A    between atoms: C_5  and  N_6 
REMARK       I    between atoms: N_6  and  C_7 
REMARK    4  A    between atoms: C_7  and  C_8 
REMARK    5  A    between atoms: C_8  and  C_9 
REMARK    6  A    between atoms: C_9  and  S_10 
REMARK    7  A    between atoms: S_10  and  C_11 
REMARK    8  A    between atoms: N_12  and  C_13 
ROOT
HETATM    1  C   UNL     1      42.413 -14.104   3.174  1.00  0.00     0.177 A 
HETATM    2  N   UNL     1      41.931 -15.274   2.544  1.00  0.00    -0.274 N 
HETATM    3  C   UNL     1      40.624 -15.220   1.933  1.00  0.00     0.124 A 
HETATM    4  N   UNL     1      40.083 -16.233   1.283  1.00  0.00    -0.384 N 
HETATM    5  H   UNL     1      39.168 -16.151   0.865  1.00  0.00     0.157 HD
HETATM    6  H   UNL     1      40.577 -17.111   1.194  1.00  0.00     0.157 HD
HETATM    7  C   UNL     1      39.924 -13.979   2.042  1.00  0.00     0.081 A 
HETATM    8  C   UNL     1      40.550 -12.918   2.684  1.00  0.00     0.187 A 
HETATM    9  N   UNL     1      39.798 -11.828   2.722  1.00  0.00    -0.153 NA
HETATM   10  N   UNL     1      38.670 -12.206   2.093  1.00  0.00    -0.280 N 
HETATM   11  H   UNL     1      37.925 -11.521   2.001  1.00  0.00     0.189 HD
HETATM   12  C   UNL     1      38.686 -13.518   1.660  1.00  0.00     0.042 A 
HETATM   13  C   UNL     1      37.525 -14.117   0.969  1.00  0.00     0.071 C 
HETATM   14  N   UNL     1      41.811 -12.955   3.258  1.00  0.00    -0.202 NA
ENDROOT
BRANCH   1  15
HETATM   15  S   UNL     1      44.028 -14.141   3.949  1.00  0.00    -0.091 SA
BRANCH  15  16
HETATM   16  C   UNL     1      43.566 -14.044   5.717  1.00  0.00     0.091 C 
BRANCH  16  17
HETATM   17  C   UNL     1      44.728 -14.430   6.624  1.00  0.00     0.113 C 
BRANCH  17  18
HETATM   18  C   UNL     1      45.065 -13.332   7.617  1.00  0.00     0.223 C 
HETATM   19  N   UNL     1      43.998 -12.976   8.410  1.00  0.00    -0.325 N 
HETATM   20  H   UNL     1      43.123 -13.473   8.271  1.00  0.00     0.169 HD
HETATM   21  O   UNL     1      46.190 -12.842   7.642  1.00  0.00    -0.273 OA
BRANCH  19  22
HETATM   22  C   UNL     1      43.964 -12.015   9.444  1.00  0.00     0.068 A 
HETATM   23  C   UNL     1      43.203 -10.854   9.226  1.00  0.00     0.095 A 
HETATM   24  C   UNL     1      43.063  -9.881  10.217  1.00  0.00     0.039 A 
HETATM   25  C   UNL     1      43.723 -10.039  11.432  1.00  0.00     0.003 A 
HETATM   26  C   UNL     1      44.508 -11.171  11.651  1.00  0.00     0.002 A 
HETATM   27  C   UNL     1      44.627 -12.156  10.663  1.00  0.00     0.032 A 
BRANCH  23  28
HETATM   28  O   UNL     1      42.551 -10.658   8.031  1.00  0.00    -0.349 OA
BRANCH  28  29
HETATM   29  C   UNL     1      41.147 -10.460   8.256  1.00  0.00     0.171 C 
HETATM   30  C   UNL     1      40.377 -11.195   7.175  1.00  0.00     0.034 C 
ENDBRANCH  28  29
ENDBRANCH  23  28
ENDBRANCH  19  22
ENDBRANCH  17  18
ENDBRANCH  16  17
ENDBRANCH  15  16
ENDBRANCH   1  15
BRANCH   2  31
HETATM   31  C   UNL     1      42.651 -16.508   2.606  1.00  0.00     0.065 A 
HETATM   32  C   UNL     1      42.451 -17.427   3.656  1.00  0.00     0.061 A 
HETATM   33 CL   UNL     1      41.371 -17.080   4.959  1.00  0.00    -0.082 Cl
HETATM   34  C   UNL     1      43.116 -18.656   3.664  1.00  0.00     0.026 A 
HETATM   35  C   UNL     1      43.989 -18.981   2.627  1.00  0.00     0.002 A 
HETATM   36  C   UNL     1      44.197 -18.083   1.581  1.00  0.00     0.002 A 
HETATM   37  C   UNL     1      43.530 -16.855   1.566  1.00  0.00     0.032 A 
ENDBRANCH   2  31
TORSDOF 8
ENDMDL
MODEL 4
REMARK VINA RESULT:      -8.2      2.780      7.926
REMARK  8 active torsions:
REMARK  status: ('A' for Active; 'I' for Inactive)
REMARK    1  A    between atoms: C_2  and  O_3 
REMARK    2  A    between atoms: O_3  and  C_4 
REMARK    3  A    between atoms: C_5  and  N_6 
REMARK       I    between atoms: N_6  and  C_7 
REMARK    4  A    between atoms: C_7  and  C_8 
REMARK    5  A    between atoms: C_8  and  C_9 
REMARK    6  A    between atoms: C_9  and  S_10 
REMARK    7  A    between atoms: S_10  and  C_11 
REMARK    8  A    between atoms: N_12  and  C_13 
ROOT
HETATM    1  C   UNL     1      40.708 -14.470   0.604  1.00  0.00     0.177 A 
HETATM    2  N   UNL     1      41.455 -13.376   1.100  1.00  0.00    -0.274 N 
HETATM    3  C   UNL     1      41.876 -12.367   0.157  1.00  0.00     0.124 A 
HETATM    4  N   UNL     1      42.543 -11.283   0.503  1.00  0.00    -0.384 N 
HETATM    5  H   UNL     1      42.813 -10.598  -0.188  1.00  0.00     0.157 HD
HETATM    6  H   UNL     1      42.796 -11.119   1.468  1.00  0.00     0.157 HD
HETATM    7  C   UNL     1      41.510 -12.582  -1.207  1.00  0.00     0.081 A 
HETATM    8  C   UNL     1      40.758 -13.707  -1.524  1.00  0.00     0.187 A 
HETATM    9  N   UNL     1      40.489 -13.793  -2.819  1.00  0.00    -0.153 NA
HETATM   10  N   UNL     1      41.084 -12.701  -3.334  1.00  0.00    -0.280 N 
HETATM   11  H   UNL     1      41.014 -12.553  -4.337  1.00  0.00     0.189 HD
HETATM   12  C   UNL     1      41.732 -11.924  -2.395  1.00  0.00     0.042 A 
HETATM   13  C   UNL     1      42.463 -10.698  -2.779  1.00  0.00     0.071 C 
HETATM   14  N   UNL     1      40.335 -14.672  -0.625  1.00  0.00    -0.202 NA
ENDROOT
BRANCH   1  15
HETATM   15  S   UNL     1      40.178 -15.744   1.747  1.00  0.00    -0.091 SA
BRANCH  15  16
HETATM   16  C   UNL     1      41.044 -17.205   1.064  1.00  0.00     0.091 C 
BRANCH  16  17
HETATM   17  C   UNL     1      42.463 -16.865   0.628  1.00  0.00     0.113 C 
BRANCH  17  18
HETATM   18  C   UNL     1      43.494 -17.749   1.304  1.00  0.00     0.223 C 
HETATM   19  N   UNL     1      42.948 -18.880   1.870  1.00  0.00    -0.325 N 
HETATM   20  H   UNL     1      41.947 -19.017   1.772  1.00  0.00     0.169 HD
HETATM   21  O   UNL     1      44.677 -17.420   1.325  1.00  0.00    -0.273 OA
BRANCH  19  22
HETATM   22  C   UNL     1      43.615 -19.921   2.551  1.00  0.00     0.068 A 
HETATM   23  C   UNL     1      44.039 -19.667   3.867  1.00  0.00     0.095 A 
HETATM   24  C   UNL     1      44.650 -20.658   4.637  1.00  0.00     0.039 A 
HETATM   25  C   UNL     1      44.884 -21.913   4.080  1.00  0.00     0.003 A 
HETATM   26  C   UNL     1      44.497 -22.169   2.765  1.00  0.00     0.002 A 
HETATM   27  C   UNL     1      43.863 -21.180   2.004  1.00  0.00     0.032 A 
BRANCH  23  28
HETATM   28  O   UNL     1      43.839 -18.434   4.442  1.00  0.00    -0.349 OA
BRANCH  28  29
HETATM   29  C   UNL     1      42.804 -18.509   5.434  1.00  0.00     0.171 C 
HETATM   30  C   UNL     1      41.608 -17.715   4.946  1.00  0.00     0.034 C 
ENDBRANCH  28  29
ENDBRANCH  23  28
ENDBRANCH  19  22
ENDBRANCH  17  18
ENDBRANCH  16  17
ENDBRANCH  15  16
ENDBRANCH   1  15
BRANCH   2  31
HETATM   31  C   UNL     1      41.887 -13.320   2.462  1.00  0.00     0.065 A 
HETATM   32  C   UNL     1      41.089 -12.734   3.465  1.00  0.00     0.061 A 
HETATM   33 CL   UNL     1      39.572 -11.996   3.089  1.00  0.00    -0.082 Cl
HETATM   34  C   UNL     1      41.500 -12.746   4.800  1.00  0.00     0.026 A 
HETATM   35  C   UNL     1      42.711 -13.341   5.150  1.00  0.00     0.002 A 
HETATM   36  C   UNL     1      43.511 -13.924   4.169  1.00  0.00     0.002 A 
HETATM   37  C   UNL     1      43.102 -13.919   2.833  1.00  0.00     0.032 A 
ENDBRANCH   2  31
TORSDOF 8
ENDMDL
MODEL 5
REMARK VINA RESULT:      -8.1      3.719      7.468
REMARK  8 active torsions:
REMARK  status: ('A' for Active; 'I' for Inactive)
REMARK    1  A    between atoms: C_2  and  O_3 
REMARK    2  A    between atoms: O_3  and  C_4 
REMARK    3  A    between atoms: C_5  and  N_6 
REMARK       I    between atoms: N_6  and  C_7 
REMARK    4  A    between atoms: C_7  and  C_8 
REMARK    5  A    between atoms: C_8  and  C_9 
REMARK    6  A    between atoms: C_9  and  S_10 
REMARK    7  A    between atoms: S_10  and  C_11 
REMARK    8  A    between atoms: N_12  and  C_13 
ROOT
HETATM    1  C   UNL     1      41.295 -15.410   5.466  1.00  0.00     0.177 A 
HETATM    2  N   UNL     1      41.603 -15.945   4.195  1.00  0.00    -0.274 N 
HETATM    3  C   UNL     1      42.370 -17.168   4.148  1.00  0.00     0.124 A 
HETATM    4  N   UNL     1      42.686 -17.784   3.025  1.00  0.00    -0.384 N 
HETATM    5  H   UNL     1      43.220 -18.641   3.037  1.00  0.00     0.157 HD
HETATM    6  H   UNL     1      42.400 -17.407   2.131  1.00  0.00     0.157 HD
HETATM    7  C   UNL     1      42.767 -17.716   5.406  1.00  0.00     0.081 A 
HETATM    8  C   UNL     1      42.366 -17.069   6.568  1.00  0.00     0.187 A 
HETATM    9  N   UNL     1      42.801 -17.673   7.665  1.00  0.00    -0.153 NA
HETATM   10  N   UNL     1      43.493 -18.723   7.188  1.00  0.00    -0.280 N 
HETATM   11  H   UNL     1      43.933 -19.345   7.861  1.00  0.00     0.189 HD
HETATM   12  C   UNL     1      43.515 -18.798   5.809  1.00  0.00     0.042 A 
HETATM   13  C   UNL     1      44.246 -19.871   5.105  1.00  0.00     0.071 C 
HETATM   14  N   UNL     1      41.616 -15.906   6.625  1.00  0.00    -0.202 NA
ENDROOT
BRANCH   1  15
HETATM   15  S   UNL     1      40.352 -13.889   5.559  1.00  0.00    -0.091 SA
BRANCH  15  16
HETATM   16  C   UNL     1      41.678 -12.679   5.914  1.00  0.00     0.091 C 
BRANCH  16  17
HETATM   17  C   UNL     1      41.133 -11.260   6.016  1.00  0.00     0.113 C 
BRANCH  17  18
HETATM   18  C   UNL     1      41.712 -10.510   7.201  1.00  0.00     0.223 C 
HETATM   19  N   UNL     1      42.027 -11.332   8.259  1.00  0.00    -0.325 N 
HETATM   20  H   UNL     1      41.862 -12.328   8.145  1.00  0.00     0.169 HD
HETATM   21  O   UNL     1      41.840  -9.289   7.161  1.00  0.00    -0.273 OA
BRANCH  19  22
HETATM   22  C   UNL     1      42.600 -10.975   9.499  1.00  0.00     0.068 A 
HETATM   23  C   UNL     1      44.001 -11.026   9.604  1.00  0.00     0.095 A 
HETATM   24  C   UNL     1      44.656 -10.630  10.772  1.00  0.00     0.039 A 
HETATM   25  C   UNL     1      43.908 -10.218  11.871  1.00  0.00     0.003 A 
HETATM   26  C   UNL     1      42.516 -10.193  11.792  1.00  0.00     0.002 A 
HETATM   27  C   UNL     1      41.863 -10.568  10.611  1.00  0.00     0.032 A 
BRANCH  23  28
HETATM   28  O   UNL     1      44.768 -11.445   8.543  1.00  0.00    -0.349 OA
BRANCH  28  29
HETATM   29  C   UNL     1      45.243 -12.781   8.768  1.00  0.00     0.171 C 
HETATM   30  C   UNL     1      44.747 -13.665   7.639  1.00  0.00     0.034 C 
ENDBRANCH  28  29
ENDBRANCH  23  28
ENDBRANCH  19  22
ENDBRANCH  17  18
ENDBRANCH  16  17
ENDBRANCH  15  16
ENDBRANCH   1  15
BRANCH   2  31
HETATM   31  C   UNL     1      41.275 -15.249   2.989  1.00  0.00     0.065 A 
HETATM   32  C   UNL     1      42.158 -14.311   2.416  1.00  0.00     0.061 A 
HETATM   33 CL   UNL     1      43.657 -13.909   3.175  1.00  0.00    -0.082 Cl
HETATM   34  C   UNL     1      41.848 -13.690   1.204  1.00  0.00     0.026 A 
HETATM   35  C   UNL     1      40.654 -13.994   0.551  1.00  0.00     0.002 A 
HETATM   36  C   UNL     1      39.771 -14.918   1.106  1.00  0.00     0.002 A 
HETATM   37  C   UNL     1      40.079 -15.547   2.316  1.00  0.00     0.032 A 
ENDBRANCH   2  31
TORSDOF 8
ENDMDL
MODEL 6
REMARK VINA RESULT:      -8.0      3.285      9.267
REMARK  8 active torsions:
REMARK  status: ('A' for Active; 'I' for Inactive)
REMARK    1  A    between atoms: C_2  and  O_3 
REMARK    2  A    between atoms: O_3  and  C_4 
REMARK    3  A    between atoms: C_5  and  N_6 
REMARK       I    between atoms: N_6  and  C_7 
REMARK    4  A    between atoms: C_7  and  C_8 
REMARK    5  A    between atoms: C_8  and  C_9 
REMARK    6  A    between atoms: C_9  and  S_10 
REMARK    7  A    between atoms: S_10  and  C_11 
REMARK    8  A    between atoms: N_12  and  C_13 
ROOT
HETATM    1  C   UNL     1      41.587 -13.462  -1.013  1.00  0.00     0.177 A 
HETATM    2  N   UNL     1      40.941 -13.217  -2.246  1.00  0.00    -0.274 N 
HETATM    3  C   UNL     1      41.264 -11.995  -2.945  1.00  0.00     0.124 A 
HETATM    4  N   UNL     1      40.757 -11.674  -4.119  1.00  0.00    -0.384 N 
HETATM    5  H   UNL     1      41.015 -10.812  -4.577  1.00  0.00     0.157 HD
HETATM    6  H   UNL     1      40.100 -12.288  -4.582  1.00  0.00     0.157 HD
HETATM    7  C   UNL     1      42.203 -11.129  -2.305  1.00  0.00     0.081 A 
HETATM    8  C   UNL     1      42.758 -11.529  -1.095  1.00  0.00     0.187 A 
HETATM    9  N   UNL     1      43.609 -10.639  -0.605  1.00  0.00    -0.153 NA
HETATM   10  N   UNL     1      43.591  -9.653  -1.521  1.00  0.00    -0.280 N 
HETATM   11  H   UNL     1      44.178  -8.841  -1.355  1.00  0.00     0.189 HD
HETATM   12  C   UNL     1      42.742  -9.894  -2.583  1.00  0.00     0.042 A 
HETATM   13  C   UNL     1      42.573  -8.913  -3.675  1.00  0.00     0.071 C 
HETATM   14  N   UNL     1      42.468 -12.707  -0.426  1.00  0.00    -0.202 NA
ENDROOT
BRANCH   1  15
HETATM   15  S   UNL     1      41.201 -14.964  -0.116  1.00  0.00    -0.091 SA
BRANCH  15  16
HETATM   16  C   UNL     1      39.889 -14.369   1.012  1.00  0.00     0.091 C 
BRANCH  16  17
HETATM   17  C   UNL     1      39.519 -15.421   2.050  1.00  0.00     0.113 C 
BRANCH  17  18
HETATM   18  C   UNL     1      40.564 -15.532   3.145  1.00  0.00     0.223 C 
HETATM   19  N   UNL     1      40.596 -16.775   3.737  1.00  0.00    -0.325 N 
HETATM   20  H   UNL     1      39.952 -17.478   3.386  1.00  0.00     0.169 HD
HETATM   21  O   UNL     1      41.262 -14.565   3.439  1.00  0.00    -0.273 OA
BRANCH  19  22
HETATM   22  C   UNL     1      41.452 -17.229   4.763  1.00  0.00     0.068 A 
HETATM   23  C   UNL     1      42.505 -18.085   4.399  1.00  0.00     0.095 A 
HETATM   24  C   UNL     1      43.436 -18.532   5.338  1.00  0.00     0.039 A 
HETATM   25  C   UNL     1      43.297 -18.159   6.672  1.00  0.00     0.003 A 
HETATM   26  C   UNL     1      42.239 -17.335   7.054  1.00  0.00     0.002 A 
HETATM   27  C   UNL     1      41.321 -16.870   6.105  1.00  0.00     0.032 A 
BRANCH  23  28
HETATM   28  O   UNL     1      42.661 -18.487   3.093  1.00  0.00    -0.349 OA
BRANCH  28  29
HETATM   29  C   UNL     1      43.899 -17.990   2.563  1.00  0.00     0.171 C 
HETATM   30  C   UNL     1      43.708 -17.693   1.087  1.00  0.00     0.034 C 
ENDBRANCH  28  29
ENDBRANCH  23  28
ENDBRANCH  19  22
ENDBRANCH  17  18
ENDBRANCH  16  17
ENDBRANCH  15  16
ENDBRANCH   1  15
BRANCH   2  31
HETATM   31  C   UNL     1      39.914 -14.082  -2.738  1.00  0.00     0.065 A 
HETATM   32  C   UNL     1      38.550 -13.829  -2.482  1.00  0.00     0.061 A 
HETATM   33 CL   UNL     1      38.054 -12.492  -1.506  1.00  0.00    -0.082 Cl
HETATM   34  C   UNL     1      37.559 -14.649  -3.025  1.00  0.00     0.026 A 
HETATM   35  C   UNL     1      37.915 -15.733  -3.828  1.00  0.00     0.002 A 
HETATM   36  C   UNL     1      39.259 -15.996  -4.089  1.00  0.00     0.002 A 
HETATM   37  C   UNL     1      40.254 -15.175  -3.552  1.00  0.00     0.032 A 
ENDBRANCH   2  31
TORSDOF 8
ENDMDL
MODEL 7
REMARK VINA RESULT:      -7.9      3.372      9.310
REMARK  8 active torsions:
REMARK  status: ('A' for Active; 'I' for Inactive)
REMARK    1  A    between atoms: C_2  and  O_3 
REMARK    2  A    between atoms: O_3  and  C_4 
REMARK    3  A    between atoms: C_5  and  N_6 
REMARK       I    between atoms: N_6  and  C_7 
REMARK    4  A    between atoms: C_7  and  C_8 
REMARK    5  A    between atoms: C_8  and  C_9 
REMARK    6  A    between atoms: C_9  and  S_10 
REMARK    7  A    between atoms: S_10  and  C_11 
REMARK    8  A    between atoms: N_12  and  C_13 
ROOT
HETATM    1  C   UNL     1      41.590 -13.431  -0.989  1.00  0.00     0.177 A 
HETATM    2  N   UNL     1      40.952 -13.212  -2.231  1.00  0.00    -0.274 N 
HETATM    3  C   UNL     1      41.291 -12.011  -2.959  1.00  0.00     0.124 A 
HETATM    4  N   UNL     1      40.794 -11.716  -4.144  1.00  0.00    -0.384 N 
HETATM    5  H   UNL     1      41.062 -10.867  -4.622  1.00  0.00     0.157 HD
HETATM    6  H   UNL     1      40.133 -12.335  -4.595  1.00  0.00     0.157 HD
HETATM    7  C   UNL     1      42.234 -11.138  -2.335  1.00  0.00     0.081 A 
HETATM    8  C   UNL     1      42.778 -11.512  -1.113  1.00  0.00     0.187 A 
HETATM    9  N   UNL     1      43.634 -10.617  -0.640  1.00  0.00    -0.153 NA
HETATM   10  N   UNL     1      43.630  -9.654  -1.580  1.00  0.00    -0.280 N 
HETATM   11  H   UNL     1      44.223  -8.843  -1.431  1.00  0.00     0.189 HD
HETATM   12  C   UNL     1      42.785  -9.915  -2.641  1.00  0.00     0.042 A 
HETATM   13  C   UNL     1      42.631  -8.960  -3.758  1.00  0.00     0.071 C 
HETATM   14  N   UNL     1      42.474 -12.669  -0.416  1.00  0.00    -0.202 NA
ENDROOT
BRANCH   1  15
HETATM   15  S   UNL     1      41.185 -14.908  -0.057  1.00  0.00    -0.091 SA
BRANCH  15  16
HETATM   16  C   UNL     1      41.417 -14.311   1.657  1.00  0.00     0.091 C 
BRANCH  16  17
HETATM   17  C   UNL     1      41.246 -15.435   2.672  1.00  0.00     0.113 C 
BRANCH  17  18
HETATM   18  C   UNL     1      42.512 -16.258   2.829  1.00  0.00     0.223 C 
HETATM   19  N   UNL     1      42.267 -17.554   3.227  1.00  0.00    -0.325 N 
HETATM   20  H   UNL     1      41.298 -17.829   3.358  1.00  0.00     0.169 HD
HETATM   21  O   UNL     1      43.611 -15.752   2.626  1.00  0.00    -0.273 OA
BRANCH  19  22
HETATM   22  C   UNL     1      43.202 -18.588   3.446  1.00  0.00     0.068 A 
HETATM   23  C   UNL     1      43.623 -18.813   4.768  1.00  0.00     0.095 A 
HETATM   24  C   UNL     1      44.497 -19.854   5.085  1.00  0.00     0.039 A 
HETATM   25  C   UNL     1      44.997 -20.663   4.068  1.00  0.00     0.003 A 
HETATM   26  C   UNL     1      44.613 -20.432   2.747  1.00  0.00     0.002 A 
HETATM   27  C   UNL     1      43.718 -19.401   2.436  1.00  0.00     0.032 A 
BRANCH  23  28
HETATM   28  O   UNL     1      43.161 -18.022   5.794  1.00  0.00    -0.349 OA
BRANCH  28  29
HETATM   29  C   UNL     1      44.240 -17.269   6.367  1.00  0.00     0.171 C 
HETATM   30  C   UNL     1      43.855 -15.802   6.373  1.00  0.00     0.034 C 
ENDBRANCH  28  29
ENDBRANCH  23  28
ENDBRANCH  19  22
ENDBRANCH  17  18
ENDBRANCH  16  17
ENDBRANCH  15  16
ENDBRANCH   1  15
BRANCH   2  31
HETATM   31  C   UNL     1      39.921 -14.081  -2.708  1.00  0.00     0.065 A 
HETATM   32  C   UNL     1      38.559 -13.815  -2.457  1.00  0.00     0.061 A 
HETATM   33 CL   UNL     1      38.069 -12.457  -1.507  1.00  0.00    -0.082 Cl
HETATM   34  C   UNL     1      37.564 -14.640  -2.986  1.00  0.00     0.026 A 
HETATM   35  C   UNL     1      37.913 -15.740  -3.768  1.00  0.00     0.002 A 
HETATM   36  C   UNL     1      39.256 -16.016  -4.024  1.00  0.00     0.002 A 
HETATM   37  C   UNL     1      40.255 -15.191  -3.501  1.00  0.00     0.032 A 
ENDBRANCH   2  31
TORSDOF 8
ENDMDL
MODEL 8
REMARK VINA RESULT:      -7.8      3.511      8.756
REMARK  8 active torsions:
REMARK  status: ('A' for Active; 'I' for Inactive)
REMARK    1  A    between atoms: C_2  and  O_3 
REMARK    2  A    between atoms: O_3  and  C_4 
REMARK    3  A    between atoms: C_5  and  N_6 
REMARK       I    between atoms: N_6  and  C_7 
REMARK    4  A    between atoms: C_7  and  C_8 
REMARK    5  A    between atoms: C_8  and  C_9 
REMARK    6  A    between atoms: C_9  and  S_10 
REMARK    7  A    between atoms: S_10  and  C_11 
REMARK    8  A    between atoms: N_12  and  C_13 
ROOT
HETATM    1  C   UNL     1      40.702 -14.681  -0.975  1.00  0.00     0.177 A 
HETATM    2  N   UNL     1      39.617 -13.842  -0.630  1.00  0.00    -0.274 N 
HETATM    3  C   UNL     1      38.520 -13.743  -1.564  1.00  0.00     0.124 A 
HETATM    4  N   UNL     1      37.436 -13.025  -1.338  1.00  0.00    -0.384 N 
HETATM    5  H   UNL     1      36.689 -12.988  -2.016  1.00  0.00     0.157 HD
HETATM    6  H   UNL     1      37.336 -12.499  -0.481  1.00  0.00     0.157 HD
HETATM    7  C   UNL     1      38.646 -14.495  -2.772  1.00  0.00     0.081 A 
HETATM    8  C   UNL     1      39.776 -15.284  -2.949  1.00  0.00     0.187 A 
HETATM    9  N   UNL     1      39.775 -15.926  -4.108  1.00  0.00    -0.153 NA
HETATM   10  N   UNL     1      38.621 -15.534  -4.680  1.00  0.00    -0.280 N 
HETATM   11  H   UNL     1      38.399 -15.904  -5.600  1.00  0.00     0.189 HD
HETATM   12  C   UNL     1      37.890 -14.651  -3.911  1.00  0.00     0.042 A 
HETATM   13  C   UNL     1      36.606 -14.093  -4.386  1.00  0.00     0.071 C 
HETATM   14  N   UNL     1      40.825 -15.400  -2.052  1.00  0.00    -0.202 NA
ENDROOT
BRANCH   1  15
HETATM   15  S   UNL     1      42.083 -14.819   0.158  1.00  0.00    -0.091 SA
BRANCH  15  16
HETATM   16  C   UNL     1      42.105 -16.624   0.459  1.00  0.00     0.091 C 
BRANCH  16  17
HETATM   17  C   UNL     1      43.334 -17.046   1.254  1.00  0.00     0.113 C 
BRANCH  17  18
HETATM   18  C   UNL     1      43.129 -18.375   1.958  1.00  0.00     0.223 C 
HETATM   19  N   UNL     1      44.310 -18.970   2.344  1.00  0.00    -0.325 N 
HETATM   20  H   UNL     1      45.173 -18.474   2.142  1.00  0.00     0.169 HD
HETATM   21  O   UNL     1      41.999 -18.827   2.115  1.00  0.00    -0.273 OA
BRANCH  19  22
HETATM   22  C   UNL     1      44.486 -20.188   3.035  1.00  0.00     0.068 A 
HETATM   23  C   UNL     1      44.688 -20.122   4.424  1.00  0.00     0.095 A 
HETATM   24  C   UNL     1      44.809 -21.279   5.196  1.00  0.00     0.039 A 
HETATM   25  C   UNL     1      44.772 -22.524   4.576  1.00  0.00     0.003 A 
HETATM   26  C   UNL     1      44.605 -22.604   3.194  1.00  0.00     0.002 A 
HETATM   27  C   UNL     1      44.460 -21.442   2.426  1.00  0.00     0.032 A 
BRANCH  23  28
HETATM   28  O   UNL     1      44.746 -18.907   5.067  1.00  0.00    -0.349 OA
BRANCH  28  29
HETATM   29  C   UNL     1      43.745 -18.838   6.093  1.00  0.00     0.171 C 
HETATM   30  C   UNL     1      42.580 -18.015   5.576  1.00  0.00     0.034 C 
ENDBRANCH  28  29
ENDBRANCH  23  28
ENDBRANCH  19  22
ENDBRANCH  17  18
ENDBRANCH  16  17
ENDBRANCH  15  16
ENDBRANCH   1  15
BRANCH   2  31
HETATM   31  C   UNL     1      39.646 -13.025   0.542  1.00  0.00     0.065 A 
HETATM   32  C   UNL     1      39.294 -13.538   1.808  1.00  0.00     0.061 A 
HETATM   33 CL   UNL     1      38.750 -15.167   1.997  1.00  0.00    -0.082 Cl
HETATM   34  C   UNL     1      39.391 -12.741   2.951  1.00  0.00     0.026 A 
HETATM   35  C   UNL     1      39.836 -11.424   2.846  1.00  0.00     0.002 A 
HETATM   36  C   UNL     1      40.187 -10.903   1.602  1.00  0.00     0.002 A 
HETATM   37  C   UNL     1      40.097 -11.697   0.456  1.00  0.00     0.032 A 
ENDBRANCH   2  31
TORSDOF 8
ENDMDL
MODEL 9
REMARK VINA RESULT:      -7.8      4.376      8.416
REMARK  8 active torsions:
REMARK  status: ('A' for Active; 'I' for Inactive)
REMARK    1  A    between atoms: C_2  and  O_3 
REMARK    2  A    between atoms: O_3  and  C_4 
REMARK    3  A    between atoms: C_5  and  N_6 
REMARK       I    between atoms: N_6  and  C_7 
REMARK    4  A    between atoms: C_7  and  C_8 
REMARK    5  A    between atoms: C_8  and  C_9 
REMARK    6  A    between atoms: C_9  and  S_10 
REMARK    7  A    between atoms: S_10  and  C_11 
REMARK    8  A    between atoms: N_12  and  C_13 
ROOT
HETATM    1  C   UNL     1      40.358 -13.856   4.295  1.00  0.00     0.177 A 
HETATM    2  N   UNL     1      41.568 -14.562   4.100  1.00  0.00    -0.274 N 
HETATM    3  C   UNL     1      41.823 -15.108   2.787  1.00  0.00     0.124 A 
HETATM    4  N   UNL     1      42.931 -15.751   2.471  1.00  0.00    -0.384 N 
HETATM    5  H   UNL     1      43.073 -16.112   1.539  1.00  0.00     0.157 HD
HETATM    6  H   UNL     1      43.659 -15.893   3.159  1.00  0.00     0.157 HD
HETATM    7  C   UNL     1      40.807 -14.899   1.805  1.00  0.00     0.081 A 
HETATM    8  C   UNL     1      39.680 -14.168   2.160  1.00  0.00     0.187 A 
HETATM    9  N   UNL     1      38.814 -14.048   1.164  1.00  0.00    -0.153 NA
HETATM   10  N   UNL     1      39.403 -14.720   0.157  1.00  0.00    -0.280 N 
HETATM   11  H   UNL     1      38.911 -14.769  -0.730  1.00  0.00     0.189 HD
HETATM   12  C   UNL     1      40.624 -15.270   0.493  1.00  0.00     0.042 A 
HETATM   13  C   UNL     1      41.407 -16.063  -0.478  1.00  0.00     0.071 C 
HETATM   14  N   UNL     1      39.434 -13.624   3.411  1.00  0.00    -0.202 NA
ENDROOT
BRANCH   1  15
HETATM   15  S   UNL     1      40.007 -13.173   5.914  1.00  0.00    -0.091 SA
BRANCH  15  16
HETATM   16  C   UNL     1      40.397 -11.407   5.638  1.00  0.00     0.091 C 
BRANCH  16  17
HETATM   17  C   UNL     1      40.193 -10.582   6.902  1.00  0.00     0.113 C 
BRANCH  17  18
HETATM   18  C   UNL     1      41.509 -10.213   7.562  1.00  0.00     0.223 C 
HETATM   19  N   UNL     1      41.952 -11.166   8.452  1.00  0.00    -0.325 N 
HETATM   20  H   UNL     1      41.385 -12.001   8.567  1.00  0.00     0.169 HD
HETATM   21  O   UNL     1      42.059  -9.148   7.299  1.00  0.00    -0.273 OA
BRANCH  19  22
HETATM   22  C   UNL     1      43.139 -11.158   9.217  1.00  0.00     0.068 A 
HETATM   23  C   UNL     1      43.076 -10.599  10.505  1.00  0.00     0.095 A 
HETATM   24  C   UNL     1      44.184 -10.605  11.354  1.00  0.00     0.039 A 
HETATM   25  C   UNL     1      45.389 -11.135  10.904  1.00  0.00     0.003 A 
HETATM   26  C   UNL     1      45.476 -11.665   9.617  1.00  0.00     0.002 A 
HETATM   27  C   UNL     1      44.355 -11.678   8.776  1.00  0.00     0.032 A 
BRANCH  23  28
HETATM   28  O   UNL     1      41.905 -10.051  10.974  1.00  0.00    -0.349 OA
BRANCH  28  29
HETATM   29  C   UNL     1      41.251 -10.964  11.870  1.00  0.00     0.171 C 
HETATM   30  C   UNL     1      39.988 -10.306  12.392  1.00  0.00     0.034 C 
ENDBRANCH  28  29
ENDBRANCH  23  28
ENDBRANCH  19  22
ENDBRANCH  17  18
ENDBRANCH  16  17
ENDBRANCH  15  16
ENDBRANCH   1  15
BRANCH   2  31
HETATM   31  C   UNL     1      42.460 -14.834   5.183  1.00  0.00     0.065 A 
HETATM   32  C   UNL     1      42.324 -15.990   5.978  1.00  0.00     0.061 A 
HETATM   33 CL   UNL     1      41.032 -17.108   5.723  1.00  0.00    -0.082 Cl
HETATM   34  C   UNL     1      43.245 -16.270   6.991  1.00  0.00     0.026 A 
HETATM   35  C   UNL     1      44.309 -15.400   7.225  1.00  0.00     0.002 A 
HETATM   36  C   UNL     1      44.456 -14.253   6.447  1.00  0.00     0.002 A 
HETATM   37  C   UNL     1      43.541 -13.971   5.429  1.00  0.00     0.032 A 
ENDBRANCH   2  31
TORSDOF 8
ENDMDL
MODEL 10
REMARK VINA RESULT:      -7.8      6.123      9.550
REMARK  8 active torsions:
REMARK  status: ('A' for Active; 'I' for Inactive)
REMARK    1  A    between atoms: C_2  and  O_3 
REMARK    2  A    between atoms: O_3  and  C_4 
REMARK    3  A    between atoms: C_5  and  N_6 
REMARK       I    between atoms: N_6  and  C_7 
REMARK    4  A    between atoms: C_7  and  C_8 
REMARK    5  A    between atoms: C_8  and  C_9 
REMARK    6  A    between atoms: C_9  and  S_10 
REMARK    7  A    between atoms: S_10  and  C_11 
REMARK    8  A    between atoms: N_12  and  C_13 
ROOT
HETATM    1  C   UNL     1      42.829 -10.263   9.922  1.00  0.00     0.177 A 
HETATM    2  N   UNL     1      41.821  -9.688  10.729  1.00  0.00    -0.274 N 
HETATM    3  C   UNL     1      40.681  -9.100  10.065  1.00  0.00     0.124 A 
HETATM    4  N   UNL     1      39.660  -8.568  10.709  1.00  0.00    -0.384 N 
HETATM    5  H   UNL     1      38.880  -8.172  10.206  1.00  0.00     0.157 HD
HETATM    6  H   UNL     1      39.643  -8.548  11.721  1.00  0.00     0.157 HD
HETATM    7  C   UNL     1      40.691  -9.137   8.637  1.00  0.00     0.081 A 
HETATM    8  C   UNL     1      41.757  -9.756   7.996  1.00  0.00     0.187 A 
HETATM    9  N   UNL     1      41.650  -9.720   6.676  1.00  0.00    -0.153 NA
HETATM   10  N   UNL     1      40.493  -9.063   6.475  1.00  0.00    -0.280 N 
HETATM   11  H   UNL     1      40.196  -8.908   5.516  1.00  0.00     0.189 HD
HETATM   12  C   UNL     1      39.863  -8.673   7.641  1.00  0.00     0.042 A 
HETATM   13  C   UNL     1      38.593  -7.919   7.618  1.00  0.00     0.071 C 
HETATM   14  N   UNL     1      42.846 -10.339   8.624  1.00  0.00    -0.202 NA
ENDROOT
BRANCH   1  15
HETATM   15  S   UNL     1      44.261 -10.994  10.714  1.00  0.00    -0.091 SA
BRANCH  15  16
HETATM   16  C   UNL     1      44.460 -12.523   9.730  1.00  0.00     0.091 C 
BRANCH  16  17
HETATM   17  C   UNL     1      45.607 -12.405   8.734  1.00  0.00     0.113 C 
BRANCH  17  18
HETATM   18  C   UNL     1      45.415 -13.313   7.533  1.00  0.00     0.223 C 
HETATM   19  N   UNL     1      44.337 -14.161   7.663  1.00  0.00    -0.325 N 
HETATM   20  H   UNL     1      43.785 -14.090   8.514  1.00  0.00     0.169 HD
HETATM   21  O   UNL     1      46.190 -13.259   6.583  1.00  0.00    -0.273 OA
BRANCH  19  22
HETATM   22  C   UNL     1      43.860 -15.111   6.736  1.00  0.00     0.068 A 
HETATM   23  C   UNL     1      42.871 -14.693   5.829  1.00  0.00     0.095 A 
HETATM   24  C   UNL     1      42.386 -15.548   4.837  1.00  0.00     0.039 A 
HETATM   25  C   UNL     1      42.859 -16.855   4.769  1.00  0.00     0.003 A 
HETATM   26  C   UNL     1      43.817 -17.294   5.682  1.00  0.00     0.002 A 
HETATM   27  C   UNL     1      44.318 -16.427   6.660  1.00  0.00     0.032 A 
BRANCH  23  28
HETATM   28  O   UNL     1      42.371 -13.413   5.880  1.00  0.00    -0.349 OA
BRANCH  28  29
HETATM   29  C   UNL     1      41.116 -13.340   5.186  1.00  0.00     0.171 C 
HETATM   30  C   UNL     1      40.039 -12.941   6.177  1.00  0.00     0.034 C 
ENDBRANCH  28  29
ENDBRANCH  23  28
ENDBRANCH  19  22
ENDBRANCH  17  18
ENDBRANCH  16  17
ENDBRANCH  15  16
ENDBRANCH   1  15
BRANCH   2  31
HETATM   31  C   UNL     1      41.968  -9.580  12.148  1.00  0.00     0.065 A 
HETATM   32  C   UNL     1      41.357 -10.500  13.025  1.00  0.00     0.061 A 
HETATM   33 CL   UNL     1      40.346 -11.769  12.432  1.00  0.00    -0.082 Cl
HETATM   34  C   UNL     1      41.565 -10.415  14.403  1.00  0.00     0.026 A 
HETATM   35  C   UNL     1      42.383  -9.413  14.924  1.00  0.00     0.002 A 
HETATM   36  C   UNL     1      42.994  -8.497  14.069  1.00  0.00     0.002 A 
HETATM   37  C   UNL     1      42.793  -8.580  12.689  1.00  0.00     0.032 A 
ENDBRANCH   2  31
TORSDOF 8
ENDMDL
