MODEL 1
REMARK VINA RESULT:      -8.3      0.000      0.000
REMARK  6 active torsions:
REMARK  status: ('A' for Active; 'I' for Inactive)
REMARK    1  A    between atoms: C_2  and  C_4 
REMARK    2  A    between atoms: C_2  and  C_11 
REMARK    3  A    between atoms: C_2  and  O_3 
REMARK    4  A    between atoms: C_11  and  N_12 
REMARK       I    between atoms: N_12  and  C_13 
REMARK    5  A    between atoms: C_13  and  C_14 
REMARK    6  A    between atoms: C_15  and  C_16 
ROOT
HETATM    1  N   UNL     1      42.813 -14.646   4.222  1.00  0.00    -0.354 N 
HETATM    2  C   UNL     1      42.332 -14.323   2.974  1.00  0.00     0.255 C 
HETATM    3  O   UNL     1      42.832 -13.430   2.297  1.00  0.00    -0.268 OA
HETATM    4  H   UNL     1      42.222 -15.213   4.815  1.00  0.00     0.162 HD
ENDROOT
BRANCH   2   5
HETATM    5  C   UNL     1      41.193 -15.114   2.537  1.00  0.00     0.080 A 
HETATM    6  C   UNL     1      41.107 -16.529   2.344  1.00  0.00     0.107 A 
HETATM    7  N   UNL     1      39.850 -16.893   2.026  1.00  0.00    -0.173 NA
HETATM    8  N   UNL     1      39.167 -15.746   1.975  1.00  0.00    -0.288 N 
HETATM    9  H   UNL     1      38.180 -15.787   1.744  1.00  0.00     0.188 HD
HETATM   10  C   UNL     1      39.920 -14.649   2.265  1.00  0.00     0.128 A 
BRANCH   6  11
HETATM   11  C   UNL     1      42.160 -17.535   2.438  1.00  0.00     0.034 A 
HETATM   12  C   UNL     1      42.397 -18.224   3.630  1.00  0.00     0.129 A 
HETATM   13  F   UNL     1      41.673 -17.960   4.728  1.00  0.00    -0.205 F 
HETATM   14  C   UNL     1      43.409 -19.179   3.723  1.00  0.00     0.043 A 
HETATM   15  C   UNL     1      44.210 -19.449   2.616  1.00  0.00     0.003 A 
HETATM   16  C   UNL     1      44.000 -18.758   1.423  1.00  0.00     0.001 A 
HETATM   17  C   UNL     1      42.982 -17.803   1.334  1.00  0.00     0.017 A 
ENDBRANCH   6  11
ENDBRANCH   2   5
BRANCH   1  18
HETATM   18  C   UNL     1      43.939 -13.950   4.833  1.00  0.00     0.165 C 
BRANCH  18  19
HETATM   19  C   UNL     1      44.179 -14.256   6.345  1.00  0.00     0.097 C 
HETATM   20  C   UNL     1      45.574 -13.743   6.740  1.00  0.00     0.053 C 
BRANCH  19  21
HETATM   21  C   UNL     1      44.082 -15.743   6.695  1.00  0.00    -0.023 A 
HETATM   22  C   UNL     1      42.964 -16.259   7.380  1.00  0.00     0.013 A 
HETATM   23  C   UNL     1      42.881 -17.618   7.695  1.00  0.00     0.043 A 
HETATM   24  C   UNL     1      43.906 -18.475   7.322  1.00  0.00     0.116 A 
HETATM   25  F   UNL     1      43.822 -19.777   7.624  1.00  0.00    -0.206 F 
HETATM   26  C   UNL     1      45.014 -18.000   6.635  1.00  0.00     0.043 A 
HETATM   27  C   UNL     1      45.099 -16.642   6.322  1.00  0.00     0.013 A 
ENDBRANCH  19  21
BRANCH  19  28
HETATM   28  O   UNL     1      43.266 -13.492   7.149  1.00  0.00    -0.384 OA
HETATM   29  H   UNL     1      42.542 -13.177   6.566  1.00  0.00     0.211 HD
ENDBRANCH  19  28
ENDBRANCH  18  19
ENDBRANCH   1  18
TORSDOF 6
ENDMDL
MODEL 2
REMARK VINA RESULT:      -8.3      2.718      5.322
REMARK  6 active torsions:
REMARK  status: ('A' for Active; 'I' for Inactive)
REMARK    1  A    between atoms: C_2  and  C_4 
REMARK    2  A    between atoms: C_2  and  C_11 
REMARK    3  A    between atoms: C_2  and  O_3 
REMARK    4  A    between atoms: C_11  and  N_12 
REMARK       I    between atoms: N_12  and  C_13 
REMARK    5  A    between atoms: C_13  and  C_14 
REMARK    6  A    between atoms: C_15  and  C_16 
ROOT
HETATM    1  N   UNL     1      42.264 -18.039   1.661  1.00  0.00    -0.354 N 
HETATM    2  C   UNL     1      43.615 -18.261   1.798  1.00  0.00     0.255 C 
HETATM    3  O   UNL     1      44.449 -17.454   1.399  1.00  0.00    -0.268 OA
HETATM    4  H   UNL     1      41.648 -18.831   1.788  1.00  0.00     0.162 HD
ENDROOT
BRANCH   2   5
HETATM    5  C   UNL     1      43.963 -19.518   2.439  1.00  0.00     0.080 A 
HETATM    6  C   UNL     1      44.105 -19.802   3.835  1.00  0.00     0.107 A 
HETATM    7  N   UNL     1      44.342 -21.112   4.035  1.00  0.00    -0.173 NA
HETATM    8  N   UNL     1      44.393 -21.639   2.808  1.00  0.00    -0.288 N 
HETATM    9  H   UNL     1      44.569 -22.635   2.722  1.00  0.00     0.188 HD
HETATM   10  C   UNL     1      44.181 -20.733   1.815  1.00  0.00     0.128 A 
BRANCH   6  11
HETATM   11  C   UNL     1      44.037 -18.888   4.970  1.00  0.00     0.034 A 
HETATM   12  C   UNL     1      42.832 -18.286   5.342  1.00  0.00     0.129 A 
HETATM   13  F   UNL     1      41.708 -18.518   4.646  1.00  0.00    -0.205 F 
HETATM   14  C   UNL     1      42.767 -17.405   6.421  1.00  0.00     0.043 A 
HETATM   15  C   UNL     1      43.922 -17.105   7.140  1.00  0.00     0.003 A 
HETATM   16  C   UNL     1      45.137 -17.683   6.773  1.00  0.00     0.001 A 
HETATM   17  C   UNL     1      45.196 -18.568   5.691  1.00  0.00     0.017 A 
ENDBRANCH   6  11
ENDBRANCH   2   5
BRANCH   1  18
HETATM   18  C   UNL     1      41.726 -16.841   1.027  1.00  0.00     0.165 C 
BRANCH  18  19
HETATM   19  C   UNL     1      40.751 -15.996   1.906  1.00  0.00     0.097 C 
HETATM   20  C   UNL     1      40.074 -14.938   1.018  1.00  0.00     0.053 C 
BRANCH  19  21
HETATM   21  C   UNL     1      41.434 -15.291   3.081  1.00  0.00    -0.023 A 
HETATM   22  C   UNL     1      42.778 -14.878   3.001  1.00  0.00     0.013 A 
HETATM   23  C   UNL     1      43.396 -14.234   4.076  1.00  0.00     0.043 A 
HETATM   24  C   UNL     1      42.676 -13.987   5.236  1.00  0.00     0.116 A 
HETATM   25  F   UNL     1      43.270 -13.368   6.264  1.00  0.00    -0.206 F 
HETATM   26  C   UNL     1      41.346 -14.370   5.342  1.00  0.00     0.043 A 
HETATM   27  C   UNL     1      40.729 -15.015   4.268  1.00  0.00     0.013 A 
ENDBRANCH  19  21
BRANCH  19  28
HETATM   28  O   UNL     1      39.674 -16.823   2.375  1.00  0.00    -0.384 OA
HETATM   29  H   UNL     1      39.689 -16.808   3.357  1.00  0.00     0.211 HD
ENDBRANCH  19  28
ENDBRANCH  18  19
ENDBRANCH   1  18
TORSDOF 6
ENDMDL
MODEL 3
REMARK VINA RESULT:      -8.1      2.625      3.996
REMARK  6 active torsions:
REMARK  status: ('A' for Active; 'I' for Inactive)
REMARK    1  A    between atoms: C_2  and  C_4 
REMARK    2  A    between atoms: C_2  and  C_11 
REMARK    3  A    between atoms: C_2  and  O_3 
REMARK    4  A    between atoms: C_11  and  N_12 
REMARK       I    between atoms: N_12  and  C_13 
REMARK    5  A    between atoms: C_13  and  C_14 
REMARK    6  A    between atoms: C_15  and  C_16 
ROOT
HETATM    1  N   UNL     1      42.832 -16.695   5.923  1.00  0.00    -0.354 N 
HETATM    2  C   UNL     1      41.841 -15.749   5.794  1.00  0.00     0.255 C 
HETATM    3  O   UNL     1      40.764 -15.855   6.373  1.00  0.00    -0.268 OA
HETATM    4  H   UNL     1      43.584 -16.675   5.248  1.00  0.00     0.162 HD
ENDROOT
BRANCH   2   5
HETATM    5  C   UNL     1      42.172 -14.636   4.920  1.00  0.00     0.080 A 
HETATM    6  C   UNL     1      42.499 -14.659   3.526  1.00  0.00     0.107 A 
HETATM    7  N   UNL     1      42.649 -13.408   3.050  1.00  0.00    -0.173 NA
HETATM    8  N   UNL     1      42.468 -12.616   4.111  1.00  0.00    -0.288 N 
HETATM    9  H   UNL     1      42.541 -11.613   3.977  1.00  0.00     0.188 HD
HETATM   10  C   UNL     1      42.186 -13.295   5.257  1.00  0.00     0.128 A 
BRANCH   6  11
HETATM   11  C   UNL     1      42.683 -15.806   2.644  1.00  0.00     0.034 A 
HETATM   12  C   UNL     1      41.594 -16.566   2.210  1.00  0.00     0.129 A 
HETATM   13  F   UNL     1      40.349 -16.270   2.614  1.00  0.00    -0.205 F 
HETATM   14  C   UNL     1      41.769 -17.668   1.374  1.00  0.00     0.043 A 
HETATM   15  C   UNL     1      43.051 -18.033   0.969  1.00  0.00     0.003 A 
HETATM   16  C   UNL     1      44.152 -17.297   1.407  1.00  0.00     0.001 A 
HETATM   17  C   UNL     1      43.971 -16.190   2.243  1.00  0.00     0.017 A 
ENDBRANCH   6  11
ENDBRANCH   2   5
BRANCH   1  18
HETATM   18  C   UNL     1      42.674 -17.889   6.744  1.00  0.00     0.165 C 
BRANCH  18  19
HETATM   19  C   UNL     1      43.965 -18.744   6.944  1.00  0.00     0.097 C 
HETATM   20  C   UNL     1      45.182 -17.804   6.978  1.00  0.00     0.053 C 
BRANCH  19  21
HETATM   21  C   UNL     1      44.182 -19.795   5.851  1.00  0.00    -0.023 A 
HETATM   22  C   UNL     1      44.297 -19.424   4.497  1.00  0.00     0.013 A 
HETATM   23  C   UNL     1      44.497 -20.387   3.505  1.00  0.00     0.043 A 
HETATM   24  C   UNL     1      44.595 -21.726   3.856  1.00  0.00     0.116 A 
HETATM   25  F   UNL     1      44.789 -22.647   2.902  1.00  0.00    -0.206 F 
HETATM   26  C   UNL     1      44.500 -22.122   5.182  1.00  0.00     0.043 A 
HETATM   27  C   UNL     1      44.298 -21.160   6.174  1.00  0.00     0.013 A 
ENDBRANCH  19  21
BRANCH  19  28
HETATM   28  O   UNL     1      43.945 -19.365   8.239  1.00  0.00    -0.384 OA
HETATM   29  H   UNL     1      43.042 -19.260   8.609  1.00  0.00     0.211 HD
ENDBRANCH  19  28
ENDBRANCH  18  19
ENDBRANCH   1  18
TORSDOF 6
ENDMDL
MODEL 4
REMARK VINA RESULT:      -8.1      2.271      4.747
REMARK  6 active torsions:
REMARK  status: ('A' for Active; 'I' for Inactive)
REMARK    1  A    between atoms: C_2  and  C_4 
REMARK    2  A    between atoms: C_2  and  C_11 
REMARK    3  A    between atoms: C_2  and  O_3 
REMARK    4  A    between atoms: C_11  and  N_12 
REMARK       I    between atoms: N_12  and  C_13 
REMARK    5  A    between atoms: C_13  and  C_14 
REMARK    6  A    between atoms: C_15  and  C_16 
ROOT
HETATM    1  N   UNL     1      41.281 -16.828   3.214  1.00  0.00    -0.354 N 
HETATM    2  C   UNL     1      41.123 -15.503   2.875  1.00  0.00     0.255 C 
HETATM    3  O   UNL     1      41.425 -15.079   1.763  1.00  0.00    -0.268 OA
HETATM    4  H   UNL     1      41.243 -17.063   4.197  1.00  0.00     0.162 HD
ENDROOT
BRANCH   2   5
HETATM    5  C   UNL     1      40.585 -14.664   3.932  1.00  0.00     0.080 A 
HETATM    6  C   UNL     1      40.982 -14.589   5.305  1.00  0.00     0.107 A 
HETATM    7  N   UNL     1      40.306 -13.617   5.946  1.00  0.00    -0.173 NA
HETATM    8  N   UNL     1      39.475 -13.118   5.026  1.00  0.00    -0.288 N 
HETATM    9  H   UNL     1      38.858 -12.361   5.300  1.00  0.00     0.188 HD
HETATM   10  C   UNL     1      39.593 -13.709   3.806  1.00  0.00     0.128 A 
BRANCH   6  11
HETATM   11  C   UNL     1      41.956 -15.402   6.026  1.00  0.00     0.034 A 
HETATM   12  C   UNL     1      41.580 -16.585   6.665  1.00  0.00     0.129 A 
HETATM   13  F   UNL     1      40.302 -16.994   6.650  1.00  0.00    -0.205 F 
HETATM   14  C   UNL     1      42.508 -17.358   7.361  1.00  0.00     0.043 A 
HETATM   15  C   UNL     1      43.836 -16.943   7.436  1.00  0.00     0.003 A 
HETATM   16  C   UNL     1      44.227 -15.754   6.819  1.00  0.00     0.001 A 
HETATM   17  C   UNL     1      43.292 -14.985   6.120  1.00  0.00     0.017 A 
ENDBRANCH   6  11
ENDBRANCH   2   5
BRANCH   1  18
HETATM   18  C   UNL     1      41.822 -17.815   2.289  1.00  0.00     0.165 C 
BRANCH  18  19
HETATM   19  C   UNL     1      43.369 -18.022   2.353  1.00  0.00     0.097 C 
HETATM   20  C   UNL     1      43.980 -17.615   1.002  1.00  0.00     0.053 C 
BRANCH  19  21
HETATM   21  C   UNL     1      43.785 -19.461   2.671  1.00  0.00    -0.023 A 
HETATM   22  C   UNL     1      44.392 -19.790   3.898  1.00  0.00     0.013 A 
HETATM   23  C   UNL     1      44.768 -21.105   4.183  1.00  0.00     0.043 A 
HETATM   24  C   UNL     1      44.532 -22.105   3.250  1.00  0.00     0.116 A 
HETATM   25  F   UNL     1      44.892 -23.365   3.527  1.00  0.00    -0.206 F 
HETATM   26  C   UNL     1      43.924 -21.816   2.037  1.00  0.00     0.043 A 
HETATM   27  C   UNL     1      43.550 -20.501   1.752  1.00  0.00     0.013 A 
ENDBRANCH  19  21
BRANCH  19  28
HETATM   28  O   UNL     1      43.944 -17.113   3.305  1.00  0.00    -0.384 OA
HETATM   29  H   UNL     1      44.403 -17.645   3.990  1.00  0.00     0.211 HD
ENDBRANCH  19  28
ENDBRANCH  18  19
ENDBRANCH   1  18
TORSDOF 6
ENDMDL
MODEL 5
REMARK VINA RESULT:      -7.8      4.080      6.013
REMARK  6 active torsions:
REMARK  status: ('A' for Active; 'I' for Inactive)
REMARK    1  A    between atoms: C_2  and  C_4 
REMARK    2  A    between atoms: C_2  and  C_11 
REMARK    3  A    between atoms: C_2  and  O_3 
REMARK    4  A    between atoms: C_11  and  N_12 
REMARK       I    between atoms: N_12  and  C_13 
REMARK    5  A    between atoms: C_13  and  C_14 
REMARK    6  A    between atoms: C_15  and  C_16 
ROOT
HETATM    1  N   UNL     1      42.140 -16.326   0.403  1.00  0.00    -0.354 N 
HETATM    2  C   UNL     1      41.131 -15.421   0.640  1.00  0.00     0.255 C 
HETATM    3  O   UNL     1      40.167 -15.695   1.348  1.00  0.00    -0.268 OA
HETATM    4  H   UNL     1      42.770 -16.130  -0.363  1.00  0.00     0.162 HD
ENDROOT
BRANCH   2   5
HETATM    5  C   UNL     1      41.300 -14.136  -0.018  1.00  0.00     0.080 A 
HETATM    6  C   UNL     1      40.684 -13.656  -1.218  1.00  0.00     0.107 A 
HETATM    7  N   UNL     1      41.023 -12.374  -1.450  1.00  0.00    -0.173 NA
HETATM    8  N   UNL     1      41.861 -12.059  -0.457  1.00  0.00    -0.288 N 
HETATM    9  H   UNL     1      42.248 -11.121  -0.439  1.00  0.00     0.188 HD
HETATM   10  C   UNL     1      42.068 -13.075   0.424  1.00  0.00     0.128 A 
BRANCH   6  11
HETATM   11  C   UNL     1      39.808 -14.362  -2.146  1.00  0.00     0.034 A 
HETATM   12  C   UNL     1      40.306 -15.345  -3.006  1.00  0.00     0.129 A 
HETATM   13  F   UNL     1      41.613 -15.648  -3.013  1.00  0.00    -0.205 F 
HETATM   14  C   UNL     1      39.470 -16.014  -3.900  1.00  0.00     0.043 A 
HETATM   15  C   UNL     1      38.115 -15.695  -3.951  1.00  0.00     0.003 A 
HETATM   16  C   UNL     1      37.603 -14.704  -3.114  1.00  0.00     0.001 A 
HETATM   17  C   UNL     1      38.445 -14.038  -2.217  1.00  0.00     0.017 A 
ENDBRANCH   6  11
ENDBRANCH   2   5
BRANCH   1  18
HETATM   18  C   UNL     1      42.135 -17.671   0.965  1.00  0.00     0.165 C 
BRANCH  18  19
HETATM   19  C   UNL     1      42.821 -17.820   2.360  1.00  0.00     0.097 C 
HETATM   20  C   UNL     1      43.947 -16.778   2.473  1.00  0.00     0.053 C 
BRANCH  19  21
HETATM   21  C   UNL     1      43.409 -19.212   2.611  1.00  0.00    -0.023 A 
HETATM   22  C   UNL     1      44.167 -19.485   3.766  1.00  0.00     0.013 A 
HETATM   23  C   UNL     1      44.699 -20.757   3.991  1.00  0.00     0.043 A 
HETATM   24  C   UNL     1      44.472 -21.770   3.070  1.00  0.00     0.116 A 
HETATM   25  F   UNL     1      44.983 -22.989   3.289  1.00  0.00    -0.206 F 
HETATM   26  C   UNL     1      43.720 -21.536   1.928  1.00  0.00     0.043 A 
HETATM   27  C   UNL     1      43.189 -20.265   1.703  1.00  0.00     0.013 A 
ENDBRANCH  19  21
BRANCH  19  28
HETATM   28  O   UNL     1      41.895 -17.473   3.401  1.00  0.00    -0.384 OA
HETATM   29  H   UNL     1      41.482 -16.615   3.163  1.00  0.00     0.211 HD
ENDBRANCH  19  28
ENDBRANCH  18  19
ENDBRANCH   1  18
TORSDOF 6
ENDMDL
MODEL 6
REMARK VINA RESULT:      -7.8      3.516      5.196
REMARK  6 active torsions:
REMARK  status: ('A' for Active; 'I' for Inactive)
REMARK    1  A    between atoms: C_2  and  C_4 
REMARK    2  A    between atoms: C_2  and  C_11 
REMARK    3  A    between atoms: C_2  and  O_3 
REMARK    4  A    between atoms: C_11  and  N_12 
REMARK       I    between atoms: N_12  and  C_13 
REMARK    5  A    between atoms: C_13  and  C_14 
REMARK    6  A    between atoms: C_15  and  C_16 
ROOT
HETATM    1  N   UNL     1      41.959 -15.799   2.846  1.00  0.00    -0.354 N 
HETATM    2  C   UNL     1      41.579 -15.883   1.526  1.00  0.00     0.255 C 
HETATM    3  O   UNL     1      42.264 -16.465   0.690  1.00  0.00    -0.268 OA
HETATM    4  H   UNL     1      41.485 -15.117   3.423  1.00  0.00     0.162 HD
ENDROOT
BRANCH   2   5
HETATM    5  C   UNL     1      40.322 -15.225   1.211  1.00  0.00     0.080 A 
HETATM    6  C   UNL     1      40.017 -14.350   0.121  1.00  0.00     0.107 A 
HETATM    7  N   UNL     1      38.711 -14.023   0.120  1.00  0.00    -0.173 NA
HETATM    8  N   UNL     1      38.208 -14.632   1.198  1.00  0.00    -0.288 N 
HETATM    9  H   UNL     1      37.220 -14.516   1.395  1.00  0.00     0.188 HD
HETATM   10  C   UNL     1      39.126 -15.359   1.892  1.00  0.00     0.128 A 
BRANCH   6  11
HETATM   11  C   UNL     1      40.908 -13.811  -0.901  1.00  0.00     0.034 A 
HETATM   12  C   UNL     1      41.009 -14.408  -2.161  1.00  0.00     0.129 A 
HETATM   13  F   UNL     1      40.302 -15.510  -2.454  1.00  0.00    -0.205 F 
HETATM   14  C   UNL     1      41.867 -13.899  -3.135  1.00  0.00     0.043 A 
HETATM   15  C   UNL     1      42.650 -12.782  -2.852  1.00  0.00     0.003 A 
HETATM   16  C   UNL     1      42.576 -12.183  -1.594  1.00  0.00     0.001 A 
HETATM   17  C   UNL     1      41.712 -12.696  -0.622  1.00  0.00     0.017 A 
ENDBRANCH   6  11
ENDBRANCH   2   5
BRANCH   1  18
HETATM   18  C   UNL     1      43.198 -16.384   3.344  1.00  0.00     0.165 C 
BRANCH  18  19
HETATM   19  C   UNL     1      43.028 -17.626   4.276  1.00  0.00     0.097 C 
HETATM   20  C   UNL     1      43.786 -17.368   5.589  1.00  0.00     0.053 C 
BRANCH  19  21
HETATM   21  C   UNL     1      43.538 -18.932   3.660  1.00  0.00    -0.023 A 
HETATM   22  C   UNL     1      44.432 -19.766   4.359  1.00  0.00     0.013 A 
HETATM   23  C   UNL     1      44.893 -20.958   3.793  1.00  0.00     0.043 A 
HETATM   24  C   UNL     1      44.457 -21.332   2.529  1.00  0.00     0.116 A 
HETATM   25  F   UNL     1      44.899 -22.476   1.990  1.00  0.00    -0.206 F 
HETATM   26  C   UNL     1      43.567 -20.539   1.821  1.00  0.00     0.043 A 
HETATM   27  C   UNL     1      43.108 -19.347   2.386  1.00  0.00     0.013 A 
ENDBRANCH  19  21
BRANCH  19  28
HETATM   28  O   UNL     1      41.653 -17.760   4.666  1.00  0.00    -0.384 OA
HETATM   29  H   UNL     1      41.096 -17.558   3.884  1.00  0.00     0.211 HD
ENDBRANCH  19  28
ENDBRANCH  18  19
ENDBRANCH   1  18
TORSDOF 6
ENDMDL
MODEL 7
REMARK VINA RESULT:      -7.7      2.688      5.289
REMARK  6 active torsions:
REMARK  status: ('A' for Active; 'I' for Inactive)
REMARK    1  A    between atoms: C_2  and  C_4 
REMARK    2  A    between atoms: C_2  and  C_11 
REMARK    3  A    between atoms: C_2  and  O_3 
REMARK    4  A    between atoms: C_11  and  N_12 
REMARK       I    between atoms: N_12  and  C_13 
REMARK    5  A    between atoms: C_13  and  C_14 
REMARK    6  A    between atoms: C_15  and  C_16 
ROOT
HETATM    1  N   UNL     1      41.562 -15.239   6.167  1.00  0.00    -0.354 N 
HETATM    2  C   UNL     1      41.478 -16.613   6.149  1.00  0.00     0.255 C 
HETATM    3  O   UNL     1      40.431 -17.195   5.880  1.00  0.00    -0.268 OA
HETATM    4  H   UNL     1      42.368 -14.829   6.620  1.00  0.00     0.162 HD
ENDROOT
BRANCH   2   5
HETATM    5  C   UNL     1      42.713 -17.303   6.479  1.00  0.00     0.080 A 
HETATM    6  C   UNL     1      43.704 -17.838   5.595  1.00  0.00     0.107 A 
HETATM    7  N   UNL     1      44.754 -18.318   6.288  1.00  0.00    -0.173 NA
HETATM    8  N   UNL     1      44.426 -18.136   7.571  1.00  0.00    -0.288 N 
HETATM    9  H   UNL     1      45.088 -18.435   8.279  1.00  0.00     0.188 HD
HETATM   10  C   UNL     1      43.216 -17.539   7.745  1.00  0.00     0.128 A 
BRANCH   6  11
HETATM   11  C   UNL     1      43.687 -17.921   4.138  1.00  0.00     0.034 A 
HETATM   12  C   UNL     1      43.692 -16.768   3.349  1.00  0.00     0.129 A 
HETATM   13  F   UNL     1      43.689 -15.551   3.915  1.00  0.00    -0.205 F 
HETATM   14  C   UNL     1      43.667 -16.845   1.957  1.00  0.00     0.043 A 
HETATM   15  C   UNL     1      43.624 -18.090   1.334  1.00  0.00     0.003 A 
HETATM   16  C   UNL     1      43.601 -19.252   2.106  1.00  0.00     0.001 A 
HETATM   17  C   UNL     1      43.629 -19.169   3.501  1.00  0.00     0.017 A 
ENDBRANCH   6  11
ENDBRANCH   2   5
BRANCH   1  18
HETATM   18  C   UNL     1      40.421 -14.380   5.878  1.00  0.00     0.165 C 
BRANCH  18  19
HETATM   19  C   UNL     1      40.630 -13.348   4.725  1.00  0.00     0.097 C 
HETATM   20  C   UNL     1      39.461 -12.349   4.735  1.00  0.00     0.053 C 
BRANCH  19  21
HETATM   21  C   UNL     1      40.723 -13.986   3.336  1.00  0.00    -0.023 A 
HETATM   22  C   UNL     1      39.991 -15.147   3.018  1.00  0.00     0.013 A 
HETATM   23  C   UNL     1      40.078 -15.724   1.748  1.00  0.00     0.043 A 
HETATM   24  C   UNL     1      40.888 -15.143   0.783  1.00  0.00     0.116 A 
HETATM   25  F   UNL     1      40.968 -15.698  -0.434  1.00  0.00    -0.206 F 
HETATM   26  C   UNL     1      41.611 -13.993   1.061  1.00  0.00     0.043 A 
HETATM   27  C   UNL     1      41.526 -13.416   2.330  1.00  0.00     0.013 A 
ENDBRANCH  19  21
BRANCH  19  28
HETATM   28  O   UNL     1      41.796 -12.551   4.988  1.00  0.00    -0.384 OA
HETATM   29  H   UNL     1      42.390 -12.620   4.210  1.00  0.00     0.211 HD
ENDBRANCH  19  28
ENDBRANCH  18  19
ENDBRANCH   1  18
TORSDOF 6
ENDMDL
MODEL 8
REMARK VINA RESULT:      -7.5      2.478      5.094
REMARK  6 active torsions:
REMARK  status: ('A' for Active; 'I' for Inactive)
REMARK    1  A    between atoms: C_2  and  C_4 
REMARK    2  A    between atoms: C_2  and  C_11 
REMARK    3  A    between atoms: C_2  and  O_3 
REMARK    4  A    between atoms: C_11  and  N_12 
REMARK       I    between atoms: N_12  and  C_13 
REMARK    5  A    between atoms: C_13  and  C_14 
REMARK    6  A    between atoms: C_15  and  C_16 
ROOT
HETATM    1  N   UNL     1      42.271 -14.616   6.293  1.00  0.00    -0.354 N 
HETATM    2  C   UNL     1      43.272 -15.476   5.902  1.00  0.00     0.255 C 
HETATM    3  O   UNL     1      44.073 -15.180   5.021  1.00  0.00    -0.268 OA
HETATM    4  H   UNL     1      41.514 -15.003   6.841  1.00  0.00     0.162 HD
ENDROOT
BRANCH   2   5
HETATM    5  C   UNL     1      43.292 -16.747   6.606  1.00  0.00     0.080 A 
HETATM    6  C   UNL     1      43.376 -18.070   6.065  1.00  0.00     0.107 A 
HETATM    7  N   UNL     1      43.465 -18.985   7.048  1.00  0.00    -0.173 NA
HETATM    8  N   UNL     1      43.396 -18.276   8.179  1.00  0.00    -0.288 N 
HETATM    9  H   UNL     1      43.442 -18.776   9.060  1.00  0.00     0.188 HD
HETATM   10  C   UNL     1      43.285 -16.935   7.976  1.00  0.00     0.128 A 
BRANCH   6  11
HETATM   11  C   UNL     1      43.364 -18.493   4.668  1.00  0.00     0.034 A 
HETATM   12  C   UNL     1      44.369 -19.317   4.154  1.00  0.00     0.129 A 
HETATM   13  F   UNL     1      45.385 -19.722   4.931  1.00  0.00    -0.205 F 
HETATM   14  C   UNL     1      44.363 -19.715   2.818  1.00  0.00     0.043 A 
HETATM   15  C   UNL     1      43.348 -19.278   1.970  1.00  0.00     0.003 A 
HETATM   16  C   UNL     1      42.346 -18.441   2.461  1.00  0.00     0.001 A 
HETATM   17  C   UNL     1      42.354 -18.047   3.803  1.00  0.00     0.017 A 
ENDBRANCH   6  11
ENDBRANCH   2   5
BRANCH   1  18
HETATM   18  C   UNL     1      42.084 -13.303   5.688  1.00  0.00     0.165 C 
BRANCH  18  19
HETATM   19  C   UNL     1      40.816 -13.150   4.791  1.00  0.00     0.097 C 
HETATM   20  C   UNL     1      39.581 -13.585   5.598  1.00  0.00     0.053 C 
BRANCH  19  21
HETATM   21  C   UNL     1      40.874 -13.969   3.498  1.00  0.00    -0.023 A 
HETATM   22  C   UNL     1      41.962 -13.852   2.610  1.00  0.00     0.013 A 
HETATM   23  C   UNL     1      42.011 -14.603   1.433  1.00  0.00     0.043 A 
HETATM   24  C   UNL     1      40.980 -15.484   1.136  1.00  0.00     0.116 A 
HETATM   25  F   UNL     1      41.031 -16.204   0.007  1.00  0.00    -0.206 F 
HETATM   26  C   UNL     1      39.902 -15.632   1.996  1.00  0.00     0.043 A 
HETATM   27  C   UNL     1      39.852 -14.880   3.172  1.00  0.00     0.013 A 
ENDBRANCH  19  21
BRANCH  19  28
HETATM   28  O   UNL     1      40.591 -11.763   4.495  1.00  0.00    -0.384 OA
HETATM   29  H   UNL     1      40.793 -11.621   3.545  1.00  0.00     0.211 HD
ENDBRANCH  19  28
ENDBRANCH  18  19
ENDBRANCH   1  18
TORSDOF 6
ENDMDL
MODEL 9
REMARK VINA RESULT:      -7.5      3.531      6.731
REMARK  6 active torsions:
REMARK  status: ('A' for Active; 'I' for Inactive)
REMARK    1  A    between atoms: C_2  and  C_4 
REMARK    2  A    between atoms: C_2  and  C_11 
REMARK    3  A    between atoms: C_2  and  O_3 
REMARK    4  A    between atoms: C_11  and  N_12 
REMARK       I    between atoms: N_12  and  C_13 
REMARK    5  A    between atoms: C_13  and  C_14 
REMARK    6  A    between atoms: C_15  and  C_16 
ROOT
HETATM    1  N   UNL     1      42.694 -16.193   3.335  1.00  0.00    -0.354 N 
HETATM    2  C   UNL     1      42.420 -17.241   4.184  1.00  0.00     0.255 C 
HETATM    3  O   UNL     1      41.324 -17.792   4.202  1.00  0.00    -0.268 OA
HETATM    4  H   UNL     1      43.516 -15.638   3.532  1.00  0.00     0.162 HD
ENDROOT
BRANCH   2   5
HETATM    5  C   UNL     1      43.522 -17.626   5.050  1.00  0.00     0.080 A 
HETATM    6  C   UNL     1      44.386 -18.763   4.948  1.00  0.00     0.107 A 
HETATM    7  N   UNL     1      45.349 -18.717   5.888  1.00  0.00    -0.173 NA
HETATM    8  N   UNL     1      45.084 -17.614   6.593  1.00  0.00    -0.288 N 
HETATM    9  H   UNL     1      45.696 -17.384   7.369  1.00  0.00     0.188 HD
HETATM   10  C   UNL     1      44.000 -16.925   6.142  1.00  0.00     0.128 A 
BRANCH   6  11
HETATM   11  C   UNL     1      44.327 -19.881   4.013  1.00  0.00     0.034 A 
HETATM   12  C   UNL     1      44.584 -21.189   4.432  1.00  0.00     0.129 A 
HETATM   13  F   UNL     1      44.914 -21.445   5.707  1.00  0.00    -0.205 F 
HETATM   14  C   UNL     1      44.536 -22.257   3.537  1.00  0.00     0.043 A 
HETATM   15  C   UNL     1      44.240 -22.024   2.196  1.00  0.00     0.003 A 
HETATM   16  C   UNL     1      43.998 -20.722   1.755  1.00  0.00     0.001 A 
HETATM   17  C   UNL     1      44.044 -19.655   2.658  1.00  0.00     0.017 A 
ENDBRANCH   6  11
ENDBRANCH   2   5
BRANCH   1  18
HETATM   18  C   UNL     1      41.706 -15.659   2.406  1.00  0.00     0.165 C 
BRANCH  18  19
HETATM   19  C   UNL     1      41.633 -16.371   1.018  1.00  0.00     0.097 C 
HETATM   20  C   UNL     1      42.951 -17.126   0.778  1.00  0.00     0.053 C 
BRANCH  19  21
HETATM   21  C   UNL     1      41.392 -15.414  -0.153  1.00  0.00    -0.023 A 
HETATM   22  C   UNL     1      41.074 -15.899  -1.436  1.00  0.00     0.013 A 
HETATM   23  C   UNL     1      40.853 -15.021  -2.501  1.00  0.00     0.043 A 
HETATM   24  C   UNL     1      40.939 -13.652  -2.292  1.00  0.00     0.116 A 
HETATM   25  F   UNL     1      40.725 -12.813  -3.314  1.00  0.00    -0.206 F 
HETATM   26  C   UNL     1      41.237 -13.142  -1.037  1.00  0.00     0.043 A 
HETATM   27  C   UNL     1      41.459 -14.019   0.027  1.00  0.00     0.013 A 
ENDBRANCH  19  21
BRANCH  19  28
HETATM   28  O   UNL     1      40.624 -17.393   1.045  1.00  0.00    -0.384 OA
HETATM   29  H   UNL     1      40.690 -17.903   0.209  1.00  0.00     0.211 HD
ENDBRANCH  19  28
ENDBRANCH  18  19
ENDBRANCH   1  18
TORSDOF 6
ENDMDL
MODEL 10
REMARK VINA RESULT:      -7.4      2.449      3.921
REMARK  6 active torsions:
REMARK  status: ('A' for Active; 'I' for Inactive)
REMARK    1  A    between atoms: C_2  and  C_4 
REMARK    2  A    between atoms: C_2  and  C_11 
REMARK    3  A    between atoms: C_2  and  O_3 
REMARK    4  A    between atoms: C_11  and  N_12 
REMARK       I    between atoms: N_12  and  C_13 
REMARK    5  A    between atoms: C_13  and  C_14 
REMARK    6  A    between atoms: C_15  and  C_16 
ROOT
HETATM    1  N   UNL     1      42.588 -14.757   6.121  1.00  0.00    -0.354 N 
HETATM    2  C   UNL     1      42.994 -13.813   5.205  1.00  0.00     0.255 C 
HETATM    3  O   UNL     1      44.176 -13.661   4.912  1.00  0.00    -0.268 OA
HETATM    4  H   UNL     1      41.650 -14.672   6.491  1.00  0.00     0.162 HD
ENDROOT
BRANCH   2   5
HETATM    5  C   UNL     1      41.920 -13.019   4.632  1.00  0.00     0.080 A 
HETATM    6  C   UNL     1      41.064 -13.334   3.529  1.00  0.00     0.107 A 
HETATM    7  N   UNL     1      40.127 -12.381   3.364  1.00  0.00    -0.173 NA
HETATM    8  N   UNL     1      40.401 -11.469   4.301  1.00  0.00    -0.288 N 
HETATM    9  H   UNL     1      39.808 -10.647   4.355  1.00  0.00     0.188 HD
HETATM   10  C   UNL     1      41.466 -11.793   5.084  1.00  0.00     0.128 A 
BRANCH   6  11
HETATM   11  C   UNL     1      41.108 -14.483   2.631  1.00  0.00     0.034 A 
HETATM   12  C   UNL     1      41.787 -14.421   1.411  1.00  0.00     0.129 A 
HETATM   13  F   UNL     1      42.399 -13.291   1.025  1.00  0.00    -0.205 F 
HETATM   14  C   UNL     1      41.822 -15.515   0.547  1.00  0.00     0.043 A 
HETATM   15  C   UNL     1      41.161 -16.692   0.894  1.00  0.00     0.003 A 
HETATM   16  C   UNL     1      40.464 -16.766   2.100  1.00  0.00     0.001 A 
HETATM   17  C   UNL     1      40.434 -15.667   2.963  1.00  0.00     0.017 A 
ENDBRANCH   6  11
ENDBRANCH   2   5
BRANCH   1  18
HETATM   18  C   UNL     1      43.525 -15.634   6.811  1.00  0.00     0.165 C 
BRANCH  18  19
HETATM   19  C   UNL     1      43.085 -17.127   6.932  1.00  0.00     0.097 C 
HETATM   20  C   UNL     1      43.631 -17.701   8.250  1.00  0.00     0.053 C 
BRANCH  19  21
HETATM   21  C   UNL     1      43.565 -18.006   5.773  1.00  0.00    -0.023 A 
HETATM   22  C   UNL     1      44.333 -19.164   6.007  1.00  0.00     0.013 A 
HETATM   23  C   UNL     1      44.767 -19.963   4.947  1.00  0.00     0.043 A 
HETATM   24  C   UNL     1      44.431 -19.620   3.645  1.00  0.00     0.116 A 
HETATM   25  F   UNL     1      44.847 -20.389   2.630  1.00  0.00    -0.206 F 
HETATM   26  C   UNL     1      43.665 -18.494   3.382  1.00  0.00     0.043 A 
HETATM   27  C   UNL     1      43.232 -17.694   4.442  1.00  0.00     0.013 A 
ENDBRANCH  19  21
BRANCH  19  28
HETATM   28  O   UNL     1      41.657 -17.207   7.061  1.00  0.00    -0.384 OA
HETATM   29  H   UNL     1      41.330 -16.326   7.343  1.00  0.00     0.211 HD
ENDBRANCH  19  28
ENDBRANCH  18  19
ENDBRANCH   1  18
TORSDOF 6
ENDMDL
