MODEL 1
REMARK VINA RESULT:      -8.2      0.000      0.000
REMARK  5 active torsions:
REMARK  status: ('A' for Active; 'I' for Inactive)
REMARK    1  A    between atoms: N_2  and  C_4 
REMARK    2  A    between atoms: C_4  and  C_5 
REMARK    3  A    between atoms: C_5  and  N_6 
REMARK    4  A    between atoms: C_11  and  C_12 
REMARK    5  A    between atoms: C_15  and  O_16 
ROOT
HETATM    1  N   UNL     1      42.923 -14.126   4.164  1.00  0.00    -0.332 N 
HETATM    2  C   UNL     1      43.192 -15.081   5.140  1.00  0.00     0.279 C 
HETATM    3  O   UNL     1      43.136 -14.905   6.344  1.00  0.00    -0.265 OA
HETATM    4  C   UNL     1      43.546 -16.325   4.439  1.00  0.00     0.156 C 
HETATM    5  C   UNL     1      43.405 -16.073   3.140  1.00  0.00     0.060 C 
HETATM    6  C   UNL     1      42.890 -14.719   2.828  1.00  0.00     0.161 C 
HETATM    7  O   UNL     1      43.901 -17.508   5.023  1.00  0.00    -0.303 OA
HETATM    8  C   UNL     1      44.028 -18.582   4.165  1.00  0.00     0.090 A 
HETATM    9  C   UNL     1      43.947 -18.456   2.766  1.00  0.00     0.051 A 
HETATM   10  C   UNL     1      43.701 -17.123   2.176  1.00  0.00     0.196 C 
HETATM   11  O   UNL     1      43.740 -16.902   0.977  1.00  0.00    -0.287 OA
HETATM   12  C   UNL     1      44.230 -19.836   4.740  1.00  0.00     0.041 A 
HETATM   13  C   UNL     1      44.341 -20.959   3.916  1.00  0.00     0.045 A 
HETATM   14  C   UNL     1      44.258 -20.818   2.531  1.00  0.00     0.117 A 
HETATM   15  F   UNL     1      44.357 -21.904   1.755  1.00  0.00    -0.206 F 
HETATM   16  C   UNL     1      44.068 -19.575   1.943  1.00  0.00     0.060 A 
ENDROOT
BRANCH   6  17
HETATM   17  C   UNL     1      41.500 -14.764   2.217  1.00  0.00    -0.030 A 
HETATM   18  C   UNL     1      41.095 -13.869   1.206  1.00  0.00     0.012 A 
HETATM   19  C   UNL     1      39.779 -13.866   0.737  1.00  0.00     0.037 A 
HETATM   20  C   UNL     1      38.861 -14.759   1.275  1.00  0.00     0.065 A 
HETATM   21  C   UNL     1      39.239 -15.659   2.262  1.00  0.00     0.037 A 
HETATM   22  C   UNL     1      40.551 -15.659   2.738  1.00  0.00     0.012 A 
BRANCH  20  23
HETATM   23  O   UNL     1      37.562 -14.775   0.865  1.00  0.00    -0.361 OA
HETATM   24  H   UNL     1      36.981 -14.764   1.644  1.00  0.00     0.217 HD
ENDBRANCH  20  23
ENDBRANCH   6  17
BRANCH   1  25
HETATM   25  C   UNL     1      42.367 -12.817   4.470  1.00  0.00     0.155 C 
BRANCH  25  26
HETATM   26  C   UNL     1      40.906 -12.871   4.966  1.00  0.00     0.254 C 
BRANCH  26  27
HETATM   27  N   UNL     1      40.797 -12.588   6.457  1.00  0.00    -0.077 N 
HETATM   28  C   UNL     1      39.386 -12.411   6.942  1.00  0.00     0.269 C 
HETATM   29  H   UNL     1      41.198 -13.400   6.947  1.00  0.00     0.279 HD
HETATM   30  C   UNL     1      41.657 -11.412   6.846  1.00  0.00     0.269 C 
ENDBRANCH  26  27
ENDBRANCH  25  26
ENDBRANCH   1  25
TORSDOF 5
ENDMDL
MODEL 2
REMARK VINA RESULT:      -8.0      3.546      7.578
REMARK  5 active torsions:
REMARK  status: ('A' for Active; 'I' for Inactive)
REMARK    1  A    between atoms: N_2  and  C_4 
REMARK    2  A    between atoms: C_4  and  C_5 
REMARK    3  A    between atoms: C_5  and  N_6 
REMARK    4  A    between atoms: C_11  and  C_12 
REMARK    5  A    between atoms: C_15  and  O_16 
ROOT
HETATM    1  N   UNL     1      42.504 -17.394   2.967  1.00  0.00    -0.332 N 
HETATM    2  C   UNL     1      41.288 -16.814   2.613  1.00  0.00     0.279 C 
HETATM    3  O   UNL     1      40.383 -17.365   2.014  1.00  0.00    -0.265 OA
HETATM    4  C   UNL     1      41.315 -15.427   3.104  1.00  0.00     0.156 C 
HETATM    5  C   UNL     1      42.465 -15.285   3.757  1.00  0.00     0.060 C 
HETATM    6  C   UNL     1      43.278 -16.521   3.848  1.00  0.00     0.161 C 
HETATM    7  O   UNL     1      40.325 -14.498   2.951  1.00  0.00    -0.303 OA
HETATM    8  C   UNL     1      40.506 -13.315   3.640  1.00  0.00     0.090 A 
HETATM    9  C   UNL     1      41.688 -13.011   4.338  1.00  0.00     0.051 A 
HETATM   10  C   UNL     1      42.789 -13.997   4.354  1.00  0.00     0.196 C 
HETATM   11  O   UNL     1      43.891 -13.768   4.826  1.00  0.00    -0.287 OA
HETATM   12  C   UNL     1      39.446 -12.409   3.638  1.00  0.00     0.041 A 
HETATM   13  C   UNL     1      39.569 -11.208   4.341  1.00  0.00     0.045 A 
HETATM   14  C   UNL     1      40.748 -10.921   5.029  1.00  0.00     0.117 A 
HETATM   15  F   UNL     1      40.848  -9.770   5.705  1.00  0.00    -0.206 F 
HETATM   16  C   UNL     1      41.816 -11.808   5.031  1.00  0.00     0.060 A 
ENDROOT
BRANCH   6  17
HETATM   17  C   UNL     1      43.380 -17.033   5.274  1.00  0.00    -0.030 A 
HETATM   18  C   UNL     1      42.319 -16.908   6.194  1.00  0.00     0.012 A 
HETATM   19  C   UNL     1      42.478 -17.294   7.527  1.00  0.00     0.037 A 
HETATM   20  C   UNL     1      43.698 -17.808   7.948  1.00  0.00     0.065 A 
HETATM   21  C   UNL     1      44.754 -17.952   7.058  1.00  0.00     0.037 A 
HETATM   22  C   UNL     1      44.600 -17.560   5.727  1.00  0.00     0.012 A 
BRANCH  20  23
HETATM   23  O   UNL     1      43.906 -18.173   9.244  1.00  0.00    -0.361 OA
HETATM   24  H   UNL     1      44.735 -18.676   9.305  1.00  0.00     0.217 HD
ENDBRANCH  20  23
ENDBRANCH   6  17
BRANCH   1  25
HETATM   25  C   UNL     1      42.779 -18.814   2.807  1.00  0.00     0.155 C 
BRANCH  25  26
HETATM   26  C   UNL     1      44.179 -19.107   2.227  1.00  0.00     0.254 C 
BRANCH  26  27
HETATM   27  N   UNL     1      44.649 -20.517   2.553  1.00  0.00    -0.077 N 
HETATM   28  C   UNL     1      43.863 -21.596   1.864  1.00  0.00     0.269 C 
HETATM   29  H   UNL     1      45.626 -20.589   2.236  1.00  0.00     0.279 HD
HETATM   30  C   UNL     1      44.687 -20.741   4.044  1.00  0.00     0.269 C 
ENDBRANCH  26  27
ENDBRANCH  25  26
ENDBRANCH   1  25
TORSDOF 5
ENDMDL
MODEL 3
REMARK VINA RESULT:      -7.9      2.344      4.838
REMARK  5 active torsions:
REMARK  status: ('A' for Active; 'I' for Inactive)
REMARK    1  A    between atoms: N_2  and  C_4 
REMARK    2  A    between atoms: C_4  and  C_5 
REMARK    3  A    between atoms: C_5  and  N_6 
REMARK    4  A    between atoms: C_11  and  C_12 
REMARK    5  A    between atoms: C_15  and  O_16 
ROOT
HETATM    1  N   UNL     1      40.318 -15.116   1.779  1.00  0.00    -0.332 N 
HETATM    2  C   UNL     1      41.307 -15.795   1.072  1.00  0.00     0.279 C 
HETATM    3  O   UNL     1      41.654 -15.561  -0.071  1.00  0.00    -0.265 OA
HETATM    4  C   UNL     1      41.841 -16.833   1.969  1.00  0.00     0.156 C 
HETATM    5  C   UNL     1      41.218 -16.674   3.134  1.00  0.00     0.060 C 
HETATM    6  C   UNL     1      40.291 -15.519   3.184  1.00  0.00     0.161 C 
HETATM    7  O   UNL     1      42.817 -17.738   1.663  1.00  0.00    -0.303 OA
HETATM    8  C   UNL     1      43.270 -18.505   2.718  1.00  0.00     0.090 A 
HETATM    9  C   UNL     1      42.679 -18.474   3.994  1.00  0.00     0.051 A 
HETATM   10  C   UNL     1      41.530 -17.575   4.234  1.00  0.00     0.196 C 
HETATM   11  O   UNL     1      40.881 -17.574   5.267  1.00  0.00    -0.287 OA
HETATM   12  C   UNL     1      44.372 -19.325   2.482  1.00  0.00     0.041 A 
HETATM   13  C   UNL     1      44.885 -20.103   3.524  1.00  0.00     0.045 A 
HETATM   14  C   UNL     1      44.288 -20.060   4.783  1.00  0.00     0.117 A 
HETATM   15  F   UNL     1      44.796 -20.804   5.774  1.00  0.00    -0.206 F 
HETATM   16  C   UNL     1      43.183 -19.257   5.031  1.00  0.00     0.060 A 
ENDROOT
BRANCH   6  17
HETATM   17  C   UNL     1      40.777 -14.439   4.135  1.00  0.00    -0.030 A 
HETATM   18  C   UNL     1      42.114 -13.994   4.145  1.00  0.00     0.012 A 
HETATM   19  C   UNL     1      42.556 -13.075   5.100  1.00  0.00     0.037 A 
HETATM   20  C   UNL     1      41.664 -12.594   6.049  1.00  0.00     0.065 A 
HETATM   21  C   UNL     1      40.338 -13.008   6.053  1.00  0.00     0.037 A 
HETATM   22  C   UNL     1      39.896 -13.932   5.104  1.00  0.00     0.012 A 
BRANCH  20  23
HETATM   23  O   UNL     1      42.056 -11.716   7.014  1.00  0.00    -0.361 OA
HETATM   24  H   UNL     1      41.315 -11.128   7.232  1.00  0.00     0.217 HD
ENDBRANCH  20  23
ENDBRANCH   6  17
BRANCH   1  25
HETATM   25  C   UNL     1      39.682 -13.905   1.283  1.00  0.00     0.155 C 
BRANCH  25  26
HETATM   26  C   UNL     1      38.565 -14.175   0.252  1.00  0.00     0.254 C 
BRANCH  26  27
HETATM   27  N   UNL     1      39.080 -14.112  -1.179  1.00  0.00    -0.077 N 
HETATM   28  C   UNL     1      39.965 -12.929  -1.456  1.00  0.00     0.269 C 
HETATM   29  H   UNL     1      39.636 -14.964  -1.336  1.00  0.00     0.279 HD
HETATM   30  C   UNL     1      37.941 -14.181  -2.164  1.00  0.00     0.269 C 
ENDBRANCH  26  27
ENDBRANCH  25  26
ENDBRANCH   1  25
TORSDOF 5
ENDMDL
MODEL 4
REMARK VINA RESULT:      -7.5      3.115      6.057
REMARK  5 active torsions:
REMARK  status: ('A' for Active; 'I' for Inactive)
REMARK    1  A    between atoms: N_2  and  C_4 
REMARK    2  A    between atoms: C_4  and  C_5 
REMARK    3  A    between atoms: C_5  and  N_6 
REMARK    4  A    between atoms: C_11  and  C_12 
REMARK    5  A    between atoms: C_15  and  O_16 
ROOT
HETATM    1  N   UNL     1      41.904 -14.656   4.308  1.00  0.00    -0.332 N 
HETATM    2  C   UNL     1      42.351 -13.432   3.818  1.00  0.00     0.279 C 
HETATM    3  O   UNL     1      42.873 -12.549   4.475  1.00  0.00    -0.265 OA
HETATM    4  C   UNL     1      42.075 -13.420   2.373  1.00  0.00     0.156 C 
HETATM    5  C   UNL     1      41.567 -14.615   2.081  1.00  0.00     0.060 C 
HETATM    6  C   UNL     1      41.514 -15.557   3.224  1.00  0.00     0.161 C 
HETATM    7  O   UNL     1      42.340 -12.395   1.510  1.00  0.00    -0.303 OA
HETATM    8  C   UNL     1      42.146 -12.677   0.172  1.00  0.00     0.090 A 
HETATM    9  C   UNL     1      41.577 -13.881  -0.280  1.00  0.00     0.051 A 
HETATM   10  C   UNL     1      41.176 -14.904   0.709  1.00  0.00     0.196 C 
HETATM   11  O   UNL     1      40.565 -15.919   0.417  1.00  0.00    -0.287 OA
HETATM   12  C   UNL     1      42.556 -11.713  -0.748  1.00  0.00     0.041 A 
HETATM   13  C   UNL     1      42.405 -11.961  -2.115  1.00  0.00     0.045 A 
HETATM   14  C   UNL     1      41.840 -13.159  -2.547  1.00  0.00     0.117 A 
HETATM   15  F   UNL     1      41.709 -13.386  -3.860  1.00  0.00    -0.206 F 
HETATM   16  C   UNL     1      41.416 -14.124  -1.643  1.00  0.00     0.060 A 
ENDROOT
BRANCH   6  17
HETATM   17  C   UNL     1      42.458 -16.732   3.039  1.00  0.00    -0.030 A 
HETATM   18  C   UNL     1      43.530 -16.695   2.125  1.00  0.00     0.012 A 
HETATM   19  C   UNL     1      44.319 -17.827   1.900  1.00  0.00     0.037 A 
HETATM   20  C   UNL     1      44.041 -19.000   2.591  1.00  0.00     0.065 A 
HETATM   21  C   UNL     1      42.999 -19.056   3.506  1.00  0.00     0.037 A 
HETATM   22  C   UNL     1      42.205 -17.930   3.726  1.00  0.00     0.012 A 
BRANCH  20  23
HETATM   23  O   UNL     1      44.768 -20.134   2.386  1.00  0.00    -0.361 OA
HETATM   24  H   UNL     1      44.594 -20.467   1.490  1.00  0.00     0.217 HD
ENDBRANCH  20  23
ENDBRANCH   6  17
BRANCH   1  25
HETATM   25  C   UNL     1      42.166 -15.108   5.666  1.00  0.00     0.155 C 
BRANCH  25  26
HETATM   26  C   UNL     1      43.657 -15.401   5.940  1.00  0.00     0.254 C 
BRANCH  26  27
HETATM   27  N   UNL     1      43.844 -16.533   6.939  1.00  0.00    -0.077 N 
HETATM   28  C   UNL     1      44.820 -17.585   6.492  1.00  0.00     0.269 C 
HETATM   29  H   UNL     1      44.209 -16.113   7.805  1.00  0.00     0.279 HD
HETATM   30  C   UNL     1      42.517 -17.147   7.311  1.00  0.00     0.269 C 
ENDBRANCH  26  27
ENDBRANCH  25  26
ENDBRANCH   1  25
TORSDOF 5
ENDMDL
MODEL 5
REMARK VINA RESULT:      -7.5      3.815      7.611
REMARK  5 active torsions:
REMARK  status: ('A' for Active; 'I' for Inactive)
REMARK    1  A    between atoms: N_2  and  C_4 
REMARK    2  A    between atoms: C_4  and  C_5 
REMARK    3  A    between atoms: C_5  and  N_6 
REMARK    4  A    between atoms: C_11  and  C_12 
REMARK    5  A    between atoms: C_15  and  O_16 
ROOT
HETATM    1  N   UNL     1      42.161 -14.502   4.495  1.00  0.00    -0.332 N 
HETATM    2  C   UNL     1      41.496 -13.467   5.146  1.00  0.00     0.279 C 
HETATM    3  O   UNL     1      40.368 -13.079   4.900  1.00  0.00    -0.265 OA
HETATM    4  C   UNL     1      42.410 -12.947   6.175  1.00  0.00     0.156 C 
HETATM    5  C   UNL     1      43.496 -13.716   6.130  1.00  0.00     0.060 C 
HETATM    6  C   UNL     1      43.416 -14.838   5.166  1.00  0.00     0.161 C 
HETATM    7  O   UNL     1      42.158 -11.912   7.030  1.00  0.00    -0.303 OA
HETATM    8  C   UNL     1      43.101 -11.712   8.019  1.00  0.00     0.090 A 
HETATM    9  C   UNL     1      44.314 -12.421   8.071  1.00  0.00     0.051 A 
HETATM   10  C   UNL     1      44.601 -13.436   7.035  1.00  0.00     0.196 C 
HETATM   11  O   UNL     1      45.675 -14.005   6.931  1.00  0.00    -0.287 OA
HETATM   12  C   UNL     1      42.801 -10.772   9.004  1.00  0.00     0.041 A 
HETATM   13  C   UNL     1      43.711 -10.551  10.041  1.00  0.00     0.045 A 
HETATM   14  C   UNL     1      44.910 -11.261  10.079  1.00  0.00     0.117 A 
HETATM   15  F   UNL     1      45.768 -11.045  11.083  1.00  0.00    -0.206 F 
HETATM   16  C   UNL     1      45.228 -12.193   9.100  1.00  0.00     0.060 A 
ENDROOT
BRANCH   6  17
HETATM   17  C   UNL     1      43.390 -16.187   5.862  1.00  0.00    -0.030 A 
HETATM   18  C   UNL     1      42.667 -16.403   7.053  1.00  0.00     0.012 A 
HETATM   19  C   UNL     1      42.745 -17.624   7.727  1.00  0.00     0.037 A 
HETATM   20  C   UNL     1      43.546 -18.637   7.214  1.00  0.00     0.065 A 
HETATM   21  C   UNL     1      44.257 -18.453   6.037  1.00  0.00     0.037 A 
HETATM   22  C   UNL     1      44.187 -17.231   5.365  1.00  0.00     0.012 A 
BRANCH  20  23
HETATM   23  O   UNL     1      43.672 -19.835   7.851  1.00  0.00    -0.361 OA
HETATM   24  H   UNL     1      44.318 -19.748   8.571  1.00  0.00     0.217 HD
ENDBRANCH  20  23
ENDBRANCH   6  17
BRANCH   1  25
HETATM   25  C   UNL     1      41.512 -15.377   3.531  1.00  0.00     0.155 C 
BRANCH  25  26
HETATM   26  C   UNL     1      42.347 -15.613   2.255  1.00  0.00     0.254 C 
BRANCH  26  27
HETATM   27  N   UNL     1      42.620 -17.091   2.014  1.00  0.00    -0.077 N 
HETATM   28  C   UNL     1      43.929 -17.365   1.330  1.00  0.00     0.269 C 
HETATM   29  H   UNL     1      42.647 -17.546   2.937  1.00  0.00     0.279 HD
HETATM   30  C   UNL     1      41.475 -17.736   1.275  1.00  0.00     0.269 C 
ENDBRANCH  26  27
ENDBRANCH  25  26
ENDBRANCH   1  25
TORSDOF 5
ENDMDL
MODEL 6
REMARK VINA RESULT:      -7.3      0.996      1.394
REMARK  5 active torsions:
REMARK  status: ('A' for Active; 'I' for Inactive)
REMARK    1  A    between atoms: N_2  and  C_4 
REMARK    2  A    between atoms: C_4  and  C_5 
REMARK    3  A    between atoms: C_5  and  N_6 
REMARK    4  A    between atoms: C_11  and  C_12 
REMARK    5  A    between atoms: C_15  and  O_16 
ROOT
HETATM    1  N   UNL     1      42.378 -13.194   3.942  1.00  0.00    -0.332 N 
HETATM    2  C   UNL     1      42.817 -14.074   4.928  1.00  0.00     0.279 C 
HETATM    3  O   UNL     1      42.871 -13.837   6.121  1.00  0.00    -0.265 OA
HETATM    4  C   UNL     1      43.191 -15.326   4.252  1.00  0.00     0.156 C 
HETATM    5  C   UNL     1      42.899 -15.155   2.965  1.00  0.00     0.060 C 
HETATM    6  C   UNL     1      42.253 -13.860   2.647  1.00  0.00     0.161 C 
HETATM    7  O   UNL     1      43.692 -16.447   4.851  1.00  0.00    -0.303 OA
HETATM    8  C   UNL     1      43.813 -17.555   4.035  1.00  0.00     0.090 A 
HETATM    9  C   UNL     1      43.580 -17.512   2.649  1.00  0.00     0.051 A 
HETATM   10  C   UNL     1      43.175 -16.233   2.026  1.00  0.00     0.196 C 
HETATM   11  O   UNL     1      43.073 -16.075   0.820  1.00  0.00    -0.287 OA
HETATM   12  C   UNL     1      44.167 -18.758   4.643  1.00  0.00     0.041 A 
HETATM   13  C   UNL     1      44.278 -19.914   3.866  1.00  0.00     0.045 A 
HETATM   14  C   UNL     1      44.043 -19.855   2.493  1.00  0.00     0.117 A 
HETATM   15  F   UNL     1      44.145 -20.972   1.762  1.00  0.00    -0.206 F 
HETATM   16  C   UNL     1      43.700 -18.662   1.870  1.00  0.00     0.060 A 
ENDROOT
BRANCH   6  17
HETATM   17  C   UNL     1      40.816 -14.037   2.189  1.00  0.00    -0.030 A 
HETATM   18  C   UNL     1      40.057 -15.176   2.526  1.00  0.00     0.012 A 
HETATM   19  C   UNL     1      38.773 -15.361   2.006  1.00  0.00     0.037 A 
HETATM   20  C   UNL     1      38.241 -14.407   1.148  1.00  0.00     0.065 A 
HETATM   21  C   UNL     1      38.964 -13.271   0.811  1.00  0.00     0.037 A 
HETATM   22  C   UNL     1      40.250 -13.088   1.324  1.00  0.00     0.012 A 
BRANCH  20  23
HETATM   23  O   UNL     1      37.004 -14.558   0.597  1.00  0.00    -0.361 OA
HETATM   24  H   UNL     1      36.333 -14.262   1.234  1.00  0.00     0.217 HD
ENDBRANCH  20  23
ENDBRANCH   6  17
BRANCH   1  25
HETATM   25  C   UNL     1      41.758 -11.913   4.244  1.00  0.00     0.155 C 
BRANCH  25  26
HETATM   26  C   UNL     1      40.560 -12.024   5.211  1.00  0.00     0.254 C 
BRANCH  26  27
HETATM   27  N   UNL     1      40.791 -11.246   6.499  1.00  0.00    -0.077 N 
HETATM   28  C   UNL     1      39.589 -11.189   7.400  1.00  0.00     0.269 C 
HETATM   29  H   UNL     1      41.543 -11.728   7.010  1.00  0.00     0.279 HD
HETATM   30  C   UNL     1      41.317  -9.864   6.206  1.00  0.00     0.269 C 
ENDBRANCH  26  27
ENDBRANCH  25  26
ENDBRANCH   1  25
TORSDOF 5
ENDMDL
MODEL 7
REMARK VINA RESULT:      -7.2      1.743      2.357
REMARK  5 active torsions:
REMARK  status: ('A' for Active; 'I' for Inactive)
REMARK    1  A    between atoms: N_2  and  C_4 
REMARK    2  A    between atoms: C_4  and  C_5 
REMARK    3  A    between atoms: C_5  and  N_6 
REMARK    4  A    between atoms: C_11  and  C_12 
REMARK    5  A    between atoms: C_15  and  O_16 
ROOT
HETATM    1  N   UNL     1      43.468 -15.565   5.087  1.00  0.00    -0.332 N 
HETATM    2  C   UNL     1      43.703 -16.743   5.790  1.00  0.00     0.279 C 
HETATM    3  O   UNL     1      43.709 -16.861   7.002  1.00  0.00    -0.265 OA
HETATM    4  C   UNL     1      43.933 -17.801   4.793  1.00  0.00     0.156 C 
HETATM    5  C   UNL     1      43.759 -17.233   3.602  1.00  0.00     0.060 C 
HETATM    6  C   UNL     1      43.336 -15.814   3.653  1.00  0.00     0.161 C 
HETATM    7  O   UNL     1      44.219 -19.110   5.057  1.00  0.00    -0.303 OA
HETATM    8  C   UNL     1      44.230 -19.951   3.961  1.00  0.00     0.090 A 
HETATM    9  C   UNL     1      44.102 -19.485   2.640  1.00  0.00     0.051 A 
HETATM   10  C   UNL     1      43.935 -18.036   2.400  1.00  0.00     0.196 C 
HETATM   11  O   UNL     1      43.941 -17.533   1.288  1.00  0.00    -0.287 OA
HETATM   12  C   UNL     1      44.359 -21.317   4.208  1.00  0.00     0.041 A 
HETATM   13  C   UNL     1      44.350 -22.212   3.135  1.00  0.00     0.045 A 
HETATM   14  C   UNL     1      44.222 -21.735   1.831  1.00  0.00     0.117 A 
HETATM   15  F   UNL     1      44.207 -22.604   0.814  1.00  0.00    -0.206 F 
HETATM   16  C   UNL     1      44.103 -20.376   1.568  1.00  0.00     0.060 A 
ENDROOT
BRANCH   6  17
HETATM   17  C   UNL     1      41.923 -15.621   3.130  1.00  0.00    -0.030 A 
HETATM   18  C   UNL     1      40.995 -16.680   3.068  1.00  0.00     0.012 A 
HETATM   19  C   UNL     1      39.737 -16.498   2.487  1.00  0.00     0.037 A 
HETATM   20  C   UNL     1      39.400 -15.255   1.966  1.00  0.00     0.065 A 
HETATM   21  C   UNL     1      40.292 -14.193   2.026  1.00  0.00     0.037 A 
HETATM   22  C   UNL     1      41.552 -14.375   2.600  1.00  0.00     0.012 A 
BRANCH  20  23
HETATM   23  O   UNL     1      38.195 -15.039   1.368  1.00  0.00    -0.361 OA
HETATM   24  H   UNL     1      38.238 -14.217   0.852  1.00  0.00     0.217 HD
ENDBRANCH  20  23
ENDBRANCH   6  17
BRANCH   1  25
HETATM   25  C   UNL     1      43.026 -14.336   5.728  1.00  0.00     0.155 C 
BRANCH  25  26
HETATM   26  C   UNL     1      43.535 -14.181   7.177  1.00  0.00     0.254 C 
BRANCH  26  27
HETATM   27  N   UNL     1      44.605 -13.106   7.296  1.00  0.00    -0.077 N 
HETATM   28  C   UNL     1      45.945 -13.516   6.752  1.00  0.00     0.269 C 
HETATM   29  H   UNL     1      44.280 -12.296   6.749  1.00  0.00     0.279 HD
HETATM   30  C   UNL     1      44.722 -12.617   8.717  1.00  0.00     0.269 C 
ENDBRANCH  26  27
ENDBRANCH  25  26
ENDBRANCH   1  25
TORSDOF 5
ENDMDL
MODEL 8
REMARK VINA RESULT:      -7.2      3.595      6.850
REMARK  5 active torsions:
REMARK  status: ('A' for Active; 'I' for Inactive)
REMARK    1  A    between atoms: N_2  and  C_4 
REMARK    2  A    between atoms: C_4  and  C_5 
REMARK    3  A    between atoms: C_5  and  N_6 
REMARK    4  A    between atoms: C_11  and  C_12 
REMARK    5  A    between atoms: C_15  and  O_16 
ROOT
HETATM    1  N   UNL     1      43.727 -16.168   6.383  1.00  0.00    -0.332 N 
HETATM    2  C   UNL     1      43.997 -14.840   6.704  1.00  0.00     0.279 C 
HETATM    3  O   UNL     1      45.027 -14.423   7.202  1.00  0.00    -0.265 OA
HETATM    4  C   UNL     1      42.811 -14.055   6.323  1.00  0.00     0.156 C 
HETATM    5  C   UNL     1      41.966 -14.912   5.755  1.00  0.00     0.060 C 
HETATM    6  C   UNL     1      42.485 -16.293   5.620  1.00  0.00     0.161 C 
HETATM    7  O   UNL     1      42.649 -12.709   6.485  1.00  0.00    -0.303 OA
HETATM    8  C   UNL     1      41.520 -12.170   5.901  1.00  0.00     0.090 A 
HETATM    9  C   UNL     1      40.520 -12.957   5.303  1.00  0.00     0.051 A 
HETATM   10  C   UNL     1      40.678 -14.427   5.279  1.00  0.00     0.196 C 
HETATM   11  O   UNL     1      39.807 -15.191   4.895  1.00  0.00    -0.287 OA
HETATM   12  C   UNL     1      41.401 -10.781   5.907  1.00  0.00     0.041 A 
HETATM   13  C   UNL     1      40.290 -10.185   5.307  1.00  0.00     0.045 A 
HETATM   14  C   UNL     1      39.307 -10.978   4.717  1.00  0.00     0.117 A 
HETATM   15  F   UNL     1      38.252 -10.393   4.138  1.00  0.00    -0.206 F 
HETATM   16  C   UNL     1      39.405 -12.363   4.713  1.00  0.00     0.060 A 
ENDROOT
BRANCH   6  17
HETATM   17  C   UNL     1      42.700 -16.682   4.168  1.00  0.00    -0.030 A 
HETATM   18  C   UNL     1      42.267 -17.921   3.652  1.00  0.00     0.012 A 
HETATM   19  C   UNL     1      42.570 -18.295   2.340  1.00  0.00     0.037 A 
HETATM   20  C   UNL     1      43.306 -17.434   1.537  1.00  0.00     0.065 A 
HETATM   21  C   UNL     1      43.733 -16.204   2.019  1.00  0.00     0.037 A 
HETATM   22  C   UNL     1      43.438 -15.830   3.331  1.00  0.00     0.012 A 
BRANCH  20  23
HETATM   23  O   UNL     1      43.646 -17.768   0.261  1.00  0.00    -0.361 OA
HETATM   24  H   UNL     1      44.560 -17.489   0.090  1.00  0.00     0.217 HD
ENDBRANCH  20  23
ENDBRANCH   6  17
BRANCH   1  25
HETATM   25  C   UNL     1      44.731 -17.218   6.450  1.00  0.00     0.155 C 
BRANCH  25  26
HETATM   26  C   UNL     1      44.301 -18.425   7.309  1.00  0.00     0.254 C 
BRANCH  26  27
HETATM   27  N   UNL     1      43.828 -19.595   6.458  1.00  0.00    -0.077 N 
HETATM   28  C   UNL     1      43.601 -20.861   7.234  1.00  0.00     0.269 C 
HETATM   29  H   UNL     1      42.929 -19.317   6.039  1.00  0.00     0.279 HD
HETATM   30  C   UNL     1      44.763 -19.828   5.297  1.00  0.00     0.269 C 
ENDBRANCH  26  27
ENDBRANCH  25  26
ENDBRANCH   1  25
TORSDOF 5
ENDMDL
MODEL 9
REMARK VINA RESULT:      -7.1      3.150      5.786
REMARK  5 active torsions:
REMARK  status: ('A' for Active; 'I' for Inactive)
REMARK    1  A    between atoms: N_2  and  C_4 
REMARK    2  A    between atoms: C_4  and  C_5 
REMARK    3  A    between atoms: C_5  and  N_6 
REMARK    4  A    between atoms: C_11  and  C_12 
REMARK    5  A    between atoms: C_15  and  O_16 
ROOT
HETATM    1  N   UNL     1      42.871 -16.218   4.638  1.00  0.00    -0.332 N 
HETATM    2  C   UNL     1      42.411 -17.048   3.619  1.00  0.00     0.279 C 
HETATM    3  O   UNL     1      42.194 -18.243   3.716  1.00  0.00    -0.265 OA
HETATM    4  C   UNL     1      42.239 -16.208   2.423  1.00  0.00     0.156 C 
HETATM    5  C   UNL     1      42.524 -14.964   2.800  1.00  0.00     0.060 C 
HETATM    6  C   UNL     1      42.833 -14.812   4.241  1.00  0.00     0.161 C 
HETATM    7  O   UNL     1      41.822 -16.631   1.193  1.00  0.00    -0.303 OA
HETATM    8  C   UNL     1      41.578 -15.632   0.271  1.00  0.00     0.090 A 
HETATM    9  C   UNL     1      41.872 -14.279   0.515  1.00  0.00     0.051 A 
HETATM   10  C   UNL     1      42.456 -13.891   1.817  1.00  0.00     0.196 C 
HETATM   11  O   UNL     1      42.856 -12.766   2.067  1.00  0.00    -0.287 OA
HETATM   12  C   UNL     1      41.000 -16.011  -0.940  1.00  0.00     0.041 A 
HETATM   13  C   UNL     1      40.709 -15.035  -1.897  1.00  0.00     0.045 A 
HETATM   14  C   UNL     1      41.006 -13.697  -1.640  1.00  0.00     0.117 A 
HETATM   15  F   UNL     1      40.715 -12.773  -2.562  1.00  0.00    -0.206 F 
HETATM   16  C   UNL     1      41.592 -13.305  -0.443  1.00  0.00     0.060 A 
ENDROOT
BRANCH   6  17
HETATM   17  C   UNL     1      41.773 -14.003   4.969  1.00  0.00    -0.030 A 
HETATM   18  C   UNL     1      40.405 -14.339   4.915  1.00  0.00     0.012 A 
HETATM   19  C   UNL     1      39.442 -13.517   5.507  1.00  0.00     0.037 A 
HETATM   20  C   UNL     1      39.842 -12.358   6.159  1.00  0.00     0.065 A 
HETATM   21  C   UNL     1      41.184 -12.013   6.237  1.00  0.00     0.037 A 
HETATM   22  C   UNL     1      42.147 -12.827   5.639  1.00  0.00     0.012 A 
BRANCH  20  23
HETATM   23  O   UNL     1      38.936 -11.515   6.730  1.00  0.00    -0.361 OA
HETATM   24  H   UNL     1      39.233 -11.286   7.626  1.00  0.00     0.217 HD
ENDBRANCH  20  23
ENDBRANCH   6  17
BRANCH   1  25
HETATM   25  C   UNL     1      42.989 -16.655   6.020  1.00  0.00     0.155 C 
BRANCH  25  26
HETATM   26  C   UNL     1      44.441 -16.650   6.544  1.00  0.00     0.254 C 
BRANCH  26  27
HETATM   27  N   UNL     1      44.946 -18.054   6.846  1.00  0.00    -0.077 N 
HETATM   28  C   UNL     1      44.946 -18.971   5.656  1.00  0.00     0.269 C 
HETATM   29  H   UNL     1      45.918 -17.960   7.171  1.00  0.00     0.279 HD
HETATM   30  C   UNL     1      44.187 -18.661   8.000  1.00  0.00     0.269 C 
ENDBRANCH  26  27
ENDBRANCH  25  26
ENDBRANCH   1  25
TORSDOF 5
ENDMDL
MODEL 10
REMARK VINA RESULT:      -7.1      2.080      4.284
REMARK  5 active torsions:
REMARK  status: ('A' for Active; 'I' for Inactive)
REMARK    1  A    between atoms: N_2  and  C_4 
REMARK    2  A    between atoms: C_4  and  C_5 
REMARK    3  A    between atoms: C_5  and  N_6 
REMARK    4  A    between atoms: C_11  and  C_12 
REMARK    5  A    between atoms: C_15  and  O_16 
ROOT
HETATM    1  N   UNL     1      40.876 -15.560   3.968  1.00  0.00    -0.332 N 
HETATM    2  C   UNL     1      41.111 -16.246   2.780  1.00  0.00     0.279 C 
HETATM    3  O   UNL     1      40.759 -15.889   1.669  1.00  0.00    -0.265 OA
HETATM    4  C   UNL     1      41.859 -17.465   3.127  1.00  0.00     0.156 C 
HETATM    5  C   UNL     1      42.081 -17.403   4.437  1.00  0.00     0.060 C 
HETATM    6  C   UNL     1      41.601 -16.161   5.086  1.00  0.00     0.161 C 
HETATM    7  O   UNL     1      42.276 -18.431   2.256  1.00  0.00    -0.303 OA
HETATM    8  C   UNL     1      43.105 -19.398   2.790  1.00  0.00     0.090 A 
HETATM    9  C   UNL     1      43.393 -19.482   4.164  1.00  0.00     0.051 A 
HETATM   10  C   UNL     1      42.800 -18.491   5.087  1.00  0.00     0.196 C 
HETATM   11  O   UNL     1      42.894 -18.562   6.301  1.00  0.00    -0.287 OA
HETATM   12  C   UNL     1      43.678 -20.306   1.902  1.00  0.00     0.041 A 
HETATM   13  C   UNL     1      44.544 -21.288   2.389  1.00  0.00     0.045 A 
HETATM   14  C   UNL     1      44.821 -21.359   3.754  1.00  0.00     0.117 A 
HETATM   15  F   UNL     1      45.659 -22.300   4.205  1.00  0.00    -0.206 F 
HETATM   16  C   UNL     1      44.249 -20.469   4.652  1.00  0.00     0.060 A 
ENDROOT
BRANCH   6  17
HETATM   17  C   UNL     1      42.747 -15.305   5.598  1.00  0.00    -0.030 A 
HETATM   18  C   UNL     1      43.511 -14.486   4.742  1.00  0.00     0.012 A 
HETATM   19  C   UNL     1      44.624 -13.791   5.222  1.00  0.00     0.037 A 
HETATM   20  C   UNL     1      44.977 -13.908   6.561  1.00  0.00     0.065 A 
HETATM   21  C   UNL     1      44.232 -14.698   7.426  1.00  0.00     0.037 A 
HETATM   22  C   UNL     1      43.125 -15.400   6.947  1.00  0.00     0.012 A 
BRANCH  20  23
HETATM   23  O   UNL     1      46.068 -13.268   7.067  1.00  0.00    -0.361 OA
HETATM   24  H   UNL     1      45.795 -12.410   7.430  1.00  0.00     0.217 HD
ENDBRANCH  20  23
ENDBRANCH   6  17
BRANCH   1  25
HETATM   25  C   UNL     1      40.315 -14.218   4.009  1.00  0.00     0.155 C 
BRANCH  25  26
HETATM   26  C   UNL     1      39.605 -13.889   5.340  1.00  0.00     0.254 C 
BRANCH  26  27
HETATM   27  N   UNL     1      39.070 -12.465   5.366  1.00  0.00    -0.077 N 
HETATM   28  C   UNL     1      39.114 -11.773   4.034  1.00  0.00     0.269 C 
HETATM   29  H   UNL     1      38.084 -12.519   5.659  1.00  0.00     0.279 HD
HETATM   30  C   UNL     1      39.765 -11.649   6.427  1.00  0.00     0.269 C 
ENDBRANCH  26  27
ENDBRANCH  25  26
ENDBRANCH   1  25
TORSDOF 5
ENDMDL
