MODEL 1
REMARK VINA RESULT:      -9.1      0.000      0.000
REMARK  9 active torsions:
REMARK  status: ('A' for Active; 'I' for Inactive)
REMARK    1  A    between atoms: C_2  and  C_3 
REMARK    2  A    between atoms: C_3  and  O_4 
REMARK    3  A    between atoms: O_4  and  C_5 
REMARK    4  A    between atoms: C_6  and  C_7 
REMARK    5  A    between atoms: C_7  and  N_8 
REMARK    6  A    between atoms: C_17  and  C_18 
REMARK    7  A    between atoms: C_18  and  N_19 
REMARK    8  A    between atoms: C_23  and  O_24 
REMARK    9  A    between atoms: C_23  and  C_25 
ROOT
HETATM    1  N   UNL     1      41.162  -9.524   9.451  1.00  0.00    -0.061 N 
HETATM    2  H   UNL     1      41.704  -8.765   9.878  1.00  0.00     0.280 HD
HETATM    3  C   UNL     1      41.639  -9.577   8.018  1.00  0.00     0.276 C 
HETATM    4  C   UNL     1      41.100 -10.708   7.188  1.00  0.00     0.002 A 
HETATM    5  C   UNL     1      39.733 -10.784   6.917  1.00  0.00     0.076 A 
HETATM    6  O   UNL     1      38.865  -9.854   7.416  1.00  0.00    -0.349 OA
HETATM    7  C   UNL     1      38.722  -9.981   8.838  1.00  0.00     0.203 C 
HETATM    8  C   UNL     1      39.713  -9.076   9.579  1.00  0.00     0.262 C 
HETATM    9  C   UNL     1      41.947 -11.689   6.640  1.00  0.00     0.020 A 
HETATM   10  C   UNL     1      41.436 -12.731   5.842  1.00  0.00    -0.032 A 
HETATM   11  C   UNL     1      40.062 -12.750   5.559  1.00  0.00     0.011 A 
HETATM   12  C   UNL     1      39.218 -11.774   6.086  1.00  0.00     0.038 A 
ENDROOT
BRANCH  10  13
HETATM   13  C   UNL     1      42.327 -13.837   5.333  1.00  0.00     0.273 C 
BRANCH  13  14
HETATM   14  N   UNL     1      42.523 -14.991   6.295  1.00  0.00    -0.067 N 
HETATM   15  H   UNL     1      42.350 -14.621   7.242  1.00  0.00     0.280 HD
HETATM   16  C   UNL     1      41.535 -16.107   6.060  1.00  0.00     0.238 C 
HETATM   17  C   UNL     1      41.802 -17.272   7.002  1.00  0.00     0.071 C 
HETATM   18  C   UNL     1      43.246 -17.805   6.901  1.00  0.00     0.089 C 
HETATM   19  C   UNL     1      44.163 -16.611   7.230  1.00  0.00     0.071 C 
HETATM   20  C   UNL     1      43.962 -15.463   6.258  1.00  0.00     0.238 C 
BRANCH  18  21
HETATM   21  O   UNL     1      43.402 -18.741   7.967  1.00  0.00    -0.385 OA
HETATM   22  H   UNL     1      44.348 -18.913   8.134  1.00  0.00     0.211 HD
ENDBRANCH  18  21
BRANCH  18  23
HETATM   23  C   UNL     1      43.604 -18.502   5.592  1.00  0.00    -0.006 A 
HETATM   24  C   UNL     1      44.710 -19.342   5.463  1.00  0.00     0.126 A 
HETATM   25  N   UNL     1      45.026 -20.037   4.349  1.00  0.00    -0.272 NA
HETATM   26  C   UNL     1      44.267 -19.831   3.255  1.00  0.00     0.116 A 
HETATM   27  C   UNL     1      43.188 -18.971   3.240  1.00  0.00     0.020 A 
HETATM   28  C   UNL     1      42.859 -18.300   4.418  1.00  0.00     0.013 A 
ENDBRANCH  18  23
ENDBRANCH  13  14
ENDBRANCH  10  13
BRANCH   1  29
HETATM   29  C   UNL     1      41.487 -10.752  10.289  1.00  0.00     0.276 C 
BRANCH  29  30
HETATM   30  C   UNL     1      41.899 -10.452  11.710  1.00  0.00     0.001 A 
HETATM   31  C   UNL     1      43.214 -10.042  12.014  1.00  0.00     0.077 A 
HETATM   32  C   UNL     1      43.562  -9.762  13.338  1.00  0.00     0.037 A 
HETATM   33  C   UNL     1      42.618  -9.888  14.359  1.00  0.00     0.003 A 
HETATM   34  C   UNL     1      41.326 -10.313  14.071  1.00  0.00     0.001 A 
HETATM   35  C   UNL     1      40.968 -10.605  12.756  1.00  0.00     0.012 A 
BRANCH  31  36
HETATM   36  O   UNL     1      44.068  -9.954  10.948  1.00  0.00    -0.347 OA
BRANCH  36  37
HETATM   37  C   UNL     1      45.068 -10.956  10.746  1.00  0.00     0.202 C 
BRANCH  37  38
HETATM   38  C   UNL     1      45.158 -11.361   9.310  1.00  0.00    -0.011 C 
HETATM   39  C   UNL     1      44.760 -12.547   8.831  1.00  0.00     0.009 C 
ENDBRANCH  37  38
ENDBRANCH  36  37
ENDBRANCH  31  36
ENDBRANCH  29  30
ENDBRANCH   1  29
TORSDOF 9
ENDMDL
MODEL 2
REMARK VINA RESULT:      -8.8      2.818      9.163
REMARK  9 active torsions:
REMARK  status: ('A' for Active; 'I' for Inactive)
REMARK    1  A    between atoms: C_2  and  C_3 
REMARK    2  A    between atoms: C_3  and  O_4 
REMARK    3  A    between atoms: O_4  and  C_5 
REMARK    4  A    between atoms: C_6  and  C_7 
REMARK    5  A    between atoms: C_7  and  N_8 
REMARK    6  A    between atoms: C_17  and  C_18 
REMARK    7  A    between atoms: C_18  and  N_19 
REMARK    8  A    between atoms: C_23  and  O_24 
REMARK    9  A    between atoms: C_23  and  C_25 
ROOT
HETATM    1  N   UNL     1      41.555 -16.883   1.355  1.00  0.00    -0.061 N 
HETATM    2  H   UNL     1      41.559 -17.887   1.147  1.00  0.00     0.280 HD
HETATM    3  C   UNL     1      40.358 -16.683   2.256  1.00  0.00     0.276 C 
HETATM    4  C   UNL     1      40.193 -15.304   2.832  1.00  0.00     0.002 A 
HETATM    5  C   UNL     1      39.955 -14.220   1.987  1.00  0.00     0.076 A 
HETATM    6  O   UNL     1      39.891 -14.386   0.631  1.00  0.00    -0.349 OA
HETATM    7  C   UNL     1      41.180 -14.698   0.081  1.00  0.00     0.203 C 
HETATM    8  C   UNL     1      41.396 -16.213  -0.002  1.00  0.00     0.262 C 
HETATM    9  C   UNL     1      40.239 -15.075   4.220  1.00  0.00     0.020 A 
HETATM   10  C   UNL     1      40.057 -13.783   4.752  1.00  0.00    -0.032 A 
HETATM   11  C   UNL     1      39.780 -12.726   3.872  1.00  0.00     0.011 A 
HETATM   12  C   UNL     1      39.718 -12.947   2.497  1.00  0.00     0.038 A 
ENDROOT
BRANCH  10  13
HETATM   13  C   UNL     1      40.201 -13.517   6.230  1.00  0.00     0.273 C 
BRANCH  13  14
HETATM   14  N   UNL     1      40.195 -12.053   6.617  1.00  0.00    -0.067 N 
HETATM   15  H   UNL     1      39.732 -11.545   5.850  1.00  0.00     0.280 HD
HETATM   16  C   UNL     1      39.400 -11.796   7.873  1.00  0.00     0.238 C 
HETATM   17  C   UNL     1      39.469 -10.327   8.265  1.00  0.00     0.071 C 
HETATM   18  C   UNL     1      40.915  -9.820   8.434  1.00  0.00     0.089 C 
HETATM   19  C   UNL     1      41.611 -10.061   7.080  1.00  0.00     0.071 C 
HETATM   20  C   UNL     1      41.614 -11.530   6.704  1.00  0.00     0.238 C 
BRANCH  18  21
HETATM   21  O   UNL     1      40.826  -8.404   8.597  1.00  0.00    -0.385 OA
HETATM   22  H   UNL     1      41.599  -8.068   9.089  1.00  0.00     0.211 HD
ENDBRANCH  18  21
BRANCH  18  23
HETATM   23  C   UNL     1      41.683 -10.393   9.621  1.00  0.00    -0.006 A 
HETATM   24  C   UNL     1      41.066 -10.735  10.824  1.00  0.00     0.126 A 
HETATM   25  N   UNL     1      41.689 -11.312  11.875  1.00  0.00    -0.272 NA
HETATM   26  C   UNL     1      43.022 -11.487  11.784  1.00  0.00     0.116 A 
HETATM   27  C   UNL     1      43.753 -11.125  10.672  1.00  0.00     0.020 A 
HETATM   28  C   UNL     1      43.076 -10.570   9.585  1.00  0.00     0.013 A 
ENDBRANCH  18  23
ENDBRANCH  13  14
ENDBRANCH  10  13
BRANCH   1  29
HETATM   29  C   UNL     1      42.906 -16.615   2.001  1.00  0.00     0.276 C 
BRANCH  29  30
HETATM   30  C   UNL     1      43.479 -17.783   2.768  1.00  0.00     0.001 A 
HETATM   31  C   UNL     1      43.533 -17.771   4.177  1.00  0.00     0.077 A 
HETATM   32  C   UNL     1      44.059 -18.872   4.858  1.00  0.00     0.037 A 
HETATM   33  C   UNL     1      44.534 -19.979   4.152  1.00  0.00     0.003 A 
HETATM   34  C   UNL     1      44.506 -19.989   2.762  1.00  0.00     0.001 A 
HETATM   35  C   UNL     1      43.992 -18.894   2.071  1.00  0.00     0.012 A 
BRANCH  31  36
HETATM   36  O   UNL     1      43.049 -16.641   4.779  1.00  0.00    -0.347 OA
BRANCH  36  37
HETATM   37  C   UNL     1      43.639 -16.167   5.993  1.00  0.00     0.202 C 
BRANCH  37  38
HETATM   38  C   UNL     1      43.862 -14.689   5.955  1.00  0.00    -0.011 C 
HETATM   39  C   UNL     1      43.766 -13.937   4.850  1.00  0.00     0.009 C 
ENDBRANCH  37  38
ENDBRANCH  36  37
ENDBRANCH  31  36
ENDBRANCH  29  30
ENDBRANCH   1  29
TORSDOF 9
ENDMDL
MODEL 3
REMARK VINA RESULT:      -8.7      2.764      9.304
REMARK  9 active torsions:
REMARK  status: ('A' for Active; 'I' for Inactive)
REMARK    1  A    between atoms: C_2  and  C_3 
REMARK    2  A    between atoms: C_3  and  O_4 
REMARK    3  A    between atoms: O_4  and  C_5 
REMARK    4  A    between atoms: C_6  and  C_7 
REMARK    5  A    between atoms: C_7  and  N_8 
REMARK    6  A    between atoms: C_17  and  C_18 
REMARK    7  A    between atoms: C_18  and  N_19 
REMARK    8  A    between atoms: C_23  and  O_24 
REMARK    9  A    between atoms: C_23  and  C_25 
ROOT
HETATM    1  N   UNL     1      42.079 -16.588   2.050  1.00  0.00    -0.061 N 
HETATM    2  H   UNL     1      42.212 -17.591   1.878  1.00  0.00     0.280 HD
HETATM    3  C   UNL     1      40.777 -16.500   2.813  1.00  0.00     0.276 C 
HETATM    4  C   UNL     1      40.405 -15.134   3.320  1.00  0.00     0.002 A 
HETATM    5  C   UNL     1      40.148 -14.102   2.418  1.00  0.00     0.076 A 
HETATM    6  O   UNL     1      40.250 -14.304   1.070  1.00  0.00    -0.349 OA
HETATM    7  C   UNL     1      41.617 -14.486   0.671  1.00  0.00     0.203 C 
HETATM    8  C   UNL     1      41.999 -15.970   0.662  1.00  0.00     0.262 C 
HETATM    9  C   UNL     1      40.275 -14.871   4.696  1.00  0.00     0.020 A 
HETATM   10  C   UNL     1      39.901 -13.595   5.162  1.00  0.00    -0.032 A 
HETATM   11  C   UNL     1      39.611 -12.594   4.223  1.00  0.00     0.011 A 
HETATM   12  C   UNL     1      39.724 -12.851   2.857  1.00  0.00     0.038 A 
ENDROOT
BRANCH  10  13
HETATM   13  C   UNL     1      39.854 -13.282   6.637  1.00  0.00     0.273 C 
BRANCH  13  14
HETATM   14  N   UNL     1      40.038 -11.819   6.984  1.00  0.00    -0.067 N 
HETATM   15  H   UNL     1      39.605 -11.277   6.223  1.00  0.00     0.280 HD
HETATM   16  C   UNL     1      39.335 -11.441   8.265  1.00  0.00     0.238 C 
HETATM   17  C   UNL     1      39.595  -9.983   8.613  1.00  0.00     0.071 C 
HETATM   18  C   UNL     1      41.097  -9.648   8.709  1.00  0.00     0.089 C 
HETATM   19  C   UNL     1      41.698 -10.000   7.334  1.00  0.00     0.071 C 
HETATM   20  C   UNL     1      41.511 -11.468   6.999  1.00  0.00     0.238 C 
BRANCH  18  21
HETATM   21  O   UNL     1      41.183  -8.229   8.836  1.00  0.00    -0.385 OA
HETATM   22  H   UNL     1      40.979  -7.797   7.985  1.00  0.00     0.211 HD
ENDBRANCH  18  21
BRANCH  18  23
HETATM   23  C   UNL     1      41.843 -10.283   9.878  1.00  0.00    -0.006 A 
HETATM   24  C   UNL     1      41.200 -10.715  11.038  1.00  0.00     0.126 A 
HETATM   25  N   UNL     1      41.805 -11.347  12.067  1.00  0.00    -0.272 NA
HETATM   26  C   UNL     1      43.144 -11.489  12.005  1.00  0.00     0.116 A 
HETATM   27  C   UNL     1      43.898 -11.040  10.940  1.00  0.00     0.020 A 
HETATM   28  C   UNL     1      43.241 -10.429   9.872  1.00  0.00     0.013 A 
ENDBRANCH  18  23
ENDBRANCH  13  14
ENDBRANCH  10  13
BRANCH   1  29
HETATM   29  C   UNL     1      43.316 -16.161   2.827  1.00  0.00     0.276 C 
BRANCH  29  30
HETATM   30  C   UNL     1      43.672 -17.060   3.986  1.00  0.00     0.001 A 
HETATM   31  C   UNL     1      44.039 -18.407   3.775  1.00  0.00     0.077 A 
HETATM   32  C   UNL     1      44.373 -19.211   4.868  1.00  0.00     0.037 A 
HETATM   33  C   UNL     1      44.343 -18.692   6.164  1.00  0.00     0.003 A 
HETATM   34  C   UNL     1      43.960 -17.373   6.382  1.00  0.00     0.001 A 
HETATM   35  C   UNL     1      43.615 -16.563   5.302  1.00  0.00     0.012 A 
BRANCH  31  36
HETATM   36  O   UNL     1      44.032 -18.825   2.472  1.00  0.00    -0.347 OA
BRANCH  36  37
HETATM   37  C   UNL     1      43.236 -19.947   2.083  1.00  0.00     0.202 C 
BRANCH  37  38
HETATM   38  C   UNL     1      44.083 -21.135   1.756  1.00  0.00    -0.011 C 
HETATM   39  C   UNL     1      44.351 -22.131   2.611  1.00  0.00     0.009 C 
ENDBRANCH  37  38
ENDBRANCH  36  37
ENDBRANCH  31  36
ENDBRANCH  29  30
ENDBRANCH   1  29
TORSDOF 9
ENDMDL
MODEL 4
REMARK VINA RESULT:      -8.7      1.638      2.229
REMARK  9 active torsions:
REMARK  status: ('A' for Active; 'I' for Inactive)
REMARK    1  A    between atoms: C_2  and  C_3 
REMARK    2  A    between atoms: C_3  and  O_4 
REMARK    3  A    between atoms: O_4  and  C_5 
REMARK    4  A    between atoms: C_6  and  C_7 
REMARK    5  A    between atoms: C_7  and  N_8 
REMARK    6  A    between atoms: C_17  and  C_18 
REMARK    7  A    between atoms: C_18  and  N_19 
REMARK    8  A    between atoms: C_23  and  O_24 
REMARK    9  A    between atoms: C_23  and  C_25 
ROOT
HETATM    1  N   UNL     1      41.234  -9.776   9.327  1.00  0.00    -0.061 N 
HETATM    2  H   UNL     1      41.750  -8.981   9.720  1.00  0.00     0.280 HD
HETATM    3  C   UNL     1      41.717  -9.877   7.898  1.00  0.00     0.276 C 
HETATM    4  C   UNL     1      41.217 -11.061   7.119  1.00  0.00     0.002 A 
HETATM    5  C   UNL     1      39.855 -11.194   6.850  1.00  0.00     0.076 A 
HETATM    6  O   UNL     1      38.955 -10.271   7.306  1.00  0.00    -0.349 OA
HETATM    7  C   UNL     1      38.812 -10.340   8.732  1.00  0.00     0.203 C 
HETATM    8  C   UNL     1      39.771  -9.371   9.433  1.00  0.00     0.262 C 
HETATM    9  C   UNL     1      42.098 -12.037   6.616  1.00  0.00     0.020 A 
HETATM   10  C   UNL     1      41.623 -13.130   5.865  1.00  0.00    -0.032 A 
HETATM   11  C   UNL     1      40.251 -13.207   5.581  1.00  0.00     0.011 A 
HETATM   12  C   UNL     1      39.374 -12.236   6.064  1.00  0.00     0.038 A 
ENDROOT
BRANCH  10  13
HETATM   13  C   UNL     1      42.551 -14.228   5.407  1.00  0.00     0.273 C 
BRANCH  13  14
HETATM   14  N   UNL     1      42.093 -14.975   4.171  1.00  0.00    -0.067 N 
HETATM   15  H   UNL     1      41.389 -14.381   3.709  1.00  0.00     0.280 HD
HETATM   16  C   UNL     1      43.215 -15.193   3.185  1.00  0.00     0.238 C 
HETATM   17  C   UNL     1      42.732 -15.999   1.988  1.00  0.00     0.071 C 
HETATM   18  C   UNL     1      42.103 -17.348   2.389  1.00  0.00     0.089 C 
HETATM   19  C   UNL     1      40.930 -17.006   3.330  1.00  0.00     0.071 C 
HETATM   20  C   UNL     1      41.401 -16.262   4.565  1.00  0.00     0.238 C 
BRANCH  18  21
HETATM   21  O   UNL     1      41.523 -17.888   1.201  1.00  0.00    -0.385 OA
HETATM   22  H   UNL     1      40.579 -17.649   1.144  1.00  0.00     0.211 HD
ENDBRANCH  18  21
BRANCH  18  23
HETATM   23  C   UNL     1      43.064 -18.381   2.969  1.00  0.00    -0.006 A 
HETATM   24  C   UNL     1      43.370 -18.447   4.328  1.00  0.00     0.126 A 
HETATM   25  N   UNL     1      44.156 -19.386   4.898  1.00  0.00    -0.272 NA
HETATM   26  C   UNL     1      44.760 -20.268   4.078  1.00  0.00     0.116 A 
HETATM   27  C   UNL     1      44.589 -20.260   2.709  1.00  0.00     0.020 A 
HETATM   28  C   UNL     1      43.737 -19.305   2.152  1.00  0.00     0.013 A 
ENDBRANCH  18  23
ENDBRANCH  13  14
ENDBRANCH  10  13
BRANCH   1  29
HETATM   29  C   UNL     1      41.597 -10.954  10.219  1.00  0.00     0.276 C 
BRANCH  29  30
HETATM   30  C   UNL     1      41.977 -10.579  11.631  1.00  0.00     0.001 A 
HETATM   31  C   UNL     1      43.264 -10.082  11.930  1.00  0.00     0.077 A 
HETATM   32  C   UNL     1      43.581  -9.734  13.245  1.00  0.00     0.037 A 
HETATM   33  C   UNL     1      42.637  -9.879  14.263  1.00  0.00     0.003 A 
HETATM   34  C   UNL     1      41.375 -10.390  13.981  1.00  0.00     0.001 A 
HETATM   35  C   UNL     1      41.048 -10.749  12.675  1.00  0.00     0.012 A 
BRANCH  31  36
HETATM   36  O   UNL     1      44.121  -9.982  10.868  1.00  0.00    -0.347 OA
BRANCH  36  37
HETATM   37  C   UNL     1      45.228 -10.880  10.753  1.00  0.00     0.202 C 
BRANCH  37  38
HETATM   38  C   UNL     1      45.431 -11.324   9.340  1.00  0.00    -0.011 C 
HETATM   39  C   UNL     1      44.963 -12.472   8.833  1.00  0.00     0.009 C 
ENDBRANCH  37  38
ENDBRANCH  36  37
ENDBRANCH  31  36
ENDBRANCH  29  30
ENDBRANCH   1  29
TORSDOF 9
ENDMDL
MODEL 5
REMARK VINA RESULT:      -8.4      5.683      9.329
REMARK  9 active torsions:
REMARK  status: ('A' for Active; 'I' for Inactive)
REMARK    1  A    between atoms: C_2  and  C_3 
REMARK    2  A    between atoms: C_3  and  O_4 
REMARK    3  A    between atoms: O_4  and  C_5 
REMARK    4  A    between atoms: C_6  and  C_7 
REMARK    5  A    between atoms: C_7  and  N_8 
REMARK    6  A    between atoms: C_17  and  C_18 
REMARK    7  A    between atoms: C_18  and  N_19 
REMARK    8  A    between atoms: C_23  and  O_24 
REMARK    9  A    between atoms: C_23  and  C_25 
ROOT
HETATM    1  N   UNL     1      41.979 -15.454   4.754  1.00  0.00    -0.061 N 
HETATM    2  H   UNL     1      42.805 -15.986   5.046  1.00  0.00     0.280 HD
HETATM    3  C   UNL     1      42.523 -14.115   4.311  1.00  0.00     0.276 C 
HETATM    4  C   UNL     1      41.526 -13.173   3.695  1.00  0.00     0.002 A 
HETATM    5  C   UNL     1      40.465 -12.684   4.458  1.00  0.00     0.076 A 
HETATM    6  O   UNL     1      40.301 -13.067   5.760  1.00  0.00    -0.349 OA
HETATM    7  C   UNL     1      39.904 -14.443   5.854  1.00  0.00     0.203 C 
HETATM    8  C   UNL     1      41.121 -15.362   6.008  1.00  0.00     0.262 C 
HETATM    9  C   UNL     1      41.650 -12.737   2.363  1.00  0.00     0.020 A 
HETATM   10  C   UNL     1      40.726 -11.834   1.802  1.00  0.00    -0.032 A 
HETATM   11  C   UNL     1      39.697 -11.333   2.613  1.00  0.00     0.011 A 
HETATM   12  C   UNL     1      39.575 -11.750   3.938  1.00  0.00     0.038 A 
ENDROOT
BRANCH  10  13
HETATM   13  C   UNL     1      40.801 -11.439   0.347  1.00  0.00     0.273 C 
BRANCH  13  14
HETATM   14  N   UNL     1      41.411 -12.483  -0.565  1.00  0.00    -0.067 N 
HETATM   15  H   UNL     1      42.416 -12.523  -0.342  1.00  0.00     0.280 HD
HETATM   16  C   UNL     1      40.840 -13.859  -0.323  1.00  0.00     0.238 C 
HETATM   17  C   UNL     1      41.430 -14.867  -1.299  1.00  0.00     0.071 C 
HETATM   18  C   UNL     1      41.234 -14.459  -2.773  1.00  0.00     0.089 C 
HETATM   19  C   UNL     1      41.914 -13.084  -2.926  1.00  0.00     0.071 C 
HETATM   20  C   UNL     1      41.293 -12.046  -2.011  1.00  0.00     0.238 C 
BRANCH  18  21
HETATM   21  O   UNL     1      42.003 -15.379  -3.548  1.00  0.00    -0.385 OA
HETATM   22  H   UNL     1      42.211 -16.175  -3.025  1.00  0.00     0.211 HD
ENDBRANCH  18  21
BRANCH  18  23
HETATM   23  C   UNL     1      39.796 -14.484  -3.282  1.00  0.00    -0.006 A 
HETATM   24  C   UNL     1      39.244 -15.590  -3.929  1.00  0.00     0.126 A 
HETATM   25  N   UNL     1      37.959 -15.687  -4.332  1.00  0.00    -0.272 NA
HETATM   26  C   UNL     1      37.178 -14.601  -4.177  1.00  0.00     0.116 A 
HETATM   27  C   UNL     1      37.629 -13.425  -3.613  1.00  0.00     0.020 A 
HETATM   28  C   UNL     1      38.950 -13.368  -3.166  1.00  0.00     0.013 A 
ENDBRANCH  18  23
ENDBRANCH  13  14
ENDBRANCH  10  13
BRANCH   1  29
HETATM   29  C   UNL     1      41.346 -16.293   3.654  1.00  0.00     0.276 C 
BRANCH  29  30
HETATM   30  C   UNL     1      42.301 -17.219   2.941  1.00  0.00     0.001 A 
HETATM   31  C   UNL     1      42.862 -18.333   3.600  1.00  0.00     0.077 A 
HETATM   32  C   UNL     1      43.735 -19.177   2.910  1.00  0.00     0.037 A 
HETATM   33  C   UNL     1      44.058 -18.923   1.575  1.00  0.00     0.003 A 
HETATM   34  C   UNL     1      43.528 -17.814   0.925  1.00  0.00     0.001 A 
HETATM   35  C   UNL     1      42.663 -16.959   1.605  1.00  0.00     0.012 A 
BRANCH  31  36
HETATM   36  O   UNL     1      42.491 -18.495   4.908  1.00  0.00    -0.347 OA
BRANCH  36  37
HETATM   37  C   UNL     1      43.439 -18.970   5.868  1.00  0.00     0.202 C 
BRANCH  37  38
HETATM   38  C   UNL     1      44.542 -17.984   6.084  1.00  0.00    -0.011 C 
HETATM   39  C   UNL     1      44.439 -16.888   6.848  1.00  0.00     0.009 C 
ENDBRANCH  37  38
ENDBRANCH  36  37
ENDBRANCH  31  36
ENDBRANCH  29  30
ENDBRANCH   1  29
TORSDOF 9
ENDMDL
MODEL 6
REMARK VINA RESULT:      -8.4      5.764      9.710
REMARK  9 active torsions:
REMARK  status: ('A' for Active; 'I' for Inactive)
REMARK    1  A    between atoms: C_2  and  C_3 
REMARK    2  A    between atoms: C_3  and  O_4 
REMARK    3  A    between atoms: O_4  and  C_5 
REMARK    4  A    between atoms: C_6  and  C_7 
REMARK    5  A    between atoms: C_7  and  N_8 
REMARK    6  A    between atoms: C_17  and  C_18 
REMARK    7  A    between atoms: C_18  and  N_19 
REMARK    8  A    between atoms: C_23  and  O_24 
REMARK    9  A    between atoms: C_23  and  C_25 
ROOT
HETATM    1  N   UNL     1      43.371 -14.986   4.600  1.00  0.00    -0.061 N 
HETATM    2  H   UNL     1      44.288 -15.396   4.808  1.00  0.00     0.280 HD
HETATM    3  C   UNL     1      43.534 -14.356   3.235  1.00  0.00     0.276 C 
HETATM    4  C   UNL     1      42.284 -13.794   2.618  1.00  0.00     0.002 A 
HETATM    5  C   UNL     1      41.626 -12.724   3.225  1.00  0.00     0.076 A 
HETATM    6  O   UNL     1      42.089 -12.186   4.393  1.00  0.00    -0.349 OA
HETATM    7  C   UNL     1      41.907 -13.090   5.493  1.00  0.00     0.203 C 
HETATM    8  C   UNL     1      43.148 -13.964   5.705  1.00  0.00     0.262 C 
HETATM    9  C   UNL     1      41.767 -14.302   1.411  1.00  0.00     0.020 A 
HETATM   10  C   UNL     1      40.609 -13.752   0.826  1.00  0.00    -0.032 A 
HETATM   11  C   UNL     1      40.000 -12.651   1.445  1.00  0.00     0.011 A 
HETATM   12  C   UNL     1      40.514 -12.133   2.634  1.00  0.00     0.038 A 
ENDROOT
BRANCH  10  13
HETATM   13  C   UNL     1      39.998 -14.354  -0.415  1.00  0.00     0.273 C 
BRANCH  13  14
HETATM   14  N   UNL     1      40.619 -13.895  -1.718  1.00  0.00    -0.067 N 
HETATM   15  H   UNL     1      40.540 -14.682  -2.379  1.00  0.00     0.280 HD
HETATM   16  C   UNL     1      39.883 -12.724  -2.322  1.00  0.00     0.238 C 
HETATM   17  C   UNL     1      40.571 -12.252  -3.595  1.00  0.00     0.071 C 
HETATM   18  C   UNL     1      42.055 -11.894  -3.375  1.00  0.00     0.089 C 
HETATM   19  C   UNL     1      42.723 -13.173  -2.831  1.00  0.00     0.071 C 
HETATM   20  C   UNL     1      42.096 -13.622  -1.525  1.00  0.00     0.238 C 
BRANCH  18  21
HETATM   21  O   UNL     1      42.609 -11.670  -4.672  1.00  0.00    -0.385 OA
HETATM   22  H   UNL     1      43.478 -12.107  -4.752  1.00  0.00     0.211 HD
ENDBRANCH  18  21
BRANCH  18  23
HETATM   23  C   UNL     1      42.320 -10.661  -2.518  1.00  0.00    -0.006 A 
HETATM   24  C   UNL     1      41.615  -9.467  -2.676  1.00  0.00     0.126 A 
HETATM   25  N   UNL     1      41.762  -8.374  -1.897  1.00  0.00    -0.272 NA
HETATM   26  C   UNL     1      42.724  -8.411  -0.955  1.00  0.00     0.116 A 
HETATM   27  C   UNL     1      43.532  -9.511  -0.748  1.00  0.00     0.020 A 
HETATM   28  C   UNL     1      43.329 -10.641  -1.540  1.00  0.00     0.013 A 
ENDBRANCH  18  23
ENDBRANCH  13  14
ENDBRANCH  10  13
BRANCH   1  29
HETATM   29  C   UNL     1      42.401 -16.157   4.661  1.00  0.00     0.276 C 
BRANCH  29  30
HETATM   30  C   UNL     1      42.865 -17.397   3.936  1.00  0.00     0.001 A 
HETATM   31  C   UNL     1      43.945 -18.163   4.424  1.00  0.00     0.077 A 
HETATM   32  C   UNL     1      44.345 -19.311   3.736  1.00  0.00     0.037 A 
HETATM   33  C   UNL     1      43.685 -19.702   2.569  1.00  0.00     0.003 A 
HETATM   34  C   UNL     1      42.634 -18.941   2.069  1.00  0.00     0.001 A 
HETATM   35  C   UNL     1      42.232 -17.788   2.740  1.00  0.00     0.012 A 
BRANCH  31  36
HETATM   36  O   UNL     1      44.531 -17.696   5.570  1.00  0.00    -0.347 OA
BRANCH  36  37
HETATM   37  C   UNL     1      44.721 -18.570   6.685  1.00  0.00     0.202 C 
BRANCH  37  38
HETATM   38  C   UNL     1      43.678 -18.357   7.734  1.00  0.00    -0.011 C 
HETATM   39  C   UNL     1      43.221 -17.156   8.114  1.00  0.00     0.009 C 
ENDBRANCH  37  38
ENDBRANCH  36  37
ENDBRANCH  31  36
ENDBRANCH  29  30
ENDBRANCH   1  29
TORSDOF 9
ENDMDL
MODEL 7
REMARK VINA RESULT:      -8.3      5.572      9.791
REMARK  9 active torsions:
REMARK  status: ('A' for Active; 'I' for Inactive)
REMARK    1  A    between atoms: C_2  and  C_3 
REMARK    2  A    between atoms: C_3  and  O_4 
REMARK    3  A    between atoms: O_4  and  C_5 
REMARK    4  A    between atoms: C_6  and  C_7 
REMARK    5  A    between atoms: C_7  and  N_8 
REMARK    6  A    between atoms: C_17  and  C_18 
REMARK    7  A    between atoms: C_18  and  N_19 
REMARK    8  A    between atoms: C_23  and  O_24 
REMARK    9  A    between atoms: C_23  and  C_25 
ROOT
HETATM    1  N   UNL     1      43.442 -16.350   5.444  1.00  0.00    -0.061 N 
HETATM    2  H   UNL     1      44.314 -16.559   5.942  1.00  0.00     0.280 HD
HETATM    3  C   UNL     1      43.362 -14.841   5.430  1.00  0.00     0.276 C 
HETATM    4  C   UNL     1      42.233 -14.251   4.631  1.00  0.00     0.002 A 
HETATM    5  C   UNL     1      40.911 -14.490   5.008  1.00  0.00     0.076 A 
HETATM    6  O   UNL     1      40.621 -15.276   6.089  1.00  0.00    -0.349 OA
HETATM    7  C   UNL     1      40.933 -16.654   5.833  1.00  0.00     0.203 C 
HETATM    8  C   UNL     1      42.354 -16.995   6.292  1.00  0.00     0.262 C 
HETATM    9  C   UNL     1      42.472 -13.426   3.515  1.00  0.00     0.020 A 
HETATM   10  C   UNL     1      41.409 -12.857   2.788  1.00  0.00    -0.032 A 
HETATM   11  C   UNL     1      40.095 -13.088   3.224  1.00  0.00     0.011 A 
HETATM   12  C   UNL     1      39.850 -13.893   4.336  1.00  0.00     0.038 A 
ENDROOT
BRANCH  10  13
HETATM   13  C   UNL     1      41.658 -12.052   1.536  1.00  0.00     0.273 C 
BRANCH  13  14
HETATM   14  N   UNL     1      42.015 -12.871   0.313  1.00  0.00    -0.067 N 
HETATM   15  H   UNL     1      42.869 -13.400   0.548  1.00  0.00     0.280 HD
HETATM   16  C   UNL     1      40.945 -13.876  -0.036  1.00  0.00     0.238 C 
HETATM   17  C   UNL     1      41.309 -14.635  -1.304  1.00  0.00     0.071 C 
HETATM   18  C   UNL     1      41.580 -13.703  -2.503  1.00  0.00     0.089 C 
HETATM   19  C   UNL     1      42.731 -12.776  -2.067  1.00  0.00     0.071 C 
HETATM   20  C   UNL     1      42.362 -11.958  -0.844  1.00  0.00     0.238 C 
BRANCH  18  21
HETATM   21  O   UNL     1      42.099 -14.531  -3.543  1.00  0.00    -0.385 OA
HETATM   22  H   UNL     1      42.907 -14.990  -3.243  1.00  0.00     0.211 HD
ENDBRANCH  18  21
BRANCH  18  23
HETATM   23  C   UNL     1      40.368 -12.952  -3.044  1.00  0.00    -0.006 A 
HETATM   24  C   UNL     1      39.070 -13.458  -2.966  1.00  0.00     0.126 A 
HETATM   25  N   UNL     1      37.959 -12.801  -3.364  1.00  0.00    -0.272 NA
HETATM   26  C   UNL     1      38.129 -11.606  -3.963  1.00  0.00     0.116 A 
HETATM   27  C   UNL     1      39.369 -11.033  -4.160  1.00  0.00     0.020 A 
HETATM   28  C   UNL     1      40.495 -11.716  -3.700  1.00  0.00     0.013 A 
ENDBRANCH  18  23
ENDBRANCH  13  14
ENDBRANCH  10  13
BRANCH   1  29
HETATM   29  C   UNL     1      43.607 -17.004   4.081  1.00  0.00     0.276 C 
BRANCH  29  30
HETATM   30  C   UNL     1      44.023 -18.455   4.125  1.00  0.00     0.001 A 
HETATM   31  C   UNL     1      44.007 -19.251   2.961  1.00  0.00     0.077 A 
HETATM   32  C   UNL     1      44.408 -20.588   3.033  1.00  0.00     0.037 A 
HETATM   33  C   UNL     1      44.819 -21.139   4.248  1.00  0.00     0.003 A 
HETATM   34  C   UNL     1      44.815 -20.367   5.404  1.00  0.00     0.001 A 
HETATM   35  C   UNL     1      44.409 -19.036   5.349  1.00  0.00     0.012 A 
BRANCH  31  36
HETATM   36  O   UNL     1      43.584 -18.624   1.820  1.00  0.00    -0.347 OA
BRANCH  36  37
HETATM   37  C   UNL     1      42.223 -18.747   1.398  1.00  0.00     0.202 C 
BRANCH  37  38
HETATM   38  C   UNL     1      41.571 -17.411   1.249  1.00  0.00    -0.011 C 
HETATM   39  C   UNL     1      40.585 -16.958   2.035  1.00  0.00     0.009 C 
ENDBRANCH  37  38
ENDBRANCH  36  37
ENDBRANCH  31  36
ENDBRANCH  29  30
ENDBRANCH   1  29
TORSDOF 9
ENDMDL
MODEL 8
REMARK VINA RESULT:      -8.1      3.959      8.364
REMARK  9 active torsions:
REMARK  status: ('A' for Active; 'I' for Inactive)
REMARK    1  A    between atoms: C_2  and  C_3 
REMARK    2  A    between atoms: C_3  and  O_4 
REMARK    3  A    between atoms: O_4  and  C_5 
REMARK    4  A    between atoms: C_6  and  C_7 
REMARK    5  A    between atoms: C_7  and  N_8 
REMARK    6  A    between atoms: C_17  and  C_18 
REMARK    7  A    between atoms: C_18  and  N_19 
REMARK    8  A    between atoms: C_23  and  O_24 
REMARK    9  A    between atoms: C_23  and  C_25 
ROOT
HETATM    1  N   UNL     1      43.174 -17.733   6.301  1.00  0.00    -0.061 N 
HETATM    2  H   UNL     1      42.682 -17.649   7.197  1.00  0.00     0.280 HD
HETATM    3  C   UNL     1      42.120 -18.214   5.330  1.00  0.00     0.276 C 
HETATM    4  C   UNL     1      42.541 -18.292   3.889  1.00  0.00     0.002 A 
HETATM    5  C   UNL     1      43.548 -19.178   3.504  1.00  0.00     0.076 A 
HETATM    6  O   UNL     1      44.179 -19.967   4.424  1.00  0.00    -0.349 OA
HETATM    7  C   UNL     1      45.017 -19.190   5.293  1.00  0.00     0.203 C 
HETATM    8  C   UNL     1      44.262 -18.765   6.557  1.00  0.00     0.262 C 
HETATM    9  C   UNL     1      41.920 -17.511   2.897  1.00  0.00     0.020 A 
HETATM   10  C   UNL     1      42.303 -17.609   1.545  1.00  0.00    -0.032 A 
HETATM   11  C   UNL     1      43.292 -18.541   1.192  1.00  0.00     0.011 A 
HETATM   12  C   UNL     1      43.902 -19.328   2.167  1.00  0.00     0.038 A 
ENDROOT
BRANCH  10  13
HETATM   13  C   UNL     1      41.707 -16.706   0.494  1.00  0.00     0.273 C 
BRANCH  13  14
HETATM   14  N   UNL     1      42.214 -15.278   0.520  1.00  0.00    -0.067 N 
HETATM   15  H   UNL     1      43.235 -15.323   0.390  1.00  0.00     0.280 HD
HETATM   16  C   UNL     1      41.652 -14.450  -0.610  1.00  0.00     0.238 C 
HETATM   17  C   UNL     1      42.133 -13.010  -0.515  1.00  0.00     0.071 C 
HETATM   18  C   UNL     1      41.803 -12.357   0.842  1.00  0.00     0.089 C 
HETATM   19  C   UNL     1      42.483 -13.234   1.912  1.00  0.00     0.071 C 
HETATM   20  C   UNL     1      41.965 -14.660   1.880  1.00  0.00     0.238 C 
BRANCH  18  21
HETATM   21  O   UNL     1      42.483 -11.101   0.858  1.00  0.00    -0.385 OA
HETATM   22  H   UNL     1      41.848 -10.371   0.983  1.00  0.00     0.211 HD
ENDBRANCH  18  21
BRANCH  18  23
HETATM   23  C   UNL     1      40.323 -12.106   1.114  1.00  0.00    -0.006 A 
HETATM   24  C   UNL     1      39.388 -11.931   0.094  1.00  0.00     0.126 A 
HETATM   25  N   UNL     1      38.059 -11.779   0.282  1.00  0.00    -0.272 NA
HETATM   26  C   UNL     1      37.619 -11.702   1.553  1.00  0.00     0.116 A 
HETATM   27  C   UNL     1      38.457 -11.793   2.646  1.00  0.00     0.020 A 
HETATM   28  C   UNL     1      39.820 -11.992   2.421  1.00  0.00     0.013 A 
ENDBRANCH  18  23
ENDBRANCH  13  14
ENDBRANCH  10  13
BRANCH   1  29
HETATM   29  C   UNL     1      43.720 -16.340   6.026  1.00  0.00     0.276 C 
BRANCH  29  30
HETATM   30  C   UNL     1      42.671 -15.258   5.942  1.00  0.00     0.001 A 
HETATM   31  C   UNL     1      43.035 -13.901   5.806  1.00  0.00     0.077 A 
HETATM   32  C   UNL     1      42.040 -12.924   5.720  1.00  0.00     0.037 A 
HETATM   33  C   UNL     1      40.691 -13.282   5.771  1.00  0.00     0.003 A 
HETATM   34  C   UNL     1      40.324 -14.614   5.928  1.00  0.00     0.001 A 
HETATM   35  C   UNL     1      41.306 -15.597   6.024  1.00  0.00     0.012 A 
BRANCH  31  36
HETATM   36  O   UNL     1      44.380 -13.650   5.771  1.00  0.00    -0.347 OA
BRANCH  36  37
HETATM   37  C   UNL     1      45.187 -13.912   6.922  1.00  0.00     0.202 C 
BRANCH  37  38
HETATM   38  C   UNL     1      44.824 -13.016   8.063  1.00  0.00    -0.011 C 
HETATM   39  C   UNL     1      45.709 -12.319   8.789  1.00  0.00     0.009 C 
ENDBRANCH  37  38
ENDBRANCH  36  37
ENDBRANCH  31  36
ENDBRANCH  29  30
ENDBRANCH   1  29
TORSDOF 9
ENDMDL
MODEL 9
REMARK VINA RESULT:      -8.0      6.367     10.528
REMARK  9 active torsions:
REMARK  status: ('A' for Active; 'I' for Inactive)
REMARK    1  A    between atoms: C_2  and  C_3 
REMARK    2  A    between atoms: C_3  and  O_4 
REMARK    3  A    between atoms: O_4  and  C_5 
REMARK    4  A    between atoms: C_6  and  C_7 
REMARK    5  A    between atoms: C_7  and  N_8 
REMARK    6  A    between atoms: C_17  and  C_18 
REMARK    7  A    between atoms: C_18  and  N_19 
REMARK    8  A    between atoms: C_23  and  O_24 
REMARK    9  A    between atoms: C_23  and  C_25 
ROOT
HETATM    1  N   UNL     1      43.407 -16.106   4.012  1.00  0.00    -0.061 N 
HETATM    2  H   UNL     1      44.358 -16.468   3.877  1.00  0.00     0.280 HD
HETATM    3  C   UNL     1      43.234 -15.068   2.927  1.00  0.00     0.276 C 
HETATM    4  C   UNL     1      41.861 -14.469   2.805  1.00  0.00     0.002 A 
HETATM    5  C   UNL     1      41.335 -13.713   3.853  1.00  0.00     0.076 A 
HETATM    6  O   UNL     1      42.042 -13.524   5.007  1.00  0.00    -0.349 OA
HETATM    7  C   UNL     1      42.143 -14.739   5.764  1.00  0.00     0.203 C 
HETATM    8  C   UNL     1      43.421 -15.508   5.412  1.00  0.00     0.262 C 
HETATM    9  C   UNL     1      41.091 -14.622   1.637  1.00  0.00     0.020 A 
HETATM   10  C   UNL     1      39.816 -14.035   1.521  1.00  0.00    -0.032 A 
HETATM   11  C   UNL     1      39.339 -13.248   2.580  1.00  0.00     0.011 A 
HETATM   12  C   UNL     1      40.101 -13.080   3.736  1.00  0.00     0.038 A 
ENDROOT
BRANCH  10  13
HETATM   13  C   UNL     1      38.949 -14.277   0.310  1.00  0.00     0.273 C 
BRANCH  13  14
HETATM   14  N   UNL     1      39.308 -13.447  -0.905  1.00  0.00    -0.067 N 
HETATM   15  H   UNL     1      40.248 -13.061  -0.735  1.00  0.00     0.280 HD
HETATM   16  C   UNL     1      39.382 -14.276  -2.164  1.00  0.00     0.238 C 
HETATM   17  C   UNL     1      39.681 -13.399  -3.371  1.00  0.00     0.071 C 
HETATM   18  C   UNL     1      38.666 -12.252  -3.545  1.00  0.00     0.089 C 
HETATM   19  C   UNL     1      38.726 -11.431  -2.242  1.00  0.00     0.071 C 
HETATM   20  C   UNL     1      38.361 -12.271  -1.032  1.00  0.00     0.238 C 
BRANCH  18  21
HETATM   21  O   UNL     1      39.184 -11.411  -4.576  1.00  0.00    -0.385 OA
HETATM   22  H   UNL     1      39.241 -11.901  -5.418  1.00  0.00     0.211 HD
ENDBRANCH  18  21
BRANCH  18  23
HETATM   23  C   UNL     1      37.252 -12.673  -3.932  1.00  0.00    -0.006 A 
HETATM   24  C   UNL     1      36.171 -11.791  -3.914  1.00  0.00     0.126 A 
HETATM   25  N   UNL     1      34.918 -12.097  -4.316  1.00  0.00    -0.272 NA
HETATM   26  C   UNL     1      34.678 -13.373  -4.675  1.00  0.00     0.116 A 
HETATM   27  C   UNL     1      35.650 -14.352  -4.669  1.00  0.00     0.020 A 
HETATM   28  C   UNL     1      36.945 -13.997  -4.290  1.00  0.00     0.013 A 
ENDBRANCH  18  23
ENDBRANCH  13  14
ENDBRANCH  10  13
BRANCH   1  29
HETATM   29  C   UNL     1      42.508 -17.328   3.891  1.00  0.00     0.276 C 
BRANCH  29  30
HETATM   30  C   UNL     1      43.209 -18.582   3.429  1.00  0.00     0.001 A 
HETATM   31  C   UNL     1      44.146 -19.237   4.256  1.00  0.00     0.077 A 
HETATM   32  C   UNL     1      44.771 -20.402   3.804  1.00  0.00     0.037 A 
HETATM   33  C   UNL     1      44.477 -20.918   2.541  1.00  0.00     0.003 A 
HETATM   34  C   UNL     1      43.572 -20.266   1.711  1.00  0.00     0.001 A 
HETATM   35  C   UNL     1      42.949 -19.098   2.145  1.00  0.00     0.012 A 
BRANCH  31  36
HETATM   36  O   UNL     1      44.372 -18.652   5.473  1.00  0.00    -0.347 OA
BRANCH  36  37
HETATM   37  C   UNL     1      43.824 -19.232   6.660  1.00  0.00     0.202 C 
BRANCH  37  38
HETATM   38  C   UNL     1      44.159 -18.423   7.872  1.00  0.00    -0.011 C 
HETATM   39  C   UNL     1      43.414 -17.411   8.336  1.00  0.00     0.009 C 
ENDBRANCH  37  38
ENDBRANCH  36  37
ENDBRANCH  31  36
ENDBRANCH  29  30
ENDBRANCH   1  29
TORSDOF 9
ENDMDL
MODEL 10
REMARK VINA RESULT:      -8.0      5.164      9.054
REMARK  9 active torsions:
REMARK  status: ('A' for Active; 'I' for Inactive)
REMARK    1  A    between atoms: C_2  and  C_3 
REMARK    2  A    between atoms: C_3  and  O_4 
REMARK    3  A    between atoms: O_4  and  C_5 
REMARK    4  A    between atoms: C_6  and  C_7 
REMARK    5  A    between atoms: C_7  and  N_8 
REMARK    6  A    between atoms: C_17  and  C_18 
REMARK    7  A    between atoms: C_18  and  N_19 
REMARK    8  A    between atoms: C_23  and  O_24 
REMARK    9  A    between atoms: C_23  and  C_25 
ROOT
HETATM    1  N   UNL     1      43.281 -15.161   4.930  1.00  0.00    -0.061 N 
HETATM    2  H   UNL     1      44.181 -15.652   4.880  1.00  0.00     0.280 HD
HETATM    3  C   UNL     1      43.042 -14.654   3.526  1.00  0.00     0.276 C 
HETATM    4  C   UNL     1      41.708 -14.007   3.281  1.00  0.00     0.002 A 
HETATM    5  C   UNL     1      41.371 -12.829   3.949  1.00  0.00     0.076 A 
HETATM    6  O   UNL     1      42.230 -12.261   4.848  1.00  0.00    -0.349 OA
HETATM    7  C   UNL     1      42.344 -13.056   6.037  1.00  0.00     0.203 C 
HETATM    8  C   UNL     1      43.512 -14.042   5.936  1.00  0.00     0.262 C 
HETATM    9  C   UNL     1      40.788 -14.542   2.360  1.00  0.00     0.020 A 
HETATM   10  C   UNL     1      39.551 -13.914   2.117  1.00  0.00    -0.032 A 
HETATM   11  C   UNL     1      39.266 -12.709   2.778  1.00  0.00     0.011 A 
HETATM   12  C   UNL     1      40.178 -12.166   3.682  1.00  0.00     0.038 A 
ENDROOT
BRANCH  10  13
HETATM   13  C   UNL     1      38.523 -14.535   1.203  1.00  0.00     0.273 C 
BRANCH  13  14
HETATM   14  N   UNL     1      38.752 -14.288  -0.274  1.00  0.00    -0.067 N 
HETATM   15  H   UNL     1      38.163 -14.963  -0.783  1.00  0.00     0.280 HD
HETATM   16  C   UNL     1      38.323 -12.904  -0.697  1.00  0.00     0.238 C 
HETATM   17  C   UNL     1      38.626 -12.672  -2.170  1.00  0.00     0.071 C 
HETATM   18  C   UNL     1      40.110 -12.901  -2.520  1.00  0.00     0.089 C 
HETATM   19  C   UNL     1      40.420 -14.357  -2.118  1.00  0.00     0.071 C 
HETATM   20  C   UNL     1      40.191 -14.592  -0.637  1.00  0.00     0.238 C 
BRANCH  18  21
HETATM   21  O   UNL     1      40.199 -12.848  -3.944  1.00  0.00    -0.385 OA
HETATM   22  H   UNL     1      41.128 -12.751  -4.224  1.00  0.00     0.211 HD
ENDBRANCH  18  21
BRANCH  18  23
HETATM   23  C   UNL     1      41.092 -11.890  -1.937  1.00  0.00    -0.006 A 
HETATM   24  C   UNL     1      42.416 -12.210  -1.637  1.00  0.00     0.126 A 
HETATM   25  N   UNL     1      43.340 -11.333  -1.189  1.00  0.00    -0.272 NA
HETATM   26  C   UNL     1      42.926 -10.077  -0.929  1.00  0.00     0.116 A 
HETATM   27  C   UNL     1      41.625  -9.660  -1.120  1.00  0.00     0.020 A 
HETATM   28  C   UNL     1      40.702 -10.576  -1.625  1.00  0.00     0.013 A 
ENDBRANCH  18  23
ENDBRANCH  13  14
ENDBRANCH  10  13
BRANCH   1  29
HETATM   29  C   UNL     1      42.294 -16.211   5.418  1.00  0.00     0.276 C 
BRANCH  29  30
HETATM   30  C   UNL     1      42.921 -17.522   5.828  1.00  0.00     0.001 A 
HETATM   31  C   UNL     1      43.321 -18.470   4.863  1.00  0.00     0.077 A 
HETATM   32  C   UNL     1      43.908 -19.669   5.275  1.00  0.00     0.037 A 
HETATM   33  C   UNL     1      44.097 -19.935   6.632  1.00  0.00     0.003 A 
HETATM   34  C   UNL     1      43.684 -19.016   7.590  1.00  0.00     0.001 A 
HETATM   35  C   UNL     1      43.089 -17.820   7.194  1.00  0.00     0.012 A 
BRANCH  31  36
HETATM   36  O   UNL     1      43.088 -18.122   3.560  1.00  0.00    -0.347 OA
BRANCH  36  37
HETATM   37  C   UNL     1      44.001 -18.528   2.536  1.00  0.00     0.202 C 
BRANCH  37  38
HETATM   38  C   UNL     1      43.990 -17.578   1.382  1.00  0.00    -0.011 C 
HETATM   39  C   UNL     1      42.882 -17.162   0.754  1.00  0.00     0.009 C 
ENDBRANCH  37  38
ENDBRANCH  36  37
ENDBRANCH  31  36
ENDBRANCH  29  30
ENDBRANCH   1  29
TORSDOF 9
ENDMDL
