MODEL 1
REMARK VINA RESULT:      -9.3      0.000      0.000
REMARK  6 active torsions:
REMARK  status: ('A' for Active; 'I' for Inactive)
REMARK    1  A    between atoms: C_2  and  C_4 
REMARK    2  A    between atoms: C_2  and  C_11 
REMARK    3  A    between atoms: C_2  and  O_3 
REMARK    4  A    between atoms: C_11  and  N_12 
REMARK       I    between atoms: N_12  and  C_13 
REMARK    5  A    between atoms: C_13  and  C_14 
REMARK    6  A    between atoms: C_18  and  C_19 
ROOT
HETATM    1  N   UNL     1      44.024 -14.053   7.763  1.00  0.00    -0.352 N 
HETATM    2  C   UNL     1      44.833 -13.033   8.204  1.00  0.00     0.272 C 
HETATM    3  O   UNL     1      46.013 -12.912   7.890  1.00  0.00    -0.266 OA
HETATM    4  H   UNL     1      43.096 -14.083   8.176  1.00  0.00     0.162 HD
ENDROOT
BRANCH   2   5
HETATM    5  C   UNL     1      44.138 -12.085   9.086  1.00  0.00     0.146 A 
HETATM    6  N   UNL     1      43.484 -11.007   8.611  1.00  0.00    -0.169 NA
HETATM    7  N   UNL     1      43.035 -10.390   9.718  1.00  0.00    -0.277 N 
HETATM    8  H   UNL     1      42.537  -9.515   9.603  1.00  0.00     0.189 HD
HETATM    9  C   UNL     1      43.330 -11.032  10.895  1.00  0.00     0.063 A 
HETATM   10  C   UNL     1      44.058 -12.140  10.501  1.00  0.00     0.071 A 
BRANCH   9  11
HETATM   11  C   UNL     1      42.941 -10.550  12.223  1.00  0.00    -0.008 A 
HETATM   12  C   UNL     1      43.706  -9.594  12.914  1.00  0.00     0.017 A 
HETATM   13  C   UNL     1      43.319  -9.149  14.181  1.00  0.00     0.043 A 
HETATM   14  C   UNL     1      42.163  -9.651  14.764  1.00  0.00     0.116 A 
HETATM   15  F   UNL     1      41.794  -9.223  15.978  1.00  0.00    -0.206 F 
HETATM   16  C   UNL     1      41.385 -10.591  14.102  1.00  0.00     0.043 A 
HETATM   17  C   UNL     1      41.774 -11.037  12.836  1.00  0.00     0.017 A 
ENDBRANCH   9  11
ENDBRANCH   2   5
BRANCH   1  18
HETATM   18  C   UNL     1      44.484 -15.136   6.909  1.00  0.00     0.165 C 
BRANCH  18  19
HETATM   19  C   UNL     1      43.488 -16.328   6.852  1.00  0.00     0.097 C 
HETATM   20  C   UNL     1      43.451 -17.012   8.225  1.00  0.00     0.053 C 
BRANCH  19  21
HETATM   21  C   UNL     1      43.755 -17.380   5.768  1.00  0.00    -0.023 A 
HETATM   22  C   UNL     1      43.215 -17.286   4.474  1.00  0.00     0.013 A 
HETATM   23  C   UNL     1      43.479 -18.267   3.512  1.00  0.00     0.043 A 
HETATM   24  C   UNL     1      44.299 -19.340   3.831  1.00  0.00     0.116 A 
HETATM   25  F   UNL     1      44.549 -20.278   2.908  1.00  0.00    -0.206 F 
HETATM   26  C   UNL     1      44.868 -19.450   5.090  1.00  0.00     0.043 A 
HETATM   27  C   UNL     1      44.602 -18.472   6.051  1.00  0.00     0.013 A 
ENDBRANCH  19  21
BRANCH  19  28
HETATM   28  O   UNL     1      42.183 -15.757   6.629  1.00  0.00    -0.384 OA
HETATM   29  H   UNL     1      41.545 -16.481   6.753  1.00  0.00     0.211 HD
ENDBRANCH  19  28
ENDBRANCH  18  19
ENDBRANCH   1  18
TORSDOF 6
ENDMDL
MODEL 2
REMARK VINA RESULT:      -9.1      8.952     11.824
REMARK  6 active torsions:
REMARK  status: ('A' for Active; 'I' for Inactive)
REMARK    1  A    between atoms: C_2  and  C_4 
REMARK    2  A    between atoms: C_2  and  C_11 
REMARK    3  A    between atoms: C_2  and  O_3 
REMARK    4  A    between atoms: C_11  and  N_12 
REMARK       I    between atoms: N_12  and  C_13 
REMARK    5  A    between atoms: C_13  and  C_14 
REMARK    6  A    between atoms: C_18  and  C_19 
ROOT
HETATM    1  N   UNL     1      41.872 -14.692  -0.842  1.00  0.00    -0.352 N 
HETATM    2  C   UNL     1      42.037 -14.755   0.521  1.00  0.00     0.272 C 
HETATM    3  O   UNL     1      42.088 -13.769   1.250  1.00  0.00    -0.266 OA
HETATM    4  H   UNL     1      41.943 -15.580  -1.331  1.00  0.00     0.162 HD
ENDROOT
BRANCH   2   5
HETATM    5  C   UNL     1      42.137 -16.131   1.028  1.00  0.00     0.146 A 
HETATM    6  N   UNL     1      41.161 -17.040   0.837  1.00  0.00    -0.169 NA
HETATM    7  N   UNL     1      41.610 -18.133   1.478  1.00  0.00    -0.277 N 
HETATM    8  H   UNL     1      41.009 -18.949   1.502  1.00  0.00     0.189 HD
HETATM    9  C   UNL     1      42.853 -17.997   2.047  1.00  0.00     0.063 A 
HETATM   10  C   UNL     1      43.210 -16.690   1.768  1.00  0.00     0.071 A 
BRANCH   9  11
HETATM   11  C   UNL     1      43.545 -19.053   2.791  1.00  0.00    -0.008 A 
HETATM   12  C   UNL     1      43.829 -20.300   2.209  1.00  0.00     0.017 A 
HETATM   13  C   UNL     1      44.487 -21.296   2.937  1.00  0.00     0.043 A 
HETATM   14  C   UNL     1      44.870 -21.050   4.249  1.00  0.00     0.116 A 
HETATM   15  F   UNL     1      45.501 -22.005   4.943  1.00  0.00    -0.206 F 
HETATM   16  C   UNL     1      44.607 -19.826   4.847  1.00  0.00     0.043 A 
HETATM   17  C   UNL     1      43.947 -18.832   4.119  1.00  0.00     0.017 A 
ENDBRANCH   9  11
ENDBRANCH   2   5
BRANCH   1  18
HETATM   18  C   UNL     1      41.783 -13.447  -1.587  1.00  0.00     0.165 C 
BRANCH  18  19
HETATM   19  C   UNL     1      41.435 -13.662  -3.087  1.00  0.00     0.097 C 
HETATM   20  C   UNL     1      41.809 -12.398  -3.871  1.00  0.00     0.053 C 
BRANCH  19  21
HETATM   21  C   UNL     1      39.980 -14.038  -3.395  1.00  0.00    -0.023 A 
HETATM   22  C   UNL     1      39.595 -15.344  -3.745  1.00  0.00     0.013 A 
HETATM   23  C   UNL     1      38.258 -15.649  -4.022  1.00  0.00     0.043 A 
HETATM   24  C   UNL     1      37.293 -14.655  -3.935  1.00  0.00     0.116 A 
HETATM   25  F   UNL     1      36.014 -14.950  -4.201  1.00  0.00    -0.206 F 
HETATM   26  C   UNL     1      37.636 -13.362  -3.568  1.00  0.00     0.043 A 
HETATM   27  C   UNL     1      38.971 -13.058  -3.294  1.00  0.00     0.013 A 
ENDBRANCH  19  21
BRANCH  19  28
HETATM   28  O   UNL     1      42.294 -14.720  -3.556  1.00  0.00    -0.384 OA
HETATM   29  H   UNL     1      41.926 -15.547  -3.199  1.00  0.00     0.211 HD
ENDBRANCH  19  28
ENDBRANCH  18  19
ENDBRANCH   1  18
TORSDOF 6
ENDMDL
MODEL 3
REMARK VINA RESULT:      -8.7      8.205     10.948
REMARK  6 active torsions:
REMARK  status: ('A' for Active; 'I' for Inactive)
REMARK    1  A    between atoms: C_2  and  C_4 
REMARK    2  A    between atoms: C_2  and  C_11 
REMARK    3  A    between atoms: C_2  and  O_3 
REMARK    4  A    between atoms: C_11  and  N_12 
REMARK       I    between atoms: N_12  and  C_13 
REMARK    5  A    between atoms: C_13  and  C_14 
REMARK    6  A    between atoms: C_18  and  C_19 
ROOT
HETATM    1  N   UNL     1      41.924 -14.564   1.086  1.00  0.00    -0.352 N 
HETATM    2  C   UNL     1      42.694 -14.394   2.212  1.00  0.00     0.272 C 
HETATM    3  O   UNL     1      43.059 -13.300   2.631  1.00  0.00    -0.266 OA
HETATM    4  H   UNL     1      41.775 -15.529   0.803  1.00  0.00     0.162 HD
ENDROOT
BRANCH   2   5
HETATM    5  C   UNL     1      43.029 -15.659   2.881  1.00  0.00     0.146 A 
HETATM    6  N   UNL     1      43.173 -15.751   4.217  1.00  0.00    -0.169 NA
HETATM    7  N   UNL     1      43.514 -17.036   4.416  1.00  0.00    -0.277 N 
HETATM    8  H   UNL     1      43.716 -17.331   5.365  1.00  0.00     0.189 HD
HETATM    9  C   UNL     1      43.562 -17.802   3.278  1.00  0.00     0.063 A 
HETATM   10  C   UNL     1      43.254 -16.916   2.262  1.00  0.00     0.071 A 
BRANCH   9  11
HETATM   11  C   UNL     1      43.906 -19.227   3.251  1.00  0.00    -0.008 A 
HETATM   12  C   UNL     1      43.634 -20.029   2.130  1.00  0.00     0.017 A 
HETATM   13  C   UNL     1      43.967 -21.387   2.125  1.00  0.00     0.043 A 
HETATM   14  C   UNL     1      44.579 -21.950   3.238  1.00  0.00     0.116 A 
HETATM   15  F   UNL     1      44.897 -23.250   3.231  1.00  0.00    -0.206 F 
HETATM   16  C   UNL     1      44.864 -21.179   4.356  1.00  0.00     0.043 A 
HETATM   17  C   UNL     1      44.528 -19.822   4.361  1.00  0.00     0.017 A 
ENDBRANCH   9  11
ENDBRANCH   2   5
BRANCH   1  18
HETATM   18  C   UNL     1      41.491 -13.472   0.231  1.00  0.00     0.165 C 
BRANCH  18  19
HETATM   19  C   UNL     1      39.991 -13.569  -0.165  1.00  0.00     0.097 C 
HETATM   20  C   UNL     1      39.214 -14.224   0.984  1.00  0.00     0.053 C 
BRANCH  19  21
HETATM   21  C   UNL     1      39.684 -14.309  -1.472  1.00  0.00    -0.023 A 
HETATM   22  C   UNL     1      38.466 -14.161  -2.158  1.00  0.00     0.013 A 
HETATM   23  C   UNL     1      38.222 -14.856  -3.347  1.00  0.00     0.043 A 
HETATM   24  C   UNL     1      39.200 -15.691  -3.870  1.00  0.00     0.116 A 
HETATM   25  F   UNL     1      38.962 -16.355  -5.008  1.00  0.00    -0.206 F 
HETATM   26  C   UNL     1      40.422 -15.840  -3.233  1.00  0.00     0.043 A 
HETATM   27  C   UNL     1      40.665 -15.148  -2.044  1.00  0.00     0.013 A 
ENDBRANCH  19  21
BRANCH  19  28
HETATM   28  O   UNL     1      39.513 -12.214  -0.279  1.00  0.00    -0.384 OA
HETATM   29  H   UNL     1      40.132 -11.663   0.231  1.00  0.00     0.211 HD
ENDBRANCH  19  28
ENDBRANCH  18  19
ENDBRANCH   1  18
TORSDOF 6
ENDMDL
MODEL 4
REMARK VINA RESULT:      -8.6      7.324     10.377
REMARK  6 active torsions:
REMARK  status: ('A' for Active; 'I' for Inactive)
REMARK    1  A    between atoms: C_2  and  C_4 
REMARK    2  A    between atoms: C_2  and  C_11 
REMARK    3  A    between atoms: C_2  and  O_3 
REMARK    4  A    between atoms: C_11  and  N_12 
REMARK       I    between atoms: N_12  and  C_13 
REMARK    5  A    between atoms: C_13  and  C_14 
REMARK    6  A    between atoms: C_18  and  C_19 
ROOT
HETATM    1  N   UNL     1      42.758 -15.579   3.541  1.00  0.00    -0.352 N 
HETATM    2  C   UNL     1      43.121 -14.353   3.037  1.00  0.00     0.272 C 
HETATM    3  O   UNL     1      43.948 -13.615   3.566  1.00  0.00    -0.266 OA
HETATM    4  H   UNL     1      41.995 -16.041   3.054  1.00  0.00     0.162 HD
ENDROOT
BRANCH   2   5
HETATM    5  C   UNL     1      42.428 -14.013   1.787  1.00  0.00     0.146 A 
HETATM    6  N   UNL     1      42.353 -12.748   1.327  1.00  0.00    -0.169 NA
HETATM    7  N   UNL     1      41.616 -12.857   0.208  1.00  0.00    -0.277 N 
HETATM    8  H   UNL     1      41.393 -12.006  -0.297  1.00  0.00     0.189 HD
HETATM    9  C   UNL     1      41.237 -14.138  -0.110  1.00  0.00     0.063 A 
HETATM   10  C   UNL     1      41.754 -14.907   0.916  1.00  0.00     0.071 A 
BRANCH   9  11
HETATM   11  C   UNL     1      40.435 -14.498  -1.283  1.00  0.00    -0.008 A 
HETATM   12  C   UNL     1      39.168 -13.936  -1.510  1.00  0.00     0.017 A 
HETATM   13  C   UNL     1      38.417 -14.295  -2.634  1.00  0.00     0.043 A 
HETATM   14  C   UNL     1      38.931 -15.215  -3.539  1.00  0.00     0.116 A 
HETATM   15  F   UNL     1      38.211 -15.557  -4.615  1.00  0.00    -0.206 F 
HETATM   16  C   UNL     1      40.182 -15.781  -3.342  1.00  0.00     0.043 A 
HETATM   17  C   UNL     1      40.931 -15.423  -2.218  1.00  0.00     0.017 A 
ENDBRANCH   9  11
ENDBRANCH   2   5
BRANCH   1  18
HETATM   18  C   UNL     1      43.275 -16.127   4.784  1.00  0.00     0.165 C 
BRANCH  18  19
HETATM   19  C   UNL     1      42.769 -17.569   5.069  1.00  0.00     0.097 C 
HETATM   20  C   UNL     1      43.043 -17.912   6.538  1.00  0.00     0.053 C 
BRANCH  19  21
HETATM   21  C   UNL     1      43.341 -18.675   4.174  1.00  0.00    -0.023 A 
HETATM   22  C   UNL     1      42.898 -18.888   2.857  1.00  0.00     0.013 A 
HETATM   23  C   UNL     1      43.442 -19.909   2.072  1.00  0.00     0.043 A 
HETATM   24  C   UNL     1      44.447 -20.715   2.590  1.00  0.00     0.116 A 
HETATM   25  F   UNL     1      44.966 -21.692   1.836  1.00  0.00    -0.206 F 
HETATM   26  C   UNL     1      44.925 -20.515   3.876  1.00  0.00     0.043 A 
HETATM   27  C   UNL     1      44.379 -19.497   4.661  1.00  0.00     0.013 A 
ENDBRANCH  19  21
BRANCH  19  28
HETATM   28  O   UNL     1      41.337 -17.536   4.903  1.00  0.00    -0.384 OA
HETATM   29  H   UNL     1      41.032 -16.717   5.331  1.00  0.00     0.211 HD
ENDBRANCH  19  28
ENDBRANCH  18  19
ENDBRANCH   1  18
TORSDOF 6
ENDMDL
MODEL 5
REMARK VINA RESULT:      -8.5      1.475     10.111
REMARK  6 active torsions:
REMARK  status: ('A' for Active; 'I' for Inactive)
REMARK    1  A    between atoms: C_2  and  C_4 
REMARK    2  A    between atoms: C_2  and  C_11 
REMARK    3  A    between atoms: C_2  and  O_3 
REMARK    4  A    between atoms: C_11  and  N_12 
REMARK       I    between atoms: N_12  and  C_13 
REMARK    5  A    between atoms: C_13  and  C_14 
REMARK    6  A    between atoms: C_18  and  C_19 
ROOT
HETATM    1  N   UNL     1      43.570 -12.019   8.554  1.00  0.00    -0.352 N 
HETATM    2  C   UNL     1      44.566 -12.890   8.183  1.00  0.00     0.272 C 
HETATM    3  O   UNL     1      45.700 -12.872   8.653  1.00  0.00    -0.266 OA
HETATM    4  H   UNL     1      42.709 -12.087   8.017  1.00  0.00     0.162 HD
ENDROOT
BRANCH   2   5
HETATM    5  C   UNL     1      44.135 -13.863   7.168  1.00  0.00     0.146 A 
HETATM    6  N   UNL     1      43.153 -13.594   6.285  1.00  0.00    -0.169 NA
HETATM    7  N   UNL     1      43.038 -14.731   5.577  1.00  0.00    -0.277 N 
HETATM    8  H   UNL     1      42.318 -14.775   4.866  1.00  0.00     0.189 HD
HETATM    9  C   UNL     1      43.925 -15.720   5.928  1.00  0.00     0.063 A 
HETATM   10  C   UNL     1      44.646 -15.171   6.972  1.00  0.00     0.071 A 
BRANCH   9  11
HETATM   11  C   UNL     1      43.988 -17.040   5.293  1.00  0.00    -0.008 A 
HETATM   12  C   UNL     1      44.635 -18.124   5.910  1.00  0.00     0.017 A 
HETATM   13  C   UNL     1      44.687 -19.374   5.286  1.00  0.00     0.043 A 
HETATM   14  C   UNL     1      44.087 -19.550   4.046  1.00  0.00     0.116 A 
HETATM   15  F   UNL     1      44.137 -20.749   3.452  1.00  0.00    -0.206 F 
HETATM   16  C   UNL     1      43.435 -18.499   3.418  1.00  0.00     0.043 A 
HETATM   17  C   UNL     1      43.386 -17.248   4.040  1.00  0.00     0.017 A 
ENDBRANCH   9  11
ENDBRANCH   2   5
BRANCH   1  18
HETATM   18  C   UNL     1      43.754 -10.944   9.514  1.00  0.00     0.165 C 
BRANCH  18  19
HETATM   19  C   UNL     1      42.418 -10.451  10.138  1.00  0.00     0.097 C 
HETATM   20  C   UNL     1      42.013  -9.131   9.471  1.00  0.00     0.053 C 
BRANCH  19  21
HETATM   21  C   UNL     1      42.408 -10.274  11.661  1.00  0.00    -0.023 A 
HETATM   22  C   UNL     1      43.406  -9.560  12.346  1.00  0.00     0.013 A 
HETATM   23  C   UNL     1      43.365  -9.422  13.737  1.00  0.00     0.043 A 
HETATM   24  C   UNL     1      42.317  -9.983  14.454  1.00  0.00     0.116 A 
HETATM   25  F   UNL     1      42.281  -9.850  15.786  1.00  0.00    -0.206 F 
HETATM   26  C   UNL     1      41.303 -10.673  13.807  1.00  0.00     0.043 A 
HETATM   27  C   UNL     1      41.345 -10.812  12.418  1.00  0.00     0.013 A 
ENDBRANCH  19  21
BRANCH  19  28
HETATM   28  O   UNL     1      41.419 -11.428   9.781  1.00  0.00    -0.384 OA
HETATM   29  H   UNL     1      41.652 -12.242  10.260  1.00  0.00     0.211 HD
ENDBRANCH  19  28
ENDBRANCH  18  19
ENDBRANCH   1  18
TORSDOF 6
ENDMDL
MODEL 6
REMARK VINA RESULT:      -8.3      9.124     11.736
REMARK  6 active torsions:
REMARK  status: ('A' for Active; 'I' for Inactive)
REMARK    1  A    between atoms: C_2  and  C_4 
REMARK    2  A    between atoms: C_2  and  C_11 
REMARK    3  A    between atoms: C_2  and  O_3 
REMARK    4  A    between atoms: C_11  and  N_12 
REMARK       I    between atoms: N_12  and  C_13 
REMARK    5  A    between atoms: C_13  and  C_14 
REMARK    6  A    between atoms: C_18  and  C_19 
ROOT
HETATM    1  N   UNL     1      39.891 -14.883   0.741  1.00  0.00    -0.352 N 
HETATM    2  C   UNL     1      40.354 -15.363   1.943  1.00  0.00     0.272 C 
HETATM    3  O   UNL     1      39.925 -14.999   3.034  1.00  0.00    -0.266 OA
HETATM    4  H   UNL     1      40.401 -15.201  -0.079  1.00  0.00     0.162 HD
ENDROOT
BRANCH   2   5
HETATM    5  C   UNL     1      41.414 -16.371   1.795  1.00  0.00     0.146 A 
HETATM    6  N   UNL     1      42.374 -16.272   0.855  1.00  0.00    -0.169 NA
HETATM    7  N   UNL     1      43.103 -17.389   1.022  1.00  0.00    -0.277 N 
HETATM    8  H   UNL     1      43.874 -17.551   0.384  1.00  0.00     0.189 HD
HETATM    9  C   UNL     1      42.690 -18.197   2.053  1.00  0.00     0.063 A 
HETATM   10  C   UNL     1      41.582 -17.549   2.566  1.00  0.00     0.071 A 
BRANCH   9  11
HETATM   11  C   UNL     1      43.333 -19.461   2.424  1.00  0.00    -0.008 A 
HETATM   12  C   UNL     1      43.240 -20.602   1.609  1.00  0.00     0.017 A 
HETATM   13  C   UNL     1      43.858 -21.800   1.982  1.00  0.00     0.043 A 
HETATM   14  C   UNL     1      44.577 -21.862   3.169  1.00  0.00     0.116 A 
HETATM   15  F   UNL     1      45.169 -23.009   3.523  1.00  0.00    -0.206 F 
HETATM   16  C   UNL     1      44.691 -20.749   3.989  1.00  0.00     0.043 A 
HETATM   17  C   UNL     1      44.071 -19.552   3.616  1.00  0.00     0.017 A 
ENDBRANCH   9  11
ENDBRANCH   2   5
BRANCH   1  18
HETATM   18  C   UNL     1      38.871 -13.856   0.621  1.00  0.00     0.165 C 
BRANCH  18  19
HETATM   19  C   UNL     1      38.857 -13.175  -0.778  1.00  0.00     0.097 C 
HETATM   20  C   UNL     1      37.615 -12.282  -0.884  1.00  0.00     0.053 C 
BRANCH  19  21
HETATM   21  C   UNL     1      38.912 -14.116  -1.987  1.00  0.00    -0.023 A 
HETATM   22  C   UNL     1      40.105 -14.717  -2.425  1.00  0.00     0.013 A 
HETATM   23  C   UNL     1      40.115 -15.568  -3.534  1.00  0.00     0.043 A 
HETATM   24  C   UNL     1      38.931 -15.840  -4.205  1.00  0.00     0.116 A 
HETATM   25  F   UNL     1      38.945 -16.655  -5.268  1.00  0.00    -0.206 F 
HETATM   26  C   UNL     1      37.732 -15.285  -3.784  1.00  0.00     0.043 A 
HETATM   27  C   UNL     1      37.722 -14.433  -2.677  1.00  0.00     0.013 A 
ENDBRANCH  19  21
BRANCH  19  28
HETATM   28  O   UNL     1      40.007 -12.306  -0.817  1.00  0.00    -0.384 OA
HETATM   29  H   UNL     1      39.986 -11.868  -1.686  1.00  0.00     0.211 HD
ENDBRANCH  19  28
ENDBRANCH  18  19
ENDBRANCH   1  18
TORSDOF 6
ENDMDL
MODEL 7
REMARK VINA RESULT:      -8.3      4.900      6.002
REMARK  6 active torsions:
REMARK  status: ('A' for Active; 'I' for Inactive)
REMARK    1  A    between atoms: C_2  and  C_4 
REMARK    2  A    between atoms: C_2  and  C_11 
REMARK    3  A    between atoms: C_2  and  O_3 
REMARK    4  A    between atoms: C_11  and  N_12 
REMARK       I    between atoms: N_12  and  C_13 
REMARK    5  A    between atoms: C_13  and  C_14 
REMARK    6  A    between atoms: C_18  and  C_19 
ROOT
HETATM    1  N   UNL     1      41.491 -16.623   3.639  1.00  0.00    -0.352 N 
HETATM    2  C   UNL     1      40.568 -15.627   3.426  1.00  0.00     0.272 C 
HETATM    3  O   UNL     1      39.952 -15.480   2.375  1.00  0.00    -0.266 OA
HETATM    4  H   UNL     1      41.994 -16.569   4.521  1.00  0.00     0.162 HD
ENDROOT
BRANCH   2   5
HETATM    5  C   UNL     1      40.379 -14.754   4.593  1.00  0.00     0.146 A 
HETATM    6  N   UNL     1      40.450 -15.218   5.857  1.00  0.00    -0.169 NA
HETATM    7  N   UNL     1      40.183 -14.137   6.611  1.00  0.00    -0.277 N 
HETATM    8  H   UNL     1      40.141 -14.259   7.616  1.00  0.00     0.189 HD
HETATM    9  C   UNL     1      39.979 -12.978   5.903  1.00  0.00     0.063 A 
HETATM   10  C   UNL     1      40.097 -13.365   4.581  1.00  0.00     0.071 A 
BRANCH   9  11
HETATM   11  C   UNL     1      39.678 -11.678   6.510  1.00  0.00    -0.008 A 
HETATM   12  C   UNL     1      39.563 -10.512   5.736  1.00  0.00     0.017 A 
HETATM   13  C   UNL     1      39.278  -9.281   6.335  1.00  0.00     0.043 A 
HETATM   14  C   UNL     1      39.100  -9.209   7.710  1.00  0.00     0.116 A 
HETATM   15  F   UNL     1      38.826  -8.030   8.281  1.00  0.00    -0.206 F 
HETATM   16  C   UNL     1      39.202 -10.347   8.499  1.00  0.00     0.043 A 
HETATM   17  C   UNL     1      39.489 -11.577   7.899  1.00  0.00     0.017 A 
ENDBRANCH   9  11
ENDBRANCH   2   5
BRANCH   1  18
HETATM   18  C   UNL     1      41.881 -17.592   2.628  1.00  0.00     0.165 C 
BRANCH  18  19
HETATM   19  C   UNL     1      43.409 -17.878   2.618  1.00  0.00     0.097 C 
HETATM   20  C   UNL     1      43.998 -17.392   1.288  1.00  0.00     0.053 C 
BRANCH  19  21
HETATM   21  C   UNL     1      43.826 -19.334   2.856  1.00  0.00    -0.023 A 
HETATM   22  C   UNL     1      44.433 -19.763   4.049  1.00  0.00     0.013 A 
HETATM   23  C   UNL     1      44.801 -21.099   4.228  1.00  0.00     0.043 A 
HETATM   24  C   UNL     1      44.550 -22.024   3.224  1.00  0.00     0.116 A 
HETATM   25  F   UNL     1      44.905 -23.303   3.398  1.00  0.00    -0.206 F 
HETATM   26  C   UNL     1      43.929 -21.640   2.044  1.00  0.00     0.043 A 
HETATM   27  C   UNL     1      43.564 -20.304   1.865  1.00  0.00     0.013 A 
ENDBRANCH  19  21
BRANCH  19  28
HETATM   28  O   UNL     1      43.982 -17.059   3.657  1.00  0.00    -0.384 OA
HETATM   29  H   UNL     1      43.700 -17.454   4.501  1.00  0.00     0.211 HD
ENDBRANCH  19  28
ENDBRANCH  18  19
ENDBRANCH   1  18
TORSDOF 6
ENDMDL
MODEL 8
REMARK VINA RESULT:      -8.3      5.852      9.590
REMARK  6 active torsions:
REMARK  status: ('A' for Active; 'I' for Inactive)
REMARK    1  A    between atoms: C_2  and  C_4 
REMARK    2  A    between atoms: C_2  and  C_11 
REMARK    3  A    between atoms: C_2  and  O_3 
REMARK    4  A    between atoms: C_11  and  N_12 
REMARK       I    between atoms: N_12  and  C_13 
REMARK    5  A    between atoms: C_13  and  C_14 
REMARK    6  A    between atoms: C_18  and  C_19 
ROOT
HETATM    1  N   UNL     1      42.239 -14.185   5.651  1.00  0.00    -0.352 N 
HETATM    2  C   UNL     1      43.427 -14.609   6.198  1.00  0.00     0.272 C 
HETATM    3  O   UNL     1      44.144 -13.905   6.903  1.00  0.00    -0.266 OA
HETATM    4  H   UNL     1      41.796 -14.840   5.012  1.00  0.00     0.162 HD
ENDROOT
BRANCH   2   5
HETATM    5  C   UNL     1      43.752 -16.003   5.865  1.00  0.00     0.146 A 
HETATM    6  N   UNL     1      44.424 -16.807   6.713  1.00  0.00    -0.169 NA
HETATM    7  N   UNL     1      44.552 -17.958   6.030  1.00  0.00    -0.277 N 
HETATM    8  H   UNL     1      45.071 -18.712   6.466  1.00  0.00     0.189 HD
HETATM    9  C   UNL     1      43.963 -17.960   4.790  1.00  0.00     0.063 A 
HETATM   10  C   UNL     1      43.440 -16.687   4.663  1.00  0.00     0.071 A 
BRANCH   9  11
HETATM   11  C   UNL     1      43.971 -19.102   3.870  1.00  0.00    -0.008 A 
HETATM   12  C   UNL     1      44.678 -20.280   4.164  1.00  0.00     0.017 A 
HETATM   13  C   UNL     1      44.676 -21.356   3.272  1.00  0.00     0.043 A 
HETATM   14  C   UNL     1      43.963 -21.264   2.084  1.00  0.00     0.116 A 
HETATM   15  F   UNL     1      43.962 -22.297   1.232  1.00  0.00    -0.206 F 
HETATM   16  C   UNL     1      43.251 -20.115   1.771  1.00  0.00     0.043 A 
HETATM   17  C   UNL     1      43.255 -19.038   2.663  1.00  0.00     0.017 A 
ENDBRANCH   9  11
ENDBRANCH   2   5
BRANCH   1  18
HETATM   18  C   UNL     1      41.715 -12.838   5.804  1.00  0.00     0.165 C 
BRANCH  18  19
HETATM   19  C   UNL     1      41.002 -12.316   4.525  1.00  0.00     0.097 C 
HETATM   20  C   UNL     1      39.591 -11.844   4.898  1.00  0.00     0.053 C 
BRANCH  19  21
HETATM   21  C   UNL     1      40.915 -13.298   3.351  1.00  0.00    -0.023 A 
HETATM   22  C   UNL     1      39.822 -14.163   3.167  1.00  0.00     0.013 A 
HETATM   23  C   UNL     1      39.780 -15.047   2.085  1.00  0.00     0.043 A 
HETATM   24  C   UNL     1      40.821 -15.064   1.168  1.00  0.00     0.116 A 
HETATM   25  F   UNL     1      40.778 -15.913   0.133  1.00  0.00    -0.206 F 
HETATM   26  C   UNL     1      41.903 -14.207   1.305  1.00  0.00     0.043 A 
HETATM   27  C   UNL     1      41.946 -13.325   2.388  1.00  0.00     0.013 A 
ENDBRANCH  19  21
BRANCH  19  28
HETATM   28  O   UNL     1      41.737 -11.151   4.098  1.00  0.00    -0.384 OA
HETATM   29  H   UNL     1      42.679 -11.366   4.215  1.00  0.00     0.211 HD
ENDBRANCH  19  28
ENDBRANCH  18  19
ENDBRANCH   1  18
TORSDOF 6
ENDMDL
MODEL 9
REMARK VINA RESULT:      -8.2      3.078     10.012
REMARK  6 active torsions:
REMARK  status: ('A' for Active; 'I' for Inactive)
REMARK    1  A    between atoms: C_2  and  C_4 
REMARK    2  A    between atoms: C_2  and  C_11 
REMARK    3  A    between atoms: C_2  and  O_3 
REMARK    4  A    between atoms: C_11  and  N_12 
REMARK       I    between atoms: N_12  and  C_13 
REMARK    5  A    between atoms: C_13  and  C_14 
REMARK    6  A    between atoms: C_18  and  C_19 
ROOT
HETATM    1  N   UNL     1      40.315 -12.358   6.972  1.00  0.00    -0.352 N 
HETATM    2  C   UNL     1      41.072 -12.590   5.848  1.00  0.00     0.272 C 
HETATM    3  O   UNL     1      41.638 -11.706   5.211  1.00  0.00    -0.266 OA
HETATM    4  H   UNL     1      39.828 -13.170   7.343  1.00  0.00     0.162 HD
ENDROOT
BRANCH   2   5
HETATM    5  C   UNL     1      41.149 -14.012   5.485  1.00  0.00     0.146 A 
HETATM    6  N   UNL     1      40.080 -14.831   5.553  1.00  0.00    -0.169 NA
HETATM    7  N   UNL     1      40.570 -16.028   5.188  1.00  0.00    -0.277 N 
HETATM    8  H   UNL     1      39.940 -16.822   5.204  1.00  0.00     0.189 HD
HETATM    9  C   UNL     1      41.900 -16.027   4.846  1.00  0.00     0.063 A 
HETATM   10  C   UNL     1      42.296 -14.717   5.041  1.00  0.00     0.071 A 
BRANCH   9  11
HETATM   11  C   UNL     1      42.646 -17.212   4.414  1.00  0.00    -0.008 A 
HETATM   12  C   UNL     1      42.361 -17.861   3.200  1.00  0.00     0.017 A 
HETATM   13  C   UNL     1      43.083 -18.992   2.808  1.00  0.00     0.043 A 
HETATM   14  C   UNL     1      44.096 -19.479   3.622  1.00  0.00     0.116 A 
HETATM   15  F   UNL     1      44.786 -20.562   3.244  1.00  0.00    -0.206 F 
HETATM   16  C   UNL     1      44.403 -18.855   4.823  1.00  0.00     0.043 A 
HETATM   17  C   UNL     1      43.680 -17.725   5.216  1.00  0.00     0.017 A 
ENDBRANCH   9  11
ENDBRANCH   2   5
BRANCH   1  18
HETATM   18  C   UNL     1      40.058 -11.034   7.513  1.00  0.00     0.165 C 
BRANCH  18  19
HETATM   19  C   UNL     1      39.623 -11.063   9.006  1.00  0.00     0.097 C 
HETATM   20  C   UNL     1      38.532 -10.008   9.227  1.00  0.00     0.053 C 
BRANCH  19  21
HETATM   21  C   UNL     1      40.739 -10.864  10.038  1.00  0.00    -0.023 A 
HETATM   22  C   UNL     1      40.563 -11.137  11.406  1.00  0.00     0.013 A 
HETATM   23  C   UNL     1      41.604 -10.941  12.318  1.00  0.00     0.043 A 
HETATM   24  C   UNL     1      42.836 -10.486  11.869  1.00  0.00     0.116 A 
HETATM   25  F   UNL     1      43.831 -10.297  12.745  1.00  0.00    -0.206 F 
HETATM   26  C   UNL     1      43.052 -10.231  10.523  1.00  0.00     0.043 A 
HETATM   27  C   UNL     1      42.011 -10.425   9.612  1.00  0.00     0.013 A 
ENDBRANCH  19  21
BRANCH  19  28
HETATM   28  O   UNL     1      39.015 -12.352   9.227  1.00  0.00    -0.384 OA
HETATM   29  H   UNL     1      38.351 -12.223   9.926  1.00  0.00     0.211 HD
ENDBRANCH  19  28
ENDBRANCH  18  19
ENDBRANCH   1  18
TORSDOF 6
ENDMDL
MODEL 10
REMARK VINA RESULT:      -8.1      3.411     10.437
REMARK  6 active torsions:
REMARK  status: ('A' for Active; 'I' for Inactive)
REMARK    1  A    between atoms: C_2  and  C_4 
REMARK    2  A    between atoms: C_2  and  C_11 
REMARK    3  A    between atoms: C_2  and  O_3 
REMARK    4  A    between atoms: C_11  and  N_12 
REMARK       I    between atoms: N_12  and  C_13 
REMARK    5  A    between atoms: C_13  and  C_14 
REMARK    6  A    between atoms: C_18  and  C_19 
ROOT
HETATM    1  N   UNL     1      42.036 -13.940   5.193  1.00  0.00    -0.352 N 
HETATM    2  C   UNL     1      43.141 -14.341   5.906  1.00  0.00     0.272 C 
HETATM    3  O   UNL     1      43.759 -13.613   6.676  1.00  0.00    -0.266 OA
HETATM    4  H   UNL     1      41.681 -14.616   4.523  1.00  0.00     0.162 HD
ENDROOT
BRANCH   2   5
HETATM    5  C   UNL     1      43.508 -15.744   5.663  1.00  0.00     0.146 A 
HETATM    6  N   UNL     1      44.148 -16.490   6.584  1.00  0.00    -0.169 NA
HETATM    7  N   UNL     1      44.332 -17.671   5.969  1.00  0.00    -0.277 N 
HETATM    8  H   UNL     1      44.840 -18.391   6.470  1.00  0.00     0.189 HD
HETATM    9  C   UNL     1      43.809 -17.748   4.702  1.00  0.00     0.063 A 
HETATM   10  C   UNL     1      43.271 -16.494   4.483  1.00  0.00     0.071 A 
BRANCH   9  11
HETATM   11  C   UNL     1      43.885 -18.935   3.845  1.00  0.00    -0.008 A 
HETATM   12  C   UNL     1      44.663 -20.050   4.197  1.00  0.00     0.017 A 
HETATM   13  C   UNL     1      44.725 -21.171   3.364  1.00  0.00     0.043 A 
HETATM   14  C   UNL     1      44.006 -21.186   2.176  1.00  0.00     0.116 A 
HETATM   15  F   UNL     1      44.066 -22.260   1.380  1.00  0.00    -0.206 F 
HETATM   16  C   UNL     1      43.224 -20.101   1.806  1.00  0.00     0.043 A 
HETATM   17  C   UNL     1      43.165 -18.979   2.639  1.00  0.00     0.017 A 
ENDBRANCH   9  11
ENDBRANCH   2   5
BRANCH   1  18
HETATM   18  C   UNL     1      41.496 -12.591   5.234  1.00  0.00     0.165 C 
BRANCH  18  19
HETATM   19  C   UNL     1      40.256 -12.462   6.163  1.00  0.00     0.097 C 
HETATM   20  C   UNL     1      39.047 -12.030   5.323  1.00  0.00     0.053 C 
BRANCH  19  21
HETATM   21  C   UNL     1      40.405 -11.516   7.361  1.00  0.00    -0.023 A 
HETATM   22  C   UNL     1      39.384 -11.328   8.309  1.00  0.00     0.013 A 
HETATM   23  C   UNL     1      39.557 -10.455   9.387  1.00  0.00     0.043 A 
HETATM   24  C   UNL     1      40.757  -9.775   9.537  1.00  0.00     0.116 A 
HETATM   25  F   UNL     1      40.919  -8.938  10.570  1.00  0.00    -0.206 F 
HETATM   26  C   UNL     1      41.794  -9.956   8.634  1.00  0.00     0.043 A 
HETATM   27  C   UNL     1      41.621 -10.827   7.556  1.00  0.00     0.013 A 
ENDBRANCH  19  21
BRANCH  19  28
HETATM   28  O   UNL     1      39.977 -13.788   6.654  1.00  0.00    -0.384 OA
HETATM   29  H   UNL     1      40.560 -14.389   6.158  1.00  0.00     0.211 HD
ENDBRANCH  19  28
ENDBRANCH  18  19
ENDBRANCH   1  18
TORSDOF 6
ENDMDL
