MODEL 1
REMARK VINA RESULT:      -8.3      0.000      0.000
REMARK  5 active torsions:
REMARK  status: ('A' for Active; 'I' for Inactive)
REMARK    1  A    between atoms: C_8  and  C_9 
REMARK    2  A    between atoms: C_9  and  C_10 
REMARK       I    between atoms: C_10  and  N_11 
REMARK    3  A    between atoms: N_11  and  C_12 
REMARK    4  A    between atoms: C_12  and  C_13 
REMARK    5  A    between atoms: C_13  and  C_14 
ROOT
HETATM    1  C   UNL     1      40.343 -15.155   0.471  1.00  0.00     0.226 C 
HETATM    2  N   UNL     1      40.979 -16.321   0.091  1.00  0.00    -0.360 N 
HETATM    3  O   UNL     1      40.245 -14.801   1.644  1.00  0.00    -0.273 OA
HETATM    4  H   UNL     1      40.753 -16.682  -0.826  1.00  0.00     0.162 HD
ENDROOT
BRANCH   2   5
HETATM    5  C   UNL     1      41.473 -17.271   1.073  1.00  0.00     0.127 C 
BRANCH   5   6
HETATM    6  C   UNL     1      42.990 -17.201   1.278  1.00  0.00     0.060 C 
BRANCH   6   7
HETATM    7  C   UNL     1      43.395 -17.638   2.653  1.00  0.00    -0.029 A 
HETATM    8  C   UNL     1      43.847 -18.942   3.036  1.00  0.00    -0.002 A 
HETATM    9  C   UNL     1      44.124 -18.903   4.403  1.00  0.00     0.044 A 
HETATM   10  C   UNL     1      44.047 -20.153   2.341  1.00  0.00     0.016 A 
HETATM   11  C   UNL     1      44.601 -20.014   5.112  1.00  0.00     0.054 A 
HETATM   12  N   UNL     1      43.838 -17.631   4.839  1.00  0.00    -0.365 N 
HETATM   13  C   UNL     1      44.797 -21.197   4.394  1.00  0.00     0.036 A 
HETATM   14 CL   UNL     1      45.388 -22.591   5.220  1.00  0.00    -0.084 Cl
HETATM   15  C   UNL     1      44.526 -21.273   3.031  1.00  0.00     0.025 A 
HETATM   16  H   UNL     1      43.936 -17.316   5.795  1.00  0.00     0.165 HD
HETATM   17  C   UNL     1      43.403 -16.860   3.794  1.00  0.00     0.096 A 
ENDBRANCH   6   7
ENDBRANCH   5   6
ENDBRANCH   2   5
BRANCH   1  18
HETATM   18  C   UNL     1      39.761 -14.320  -0.674  1.00  0.00     0.111 C 
HETATM   19  C   UNL     1      39.157 -13.015  -0.164  1.00  0.00     0.025 C 
BRANCH  18  20
HETATM   20  C   UNL     1      40.760 -14.179  -1.794  1.00  0.00     0.004 A 
HETATM   21  C   UNL     1      41.885 -13.375  -1.919  1.00  0.00     0.033 A 
HETATM   22  C   UNL     1      42.525 -12.369  -1.038  1.00  0.00     0.070 C 
HETATM   23  N   UNL     1      42.411 -13.657  -3.151  1.00  0.00    -0.282 N 
HETATM   24  H   UNL     1      43.233 -13.254  -3.589  1.00  0.00     0.189 HD
HETATM   25  N   UNL     1      41.734 -14.584  -3.831  1.00  0.00    -0.179 NA
HETATM   26  C   UNL     1      40.723 -14.912  -3.022  1.00  0.00     0.060 A 
HETATM   27  C   UNL     1      39.734 -15.937  -3.451  1.00  0.00     0.073 C 
ENDBRANCH  18  20
ENDBRANCH   1  18
TORSDOF 5
ENDMDL
MODEL 2
REMARK VINA RESULT:      -8.0      3.230      5.898
REMARK  5 active torsions:
REMARK  status: ('A' for Active; 'I' for Inactive)
REMARK    1  A    between atoms: C_8  and  C_9 
REMARK    2  A    between atoms: C_9  and  C_10 
REMARK       I    between atoms: C_10  and  N_11 
REMARK    3  A    between atoms: N_11  and  C_12 
REMARK    4  A    between atoms: C_12  and  C_13 
REMARK    5  A    between atoms: C_13  and  C_14 
ROOT
HETATM    1  C   UNL     1      42.854 -13.267   3.557  1.00  0.00     0.226 C 
HETATM    2  N   UNL     1      41.889 -12.969   2.616  1.00  0.00    -0.360 N 
HETATM    3  O   UNL     1      43.978 -13.663   3.257  1.00  0.00    -0.273 OA
HETATM    4  H   UNL     1      40.931 -12.950   2.940  1.00  0.00     0.162 HD
ENDROOT
BRANCH   2   5
HETATM    5  C   UNL     1      42.104 -13.220   1.202  1.00  0.00     0.127 C 
BRANCH   5   6
HETATM    6  C   UNL     1      41.215 -14.335   0.639  1.00  0.00     0.060 C 
BRANCH   6   7
HETATM    7  C   UNL     1      41.129 -15.511   1.563  1.00  0.00    -0.029 A 
HETATM    8  C   UNL     1      42.141 -16.501   1.782  1.00  0.00    -0.002 A 
HETATM    9  C   UNL     1      41.646 -17.402   2.725  1.00  0.00     0.044 A 
HETATM   10  C   UNL     1      43.436 -16.710   1.263  1.00  0.00     0.016 A 
HETATM   11  C   UNL     1      42.385 -18.501   3.185  1.00  0.00     0.054 A 
HETATM   12  N   UNL     1      40.378 -16.987   3.056  1.00  0.00    -0.365 N 
HETATM   13  C   UNL     1      43.667 -18.676   2.658  1.00  0.00     0.036 A 
HETATM   14 CL   UNL     1      44.619 -20.010   3.195  1.00  0.00    -0.084 Cl
HETATM   15  C   UNL     1      44.191 -17.800   1.712  1.00  0.00     0.025 A 
HETATM   16  H   UNL     1      39.772 -17.459   3.714  1.00  0.00     0.165 HD
HETATM   17  C   UNL     1      40.058 -15.848   2.366  1.00  0.00     0.096 A 
ENDBRANCH   6   7
ENDBRANCH   5   6
ENDBRANCH   2   5
BRANCH   1  18
HETATM   18  C   UNL     1      42.432 -13.071   5.017  1.00  0.00     0.111 C 
HETATM   19  C   UNL     1      41.882 -11.668   5.258  1.00  0.00     0.025 C 
BRANCH  18  20
HETATM   20  C   UNL     1      41.545 -14.202   5.473  1.00  0.00     0.004 A 
HETATM   21  C   UNL     1      40.170 -14.270   5.652  1.00  0.00     0.033 A 
HETATM   22  C   UNL     1      39.067 -13.295   5.479  1.00  0.00     0.070 C 
HETATM   23  N   UNL     1      39.912 -15.543   6.086  1.00  0.00    -0.282 N 
HETATM   24  H   UNL     1      39.016 -15.954   6.327  1.00  0.00     0.189 HD
HETATM   25  N   UNL     1      40.999 -16.311   6.191  1.00  0.00    -0.179 NA
HETATM   26  C   UNL     1      42.003 -15.511   5.825  1.00  0.00     0.060 A 
HETATM   27  C   UNL     1      43.397 -16.030   5.818  1.00  0.00     0.073 C 
ENDBRANCH  18  20
ENDBRANCH   1  18
TORSDOF 5
ENDMDL
MODEL 3
REMARK VINA RESULT:      -8.0      0.435      1.712
REMARK  5 active torsions:
REMARK  status: ('A' for Active; 'I' for Inactive)
REMARK    1  A    between atoms: C_8  and  C_9 
REMARK    2  A    between atoms: C_9  and  C_10 
REMARK       I    between atoms: C_10  and  N_11 
REMARK    3  A    between atoms: N_11  and  C_12 
REMARK    4  A    between atoms: C_12  and  C_13 
REMARK    5  A    between atoms: C_13  and  C_14 
ROOT
HETATM    1  C   UNL     1      40.486 -14.807   0.598  1.00  0.00     0.226 C 
HETATM    2  N   UNL     1      40.752 -16.124   0.284  1.00  0.00    -0.360 N 
HETATM    3  O   UNL     1      40.675 -14.337   1.719  1.00  0.00    -0.273 OA
HETATM    4  H   UNL     1      40.294 -16.495  -0.538  1.00  0.00     0.162 HD
ENDROOT
BRANCH   2   5
HETATM    5  C   UNL     1      41.165 -17.078   1.298  1.00  0.00     0.127 C 
BRANCH   5   6
HETATM    6  C   UNL     1      42.649 -17.454   1.213  1.00  0.00     0.060 C 
BRANCH   6   7
HETATM    7  C   UNL     1      43.217 -17.818   2.551  1.00  0.00    -0.029 A 
HETATM    8  C   UNL     1      43.708 -19.103   2.949  1.00  0.00    -0.002 A 
HETATM    9  C   UNL     1      44.150 -18.992   4.268  1.00  0.00     0.044 A 
HETATM   10  C   UNL     1      43.819 -20.352   2.304  1.00  0.00     0.016 A 
HETATM   11  C   UNL     1      44.707 -20.066   4.975  1.00  0.00     0.054 A 
HETATM   12  N   UNL     1      43.922 -17.694   4.663  1.00  0.00    -0.365 N 
HETATM   13  C   UNL     1      44.810 -21.289   4.306  1.00  0.00     0.036 A 
HETATM   14 CL   UNL     1      45.493 -22.640   5.130  1.00  0.00    -0.084 Cl
HETATM   15  C   UNL     1      44.375 -21.438   2.992  1.00  0.00     0.025 A 
HETATM   16  H   UNL     1      44.137 -17.328   5.581  1.00  0.00     0.165 HD
HETATM   17  C   UNL     1      43.365 -16.978   3.638  1.00  0.00     0.096 A 
ENDBRANCH   6   7
ENDBRANCH   5   6
ENDBRANCH   2   5
BRANCH   1  18
HETATM   18  C   UNL     1      39.932 -13.955  -0.550  1.00  0.00     0.111 C 
HETATM   19  C   UNL     1      39.342 -12.643  -0.039  1.00  0.00     0.025 C 
BRANCH  18  20
HETATM   20  C   UNL     1      40.950 -13.822  -1.654  1.00  0.00     0.004 A 
HETATM   21  C   UNL     1      41.076 -14.487  -2.866  1.00  0.00     0.033 A 
HETATM   22  C   UNL     1      40.295 -15.558  -3.530  1.00  0.00     0.070 C 
HETATM   23  N   UNL     1      42.190 -13.965  -3.466  1.00  0.00    -0.282 N 
HETATM   24  H   UNL     1      42.596 -14.214  -4.362  1.00  0.00     0.189 HD
HETATM   25  N   UNL     1      42.790 -13.007  -2.755  1.00  0.00    -0.179 NA
HETATM   26  C   UNL     1      42.052 -12.908  -1.647  1.00  0.00     0.060 A 
HETATM   27  C   UNL     1      42.422 -11.924  -0.595  1.00  0.00     0.073 C 
ENDBRANCH  18  20
ENDBRANCH   1  18
TORSDOF 5
ENDMDL
MODEL 4
REMARK VINA RESULT:      -7.9      3.790      6.785
REMARK  5 active torsions:
REMARK  status: ('A' for Active; 'I' for Inactive)
REMARK    1  A    between atoms: C_8  and  C_9 
REMARK    2  A    between atoms: C_9  and  C_10 
REMARK       I    between atoms: C_10  and  N_11 
REMARK    3  A    between atoms: N_11  and  C_12 
REMARK    4  A    between atoms: C_12  and  C_13 
REMARK    5  A    between atoms: C_13  and  C_14 
ROOT
HETATM    1  C   UNL     1      41.909 -17.729   2.611  1.00  0.00     0.226 C 
HETATM    2  N   UNL     1      41.234 -16.933   1.706  1.00  0.00    -0.360 N 
HETATM    3  O   UNL     1      41.459 -18.004   3.722  1.00  0.00    -0.273 OA
HETATM    4  H   UNL     1      41.788 -16.516   0.970  1.00  0.00     0.162 HD
ENDROOT
BRANCH   2   5
HETATM    5  C   UNL     1      39.992 -16.268   2.058  1.00  0.00     0.127 C 
BRANCH   5   6
HETATM    6  C   UNL     1      40.175 -14.792   2.428  1.00  0.00     0.060 C 
BRANCH   6   7
HETATM    7  C   UNL     1      40.623 -14.616   3.847  1.00  0.00    -0.029 A 
HETATM    8  C   UNL     1      41.963 -14.391   4.298  1.00  0.00    -0.002 A 
HETATM    9  C   UNL     1      41.924 -14.276   5.688  1.00  0.00     0.044 A 
HETATM   10  C   UNL     1      43.209 -14.271   3.646  1.00  0.00     0.016 A 
HETATM   11  C   UNL     1      43.066 -14.039   6.463  1.00  0.00     0.054 A 
HETATM   12  N   UNL     1      40.613 -14.441   6.070  1.00  0.00    -0.365 N 
HETATM   13  C   UNL     1      44.285 -13.917   5.788  1.00  0.00     0.036 A 
HETATM   14 CL   UNL     1      45.720 -13.619   6.695  1.00  0.00    -0.084 Cl
HETATM   15  C   UNL     1      44.363 -14.030   4.403  1.00  0.00     0.025 A 
HETATM   16  H   UNL     1      40.287 -14.417   7.027  1.00  0.00     0.165 HD
HETATM   17  C   UNL     1      39.821 -14.643   4.972  1.00  0.00     0.096 A 
ENDBRANCH   6   7
ENDBRANCH   5   6
ENDBRANCH   2   5
BRANCH   1  18
HETATM   18  C   UNL     1      43.270 -18.253   2.140  1.00  0.00     0.111 C 
HETATM   19  C   UNL     1      44.156 -17.124   1.623  1.00  0.00     0.025 C 
BRANCH  18  20
HETATM   20  C   UNL     1      43.892 -19.139   3.189  1.00  0.00     0.004 A 
HETATM   21  C   UNL     1      44.296 -18.869   4.490  1.00  0.00     0.033 A 
HETATM   22  C   UNL     1      44.283 -17.650   5.332  1.00  0.00     0.070 C 
HETATM   23  N   UNL     1      44.798 -20.046   4.977  1.00  0.00    -0.282 N 
HETATM   24  H   UNL     1      45.193 -20.228   5.894  1.00  0.00     0.189 HD
HETATM   25  N   UNL     1      44.742 -21.060   4.110  1.00  0.00    -0.179 NA
HETATM   26  C   UNL     1      44.197 -20.526   3.014  1.00  0.00     0.060 A 
HETATM   27  C   UNL     1      43.973 -21.371   1.812  1.00  0.00     0.073 C 
ENDBRANCH  18  20
ENDBRANCH   1  18
TORSDOF 5
ENDMDL
MODEL 5
REMARK VINA RESULT:      -7.9      1.447      2.073
REMARK  5 active torsions:
REMARK  status: ('A' for Active; 'I' for Inactive)
REMARK    1  A    between atoms: C_8  and  C_9 
REMARK    2  A    between atoms: C_9  and  C_10 
REMARK       I    between atoms: C_10  and  N_11 
REMARK    3  A    between atoms: N_11  and  C_12 
REMARK    4  A    between atoms: C_12  and  C_13 
REMARK    5  A    between atoms: C_13  and  C_14 
ROOT
HETATM    1  C   UNL     1      40.735 -15.278   0.622  1.00  0.00     0.226 C 
HETATM    2  N   UNL     1      40.922 -16.621   0.365  1.00  0.00    -0.360 N 
HETATM    3  O   UNL     1      41.109 -14.740   1.663  1.00  0.00    -0.273 OA
HETATM    4  H   UNL     1      40.332 -17.032  -0.347  1.00  0.00     0.162 HD
ENDROOT
BRANCH   2   5
HETATM    5  C   UNL     1      41.470 -17.517   1.368  1.00  0.00     0.127 C 
BRANCH   5   6
HETATM    6  C   UNL     1      42.986 -17.715   1.245  1.00  0.00     0.060 C 
BRANCH   6   7
HETATM    7  C   UNL     1      43.519 -18.657   2.281  1.00  0.00    -0.029 A 
HETATM    8  C   UNL     1      43.664 -18.393   3.681  1.00  0.00    -0.002 A 
HETATM    9  C   UNL     1      44.186 -19.545   4.272  1.00  0.00     0.044 A 
HETATM   10  C   UNL     1      43.394 -17.278   4.501  1.00  0.00     0.016 A 
HETATM   11  C   UNL     1      44.447 -19.642   5.645  1.00  0.00     0.054 A 
HETATM   12  N   UNL     1      44.367 -20.467   3.268  1.00  0.00    -0.365 N 
HETATM   13  C   UNL     1      44.162 -18.522   6.432  1.00  0.00     0.036 A 
HETATM   14 CL   UNL     1      44.460 -18.593   8.129  1.00  0.00    -0.084 Cl
HETATM   15  C   UNL     1      43.645 -17.356   5.877  1.00  0.00     0.025 A 
HETATM   16  H   UNL     1      44.744 -21.396   3.404  1.00  0.00     0.165 HD
HETATM   17  C   UNL     1      43.966 -19.946   2.068  1.00  0.00     0.096 A 
ENDBRANCH   6   7
ENDBRANCH   5   6
ENDBRANCH   2   5
BRANCH   1  18
HETATM   18  C   UNL     1      40.025 -14.488  -0.484  1.00  0.00     0.111 C 
HETATM   19  C   UNL     1      39.354 -13.234   0.068  1.00  0.00     0.025 C 
BRANCH  18  20
HETATM   20  C   UNL     1      40.945 -14.270  -1.658  1.00  0.00     0.004 A 
HETATM   21  C   UNL     1      41.979 -13.364  -1.853  1.00  0.00     0.033 A 
HETATM   22  C   UNL     1      42.566 -12.288  -1.019  1.00  0.00     0.070 C 
HETATM   23  N   UNL     1      42.463 -13.613  -3.109  1.00  0.00    -0.282 N 
HETATM   24  H   UNL     1      43.218 -13.141  -3.596  1.00  0.00     0.189 HD
HETATM   25  N   UNL     1      41.842 -14.612  -3.741  1.00  0.00    -0.179 NA
HETATM   26  C   UNL     1      40.912 -15.021  -2.875  1.00  0.00     0.060 A 
HETATM   27  C   UNL     1      40.005 -16.142  -3.238  1.00  0.00     0.073 C 
ENDBRANCH  18  20
ENDBRANCH   1  18
TORSDOF 5
ENDMDL
MODEL 6
REMARK VINA RESULT:      -7.9      2.694      4.289
REMARK  5 active torsions:
REMARK  status: ('A' for Active; 'I' for Inactive)
REMARK    1  A    between atoms: C_8  and  C_9 
REMARK    2  A    between atoms: C_9  and  C_10 
REMARK       I    between atoms: C_10  and  N_11 
REMARK    3  A    between atoms: N_11  and  C_12 
REMARK    4  A    between atoms: C_12  and  C_13 
REMARK    5  A    between atoms: C_13  and  C_14 
ROOT
HETATM    1  C   UNL     1      43.384 -14.656   3.317  1.00  0.00     0.226 C 
HETATM    2  N   UNL     1      42.759 -15.349   4.334  1.00  0.00    -0.360 N 
HETATM    3  O   UNL     1      44.081 -13.663   3.516  1.00  0.00    -0.273 OA
HETATM    4  H   UNL     1      41.984 -15.941   4.069  1.00  0.00     0.162 HD
ENDROOT
BRANCH   2   5
HETATM    5  C   UNL     1      42.791 -14.874   5.707  1.00  0.00     0.127 C 
BRANCH   5   6
HETATM    6  C   UNL     1      44.026 -15.343   6.485  1.00  0.00     0.060 C 
BRANCH   6   7
HETATM    7  C   UNL     1      43.854 -16.724   7.040  1.00  0.00    -0.029 A 
HETATM    8  C   UNL     1      44.098 -17.957   6.352  1.00  0.00    -0.002 A 
HETATM    9  C   UNL     1      43.820 -18.994   7.243  1.00  0.00     0.044 A 
HETATM   10  C   UNL     1      44.532 -18.283   5.051  1.00  0.00     0.016 A 
HETATM   11  C   UNL     1      43.963 -20.345   6.902  1.00  0.00     0.054 A 
HETATM   12  N   UNL     1      43.409 -18.416   8.422  1.00  0.00    -0.365 N 
HETATM   13  C   UNL     1      44.403 -20.637   5.608  1.00  0.00     0.036 A 
HETATM   14 CL   UNL     1      44.600 -22.285   5.141  1.00  0.00    -0.084 Cl
HETATM   15  C   UNL     1      44.684 -19.628   4.691  1.00  0.00     0.025 A 
HETATM   16  H   UNL     1      43.132 -18.931   9.247  1.00  0.00     0.165 HD
HETATM   17  C   UNL     1      43.429 -17.052   8.313  1.00  0.00     0.096 A 
ENDBRANCH   6   7
ENDBRANCH   5   6
ENDBRANCH   2   5
BRANCH   1  18
HETATM   18  C   UNL     1      43.151 -15.207   1.906  1.00  0.00     0.111 C 
HETATM   19  C   UNL     1      43.640 -16.647   1.780  1.00  0.00     0.025 C 
BRANCH  18  20
HETATM   20  C   UNL     1      41.730 -14.963   1.465  1.00  0.00     0.004 A 
HETATM   21  C   UNL     1      40.603 -15.772   1.524  1.00  0.00     0.033 A 
HETATM   22  C   UNL     1      40.357 -17.148   2.019  1.00  0.00     0.070 C 
HETATM   23  N   UNL     1      39.587 -15.038   0.974  1.00  0.00    -0.282 N 
HETATM   24  H   UNL     1      38.618 -15.309   0.842  1.00  0.00     0.189 HD
HETATM   25  N   UNL     1      39.952 -13.817   0.576  1.00  0.00    -0.179 NA
HETATM   26  C   UNL     1      41.255 -13.755   0.864  1.00  0.00     0.060 A 
HETATM   27  C   UNL     1      42.023 -12.519   0.555  1.00  0.00     0.073 C 
ENDBRANCH  18  20
ENDBRANCH   1  18
TORSDOF 5
ENDMDL
MODEL 7
REMARK VINA RESULT:      -7.8      1.593      2.338
REMARK  5 active torsions:
REMARK  status: ('A' for Active; 'I' for Inactive)
REMARK    1  A    between atoms: C_8  and  C_9 
REMARK    2  A    between atoms: C_9  and  C_10 
REMARK       I    between atoms: C_10  and  N_11 
REMARK    3  A    between atoms: N_11  and  C_12 
REMARK    4  A    between atoms: C_12  and  C_13 
REMARK    5  A    between atoms: C_13  and  C_14 
ROOT
HETATM    1  C   UNL     1      41.550 -14.829  -0.940  1.00  0.00     0.226 C 
HETATM    2  N   UNL     1      41.655 -16.166  -0.614  1.00  0.00    -0.360 N 
HETATM    3  O   UNL     1      41.772 -13.927  -0.134  1.00  0.00    -0.273 OA
HETATM    4  H   UNL     1      41.172 -16.818  -1.218  1.00  0.00     0.162 HD
ENDROOT
BRANCH   2   5
HETATM    5  C   UNL     1      41.921 -16.597   0.747  1.00  0.00     0.127 C 
BRANCH   5   6
HETATM    6  C   UNL     1      43.234 -17.374   0.894  1.00  0.00     0.060 C 
BRANCH   6   7
HETATM    7  C   UNL     1      43.525 -17.728   2.321  1.00  0.00    -0.029 A 
HETATM    8  C   UNL     1      43.924 -19.010   2.819  1.00  0.00    -0.002 A 
HETATM    9  C   UNL     1      44.095 -18.889   4.198  1.00  0.00     0.044 A 
HETATM   10  C   UNL     1      44.157 -20.265   2.218  1.00  0.00     0.016 A 
HETATM   11  C   UNL     1      44.498 -19.958   5.010  1.00  0.00     0.054 A 
HETATM   12  N   UNL     1      43.797 -17.588   4.530  1.00  0.00    -0.365 N 
HETATM   13  C   UNL     1      44.729 -21.186   4.384  1.00  0.00     0.036 A 
HETATM   14 CL   UNL     1      45.232 -22.531   5.338  1.00  0.00    -0.084 Cl
HETATM   15  C   UNL     1      44.563 -21.345   3.011  1.00  0.00     0.025 A 
HETATM   16  H   UNL     1      43.827 -17.214   5.469  1.00  0.00     0.165 HD
HETATM   17  C   UNL     1      43.457 -16.880   3.409  1.00  0.00     0.096 A 
ENDBRANCH   6   7
ENDBRANCH   5   6
ENDBRANCH   2   5
BRANCH   1  18
HETATM   18  C   UNL     1      41.135 -14.534  -2.386  1.00  0.00     0.111 C 
HETATM   19  C   UNL     1      40.506 -15.757  -3.048  1.00  0.00     0.025 C 
BRANCH  18  20
HETATM   20  C   UNL     1      40.321 -13.266  -2.459  1.00  0.00     0.004 A 
HETATM   21  C   UNL     1      39.061 -12.960  -1.967  1.00  0.00     0.033 A 
HETATM   22  C   UNL     1      38.046 -13.727  -1.206  1.00  0.00     0.070 C 
HETATM   23  N   UNL     1      38.821 -11.662  -2.334  1.00  0.00    -0.282 N 
HETATM   24  H   UNL     1      37.995 -11.102  -2.153  1.00  0.00     0.189 HD
HETATM   25  N   UNL     1      39.823 -11.096  -3.009  1.00  0.00    -0.179 NA
HETATM   26  C   UNL     1      40.745 -12.058  -3.099  1.00  0.00     0.060 A 
HETATM   27  C   UNL     1      42.028 -11.791  -3.801  1.00  0.00     0.073 C 
ENDBRANCH  18  20
ENDBRANCH   1  18
TORSDOF 5
ENDMDL
MODEL 8
REMARK VINA RESULT:      -7.8      2.300      3.321
REMARK  5 active torsions:
REMARK  status: ('A' for Active; 'I' for Inactive)
REMARK    1  A    between atoms: C_8  and  C_9 
REMARK    2  A    between atoms: C_9  and  C_10 
REMARK       I    between atoms: C_10  and  N_11 
REMARK    3  A    between atoms: N_11  and  C_12 
REMARK    4  A    between atoms: C_12  and  C_13 
REMARK    5  A    between atoms: C_13  and  C_14 
ROOT
HETATM    1  C   UNL     1      41.206 -14.338   3.922  1.00  0.00     0.226 C 
HETATM    2  N   UNL     1      41.308 -15.497   4.665  1.00  0.00    -0.360 N 
HETATM    3  O   UNL     1      41.867 -13.330   4.165  1.00  0.00    -0.273 OA
HETATM    4  H   UNL     1      40.536 -16.147   4.598  1.00  0.00     0.162 HD
ENDROOT
BRANCH   2   5
HETATM    5  C   UNL     1      42.125 -15.561   5.864  1.00  0.00     0.127 C 
BRANCH   5   6
HETATM    6  C   UNL     1      43.611 -15.803   5.577  1.00  0.00     0.060 C 
BRANCH   6   7
HETATM    7  C   UNL     1      43.967 -17.258   5.623  1.00  0.00    -0.029 A 
HETATM    8  C   UNL     1      44.000 -18.164   4.516  1.00  0.00    -0.002 A 
HETATM    9  C   UNL     1      44.390 -19.411   5.007  1.00  0.00     0.044 A 
HETATM   10  C   UNL     1      43.736 -18.036   3.136  1.00  0.00     0.016 A 
HETATM   11  C   UNL     1      44.538 -20.537   4.187  1.00  0.00     0.054 A 
HETATM   12  N   UNL     1      44.572 -19.272   6.363  1.00  0.00    -0.365 N 
HETATM   13  C   UNL     1      44.276 -20.376   2.824  1.00  0.00     0.036 A 
HETATM   14 CL   UNL     1      44.449 -21.731   1.771  1.00  0.00    -0.084 Cl
HETATM   15  C   UNL     1      43.881 -19.150   2.299  1.00  0.00     0.025 A 
HETATM   16  H   UNL     1      44.848 -20.020   6.985  1.00  0.00     0.165 HD
HETATM   17  C   UNL     1      44.324 -17.981   6.744  1.00  0.00     0.096 A 
ENDBRANCH   6   7
ENDBRANCH   5   6
ENDBRANCH   2   5
BRANCH   1  18
HETATM   18  C   UNL     1      40.204 -14.385   2.763  1.00  0.00     0.111 C 
HETATM   19  C   UNL     1      39.402 -13.091   2.664  1.00  0.00     0.025 C 
BRANCH  18  20
HETATM   20  C   UNL     1      40.881 -14.828   1.490  1.00  0.00     0.004 A 
HETATM   21  C   UNL     1      41.552 -14.105   0.513  1.00  0.00     0.033 A 
HETATM   22  C   UNL     1      41.853 -12.665   0.333  1.00  0.00     0.070 C 
HETATM   23  N   UNL     1      41.956 -15.023  -0.419  1.00  0.00    -0.282 N 
HETATM   24  H   UNL     1      42.469 -14.859  -1.279  1.00  0.00     0.189 HD
HETATM   25  N   UNL     1      41.619 -16.280  -0.124  1.00  0.00    -0.179 NA
HETATM   26  C   UNL     1      40.961 -16.181   1.033  1.00  0.00     0.060 A 
HETATM   27  C   UNL     1      40.420 -17.404   1.684  1.00  0.00     0.073 C 
ENDBRANCH  18  20
ENDBRANCH   1  18
TORSDOF 5
ENDMDL
MODEL 9
REMARK VINA RESULT:      -7.6      1.414      2.151
REMARK  5 active torsions:
REMARK  status: ('A' for Active; 'I' for Inactive)
REMARK    1  A    between atoms: C_8  and  C_9 
REMARK    2  A    between atoms: C_9  and  C_10 
REMARK       I    between atoms: C_10  and  N_11 
REMARK    3  A    between atoms: N_11  and  C_12 
REMARK    4  A    between atoms: C_12  and  C_13 
REMARK    5  A    between atoms: C_13  and  C_14 
ROOT
HETATM    1  C   UNL     1      40.266 -14.924   0.674  1.00  0.00     0.226 C 
HETATM    2  N   UNL     1      41.420 -15.626   0.389  1.00  0.00    -0.360 N 
HETATM    3  O   UNL     1      39.382 -15.363   1.407  1.00  0.00    -0.273 OA
HETATM    4  H   UNL     1      41.931 -15.341  -0.436  1.00  0.00     0.162 HD
ENDROOT
BRANCH   2   5
HETATM    5  C   UNL     1      41.609 -16.992   0.845  1.00  0.00     0.127 C 
BRANCH   5   6
HETATM    6  C   UNL     1      43.083 -17.393   0.975  1.00  0.00     0.060 C 
BRANCH   6   7
HETATM    7  C   UNL     1      43.448 -17.754   2.383  1.00  0.00    -0.029 A 
HETATM    8  C   UNL     1      43.880 -19.037   2.851  1.00  0.00    -0.002 A 
HETATM    9  C   UNL     1      44.122 -18.922   4.220  1.00  0.00     0.044 A 
HETATM   10  C   UNL     1      44.089 -20.286   2.231  1.00  0.00     0.016 A 
HETATM   11  C   UNL     1      44.571 -19.993   5.003  1.00  0.00     0.054 A 
HETATM   12  N   UNL     1      43.834 -17.625   4.575  1.00  0.00    -0.365 N 
HETATM   13  C   UNL     1      44.777 -21.217   4.359  1.00  0.00     0.036 A 
HETATM   14 CL   UNL     1      45.336 -22.565   5.277  1.00  0.00    -0.084 Cl
HETATM   15  C   UNL     1      44.542 -21.369   2.996  1.00  0.00     0.025 A 
HETATM   16  H   UNL     1      43.909 -17.257   5.514  1.00  0.00     0.165 HD
HETATM   17  C   UNL     1      43.432 -16.912   3.478  1.00  0.00     0.096 A 
ENDBRANCH   6   7
ENDBRANCH   5   6
ENDBRANCH   2   5
BRANCH   1  18
HETATM   18  C   UNL     1      40.155 -13.545   0.015  1.00  0.00     0.111 C 
HETATM   19  C   UNL     1      41.522 -12.883  -0.134  1.00  0.00     0.025 C 
BRANCH  18  20
HETATM   20  C   UNL     1      39.331 -13.621  -1.246  1.00  0.00     0.004 A 
HETATM   21  C   UNL     1      39.584 -14.231  -2.467  1.00  0.00     0.033 A 
HETATM   22  C   UNL     1      40.723 -15.014  -3.002  1.00  0.00     0.070 C 
HETATM   23  N   UNL     1      38.489 -13.973  -3.248  1.00  0.00    -0.282 N 
HETATM   24  H   UNL     1      38.322 -14.255  -4.208  1.00  0.00     0.189 HD
HETATM   25  N   UNL     1      37.541 -13.261  -2.634  1.00  0.00    -0.179 NA
HETATM   26  C   UNL     1      38.037 -13.034  -1.415  1.00  0.00     0.060 A 
HETATM   27  C   UNL     1      37.246 -12.254  -0.427  1.00  0.00     0.073 C 
ENDBRANCH  18  20
ENDBRANCH   1  18
TORSDOF 5
ENDMDL
MODEL 10
REMARK VINA RESULT:      -7.6      2.012      2.903
REMARK  5 active torsions:
REMARK  status: ('A' for Active; 'I' for Inactive)
REMARK    1  A    between atoms: C_8  and  C_9 
REMARK    2  A    between atoms: C_9  and  C_10 
REMARK       I    between atoms: C_10  and  N_11 
REMARK    3  A    between atoms: N_11  and  C_12 
REMARK    4  A    between atoms: C_12  and  C_13 
REMARK    5  A    between atoms: C_13  and  C_14 
ROOT
HETATM    1  C   UNL     1      42.051 -14.386   1.262  1.00  0.00     0.226 C 
HETATM    2  N   UNL     1      42.633 -15.334   2.079  1.00  0.00    -0.360 N 
HETATM    3  O   UNL     1      41.972 -13.198   1.570  1.00  0.00    -0.273 OA
HETATM    4  H   UNL     1      42.388 -16.299   1.899  1.00  0.00     0.162 HD
ENDROOT
BRANCH   2   5
HETATM    5  C   UNL     1      43.088 -15.005   3.418  1.00  0.00     0.127 C 
BRANCH   5   6
HETATM    6  C   UNL     1      42.518 -15.930   4.500  1.00  0.00     0.060 C 
BRANCH   6   7
HETATM    7  C   UNL     1      43.367 -17.147   4.709  1.00  0.00    -0.029 A 
HETATM    8  C   UNL     1      43.477 -18.273   3.833  1.00  0.00    -0.002 A 
HETATM    9  C   UNL     1      44.381 -19.166   4.409  1.00  0.00     0.044 A 
HETATM   10  C   UNL     1      42.889 -18.613   2.596  1.00  0.00     0.016 A 
HETATM   11  C   UNL     1      44.736 -20.381   3.809  1.00  0.00     0.054 A 
HETATM   12  N   UNL     1      44.794 -18.611   5.598  1.00  0.00    -0.365 N 
HETATM   13  C   UNL     1      44.143 -20.686   2.580  1.00  0.00     0.036 A 
HETATM   14 CL   UNL     1      44.551 -22.167   1.797  1.00  0.00    -0.084 Cl
HETATM   15  C   UNL     1      43.233 -19.822   1.978  1.00  0.00     0.025 A 
HETATM   16  H   UNL     1      45.447 -19.045   6.238  1.00  0.00     0.165 HD
HETATM   17  C   UNL     1      44.194 -17.396   5.788  1.00  0.00     0.096 A 
ENDBRANCH   6   7
ENDBRANCH   5   6
ENDBRANCH   2   5
BRANCH   1  18
HETATM   18  C   UNL     1      41.501 -14.912  -0.069  1.00  0.00     0.111 C 
HETATM   19  C   UNL     1      41.426 -16.436  -0.080  1.00  0.00     0.025 C 
BRANCH  18  20
HETATM   20  C   UNL     1      40.226 -14.197  -0.440  1.00  0.00     0.004 A 
HETATM   21  C   UNL     1      39.003 -14.114   0.210  1.00  0.00     0.033 A 
HETATM   22  C   UNL     1      38.478 -14.678   1.476  1.00  0.00     0.070 C 
HETATM   23  N   UNL     1      38.207 -13.336  -0.588  1.00  0.00    -0.282 N 
HETATM   24  H   UNL     1      37.241 -13.065  -0.436  1.00  0.00     0.189 HD
HETATM   25  N   UNL     1      38.813 -12.894  -1.692  1.00  0.00    -0.179 NA
HETATM   26  C   UNL     1      40.043 -13.411  -1.621  1.00  0.00     0.060 A 
HETATM   27  C   UNL     1      41.026 -13.132  -2.701  1.00  0.00     0.073 C 
ENDBRANCH  18  20
ENDBRANCH   1  18
TORSDOF 5
ENDMDL
