MODEL 1
REMARK VINA RESULT:      -8.7      0.000      0.000
REMARK  5 active torsions:
REMARK  status: ('A' for Active; 'I' for Inactive)
REMARK    1  A    between atoms: C_5  and  C_6 
REMARK    2  A    between atoms: C_9  and  O_10 
REMARK    3  A    between atoms: N_14  and  C_15 
REMARK    4  A    between atoms: C_15  and  C_16 
REMARK       I    between atoms: C_16  and  N_17 
REMARK    5  A    between atoms: N_17  and  C_18 
ROOT
HETATM    1  C   UNL     1      43.554 -21.114   7.728  1.00  0.00     0.156 C 
HETATM    2  N   UNL     1      43.805 -20.384   6.509  1.00  0.00    -0.346 N 
HETATM    3  C   UNL     1      43.777 -19.039   6.370  1.00  0.00     0.113 A 
HETATM    4  C   UNL     1      44.045 -18.705   5.071  1.00  0.00     0.014 A 
HETATM    5  C   UNL     1      44.033 -17.230   4.901  1.00  0.00     0.158 A 
HETATM    6  N   UNL     1      43.818 -16.809   6.312  1.00  0.00    -0.325 N 
HETATM    7  C   UNL     1      43.636 -17.885   7.192  1.00  0.00     0.272 A 
HETATM    8  O   UNL     1      43.494 -17.835   8.402  1.00  0.00    -0.266 OA
HETATM    9  C   UNL     1      44.321 -19.886   4.362  1.00  0.00     0.002 A 
HETATM   10  C   UNL     1      44.166 -20.940   5.286  1.00  0.00     0.045 A 
HETATM   11  C   UNL     1      44.704 -20.182   3.041  1.00  0.00     0.014 A 
HETATM   12  C   UNL     1      44.931 -21.512   2.674  1.00  0.00     0.001 A 
HETATM   13  C   UNL     1      44.775 -22.541   3.600  1.00  0.00     0.002 A 
HETATM   14  C   UNL     1      44.389 -22.277   4.917  1.00  0.00     0.030 A 
ENDROOT
BRANCH   6  15
HETATM   15  C   UNL     1      44.391 -15.568   6.795  1.00  0.00     0.229 C 
BRANCH  15  16
HETATM   16  C   UNL     1      43.976 -14.325   6.022  1.00  0.00     0.235 C 
HETATM   17  N   UNL     1      42.619 -14.078   6.021  1.00  0.00    -0.355 N 
HETATM   18  H   UNL     1      42.025 -14.718   6.537  1.00  0.00     0.162 HD
HETATM   19  O   UNL     1      44.808 -13.552   5.552  1.00  0.00    -0.272 OA
BRANCH  17  20
HETATM   20  C   UNL     1      42.111 -12.774   5.656  1.00  0.00     0.084 C 
HETATM   21  C   UNL     1      41.930 -12.595   4.155  1.00  0.00     0.025 C 
HETATM   22  C   UNL     1      40.989 -11.402   4.074  1.00  0.00     0.002 C 
HETATM   23  C   UNL     1      39.999 -11.620   5.213  1.00  0.00     0.002 C 
HETATM   24  C   UNL     1      40.710 -12.517   6.226  1.00  0.00     0.025 C 
ENDBRANCH  17  20
ENDBRANCH  15  16
ENDBRANCH   6  15
BRANCH   5  25
HETATM   25  C   UNL     1      42.894 -16.835   3.982  1.00  0.00    -0.030 A 
HETATM   26  C   UNL     1      41.539 -17.105   4.241  1.00  0.00     0.012 A 
HETATM   27  C   UNL     1      40.540 -16.723   3.340  1.00  0.00     0.037 A 
HETATM   28  C   UNL     1      40.858 -16.032   2.173  1.00  0.00     0.068 A 
HETATM   29  C   UNL     1      42.190 -15.722   1.915  1.00  0.00     0.037 A 
HETATM   30  C   UNL     1      43.195 -16.121   2.808  1.00  0.00     0.012 A 
BRANCH  28  31
HETATM   31  O   UNL     1      39.786 -15.724   1.382  1.00  0.00    -0.356 OA
HETATM   32  C   UNL     1      38.939 -14.673   1.827  1.00  0.00     0.210 C 
ENDBRANCH  28  31
ENDBRANCH   5  25
TORSDOF 5
ENDMDL
MODEL 2
REMARK VINA RESULT:      -8.7      3.213      7.040
REMARK  5 active torsions:
REMARK  status: ('A' for Active; 'I' for Inactive)
REMARK    1  A    between atoms: C_5  and  C_6 
REMARK    2  A    between atoms: C_9  and  O_10 
REMARK    3  A    between atoms: N_14  and  C_15 
REMARK    4  A    between atoms: C_15  and  C_16 
REMARK       I    between atoms: C_16  and  N_17 
REMARK    5  A    between atoms: N_17  and  C_18 
ROOT
HETATM    1  C   UNL     1      42.412 -11.306  -0.267  1.00  0.00     0.156 C 
HETATM    2  N   UNL     1      41.971 -12.678  -0.185  1.00  0.00    -0.346 N 
HETATM    3  C   UNL     1      41.721 -13.363   0.955  1.00  0.00     0.113 A 
HETATM    4  C   UNL     1      41.341 -14.640   0.649  1.00  0.00     0.014 A 
HETATM    5  C   UNL     1      41.047 -15.405   1.887  1.00  0.00     0.158 A 
HETATM    6  N   UNL     1      41.226 -14.332   2.902  1.00  0.00    -0.325 N 
HETATM    7  C   UNL     1      41.657 -13.115   2.355  1.00  0.00     0.272 A 
HETATM    8  O   UNL     1      41.832 -12.061   2.942  1.00  0.00    -0.266 OA
HETATM    9  C   UNL     1      41.283 -14.758  -0.750  1.00  0.00     0.002 A 
HETATM   10  C   UNL     1      41.683 -13.508  -1.264  1.00  0.00     0.045 A 
HETATM   11  C   UNL     1      40.917 -15.782  -1.643  1.00  0.00     0.014 A 
HETATM   12  C   UNL     1      40.951 -15.536  -3.019  1.00  0.00     0.001 A 
HETATM   13  C   UNL     1      41.347 -14.294  -3.510  1.00  0.00     0.002 A 
HETATM   14  C   UNL     1      41.722 -13.261  -2.645  1.00  0.00     0.030 A 
ENDROOT
BRANCH   6  15
HETATM   15  C   UNL     1      40.433 -14.339   4.115  1.00  0.00     0.229 C 
BRANCH  15  16
HETATM   16  C   UNL     1      41.225 -14.534   5.400  1.00  0.00     0.235 C 
HETATM   17  N   UNL     1      41.549 -15.845   5.679  1.00  0.00    -0.355 N 
HETATM   18  H   UNL     1      41.256 -16.554   5.015  1.00  0.00     0.162 HD
HETATM   19  O   UNL     1      41.639 -13.578   6.052  1.00  0.00    -0.272 OA
BRANCH  17  20
HETATM   20  C   UNL     1      42.585 -16.157   6.639  1.00  0.00     0.084 C 
HETATM   21  C   UNL     1      42.364 -17.480   7.359  1.00  0.00     0.025 C 
HETATM   22  C   UNL     1      43.746 -17.790   7.917  1.00  0.00     0.002 C 
HETATM   23  C   UNL     1      44.706 -17.366   6.812  1.00  0.00     0.002 C 
HETATM   24  C   UNL     1      43.958 -16.327   5.976  1.00  0.00     0.025 C 
ENDBRANCH  17  20
ENDBRANCH  15  16
ENDBRANCH   6  15
BRANCH   5  25
HETATM   25  C   UNL     1      42.047 -16.536   2.034  1.00  0.00    -0.030 A 
HETATM   26  C   UNL     1      43.218 -16.660   1.267  1.00  0.00     0.012 A 
HETATM   27  C   UNL     1      44.090 -17.739   1.446  1.00  0.00     0.037 A 
HETATM   28  C   UNL     1      43.837 -18.707   2.416  1.00  0.00     0.068 A 
HETATM   29  C   UNL     1      42.701 -18.583   3.211  1.00  0.00     0.037 A 
HETATM   30  C   UNL     1      41.817 -17.511   3.020  1.00  0.00     0.012 A 
BRANCH  28  31
HETATM   31  O   UNL     1      44.767 -19.707   2.482  1.00  0.00    -0.356 OA
HETATM   32  C   UNL     1      44.281 -21.041   2.446  1.00  0.00     0.210 C 
ENDBRANCH  28  31
ENDBRANCH   5  25
TORSDOF 5
ENDMDL
MODEL 3
REMARK VINA RESULT:      -8.7      2.435      3.091
REMARK  5 active torsions:
REMARK  status: ('A' for Active; 'I' for Inactive)
REMARK    1  A    between atoms: C_5  and  C_6 
REMARK    2  A    between atoms: C_9  and  O_10 
REMARK    3  A    between atoms: N_14  and  C_15 
REMARK    4  A    between atoms: C_15  and  C_16 
REMARK       I    between atoms: C_16  and  N_17 
REMARK    5  A    between atoms: N_17  and  C_18 
ROOT
HETATM    1  C   UNL     1      44.077 -19.344   7.976  1.00  0.00     0.156 C 
HETATM    2  N   UNL     1      44.020 -18.870   6.614  1.00  0.00    -0.346 N 
HETATM    3  C   UNL     1      43.868 -17.582   6.229  1.00  0.00     0.113 A 
HETATM    4  C   UNL     1      43.839 -17.511   4.864  1.00  0.00     0.014 A 
HETATM    5  C   UNL     1      43.688 -16.102   4.420  1.00  0.00     0.158 A 
HETATM    6  N   UNL     1      43.739 -15.410   5.736  1.00  0.00    -0.325 N 
HETATM    7  C   UNL     1      43.819 -16.290   6.825  1.00  0.00     0.272 A 
HETATM    8  O   UNL     1      43.926 -16.000   8.004  1.00  0.00    -0.266 OA
HETATM    9  C   UNL     1      44.046 -18.804   4.352  1.00  0.00     0.002 A 
HETATM   10  C   UNL     1      44.160 -19.652   5.473  1.00  0.00     0.045 A 
HETATM   11  C   UNL     1      44.169 -19.350   3.062  1.00  0.00     0.014 A 
HETATM   12  C   UNL     1      44.409 -20.720   2.917  1.00  0.00     0.001 A 
HETATM   13  C   UNL     1      44.520 -21.544   4.035  1.00  0.00     0.002 A 
HETATM   14  C   UNL     1      44.395 -21.029   5.328  1.00  0.00     0.030 A 
ENDROOT
BRANCH   6  15
HETATM   15  C   UNL     1      44.310 -14.082   5.837  1.00  0.00     0.229 C 
BRANCH  15  16
HETATM   16  C   UNL     1      43.749 -13.225   6.963  1.00  0.00     0.235 C 
HETATM   17  N   UNL     1      44.567 -13.128   8.069  1.00  0.00    -0.355 N 
HETATM   18  H   UNL     1      45.460 -13.608   8.037  1.00  0.00     0.162 HD
HETATM   19  O   UNL     1      42.710 -12.583   6.826  1.00  0.00    -0.272 OA
BRANCH  17  20
HETATM   20  C   UNL     1      44.356 -12.085   9.048  1.00  0.00     0.084 C 
HETATM   21  C   UNL     1      44.125 -12.616  10.457  1.00  0.00     0.025 C 
HETATM   22  C   UNL     1      44.399 -11.394  11.321  1.00  0.00     0.002 C 
HETATM   23  C   UNL     1      45.593 -10.718  10.657  1.00  0.00     0.002 C 
HETATM   24  C   UNL     1      45.580 -11.173   9.198  1.00  0.00     0.025 C 
ENDBRANCH  17  20
ENDBRANCH  15  16
ENDBRANCH   6  15
BRANCH   5  25
HETATM   25  C   UNL     1      42.359 -15.934   3.710  1.00  0.00    -0.030 A 
HETATM   26  C   UNL     1      42.024 -16.563   2.498  1.00  0.00     0.012 A 
HETATM   27  C   UNL     1      40.783 -16.352   1.891  1.00  0.00     0.037 A 
HETATM   28  C   UNL     1      39.827 -15.534   2.490  1.00  0.00     0.068 A 
HETATM   29  C   UNL     1      40.124 -14.930   3.708  1.00  0.00     0.037 A 
HETATM   30  C   UNL     1      41.376 -15.127   4.309  1.00  0.00     0.012 A 
BRANCH  28  31
HETATM   31  O   UNL     1      38.659 -15.412   1.788  1.00  0.00    -0.356 OA
HETATM   32  C   UNL     1      38.393 -14.147   1.197  1.00  0.00     0.210 C 
ENDBRANCH  28  31
ENDBRANCH   5  25
TORSDOF 5
ENDMDL
MODEL 4
REMARK VINA RESULT:      -8.5      3.011      4.161
REMARK  5 active torsions:
REMARK  status: ('A' for Active; 'I' for Inactive)
REMARK    1  A    between atoms: C_5  and  C_6 
REMARK    2  A    between atoms: C_9  and  O_10 
REMARK    3  A    between atoms: N_14  and  C_15 
REMARK    4  A    between atoms: C_15  and  C_16 
REMARK       I    between atoms: C_16  and  N_17 
REMARK    5  A    between atoms: N_17  and  C_18 
ROOT
HETATM    1  C   UNL     1      43.510 -19.157   6.476  1.00  0.00     0.156 C 
HETATM    2  N   UNL     1      43.528 -18.025   5.580  1.00  0.00    -0.346 N 
HETATM    3  C   UNL     1      43.585 -16.724   5.946  1.00  0.00     0.113 A 
HETATM    4  C   UNL     1      43.567 -15.932   4.832  1.00  0.00     0.014 A 
HETATM    5  C   UNL     1      43.643 -14.499   5.213  1.00  0.00     0.158 A 
HETATM    6  N   UNL     1      43.804 -14.631   6.686  1.00  0.00    -0.325 N 
HETATM    7  C   UNL     1      43.742 -15.958   7.136  1.00  0.00     0.272 A 
HETATM    8  O   UNL     1      43.895 -16.361   8.277  1.00  0.00    -0.266 OA
HETATM    9  C   UNL     1      43.564 -16.765   3.700  1.00  0.00     0.002 A 
HETATM   10  C   UNL     1      43.541 -18.087   4.190  1.00  0.00     0.045 A 
HETATM   11  C   UNL     1      43.598 -16.548   2.311  1.00  0.00     0.014 A 
HETATM   12  C   UNL     1      43.615 -17.645   1.446  1.00  0.00     0.001 A 
HETATM   13  C   UNL     1      43.594 -18.945   1.946  1.00  0.00     0.002 A 
HETATM   14  C   UNL     1      43.554 -19.190   3.322  1.00  0.00     0.030 A 
ENDROOT
BRANCH   6  15
HETATM   15  C   UNL     1      44.580 -13.654   7.423  1.00  0.00     0.229 C 
BRANCH  15  16
HETATM   16  C   UNL     1      43.764 -12.553   8.085  1.00  0.00     0.235 C 
HETATM   17  N   UNL     1      44.099 -12.305   9.400  1.00  0.00    -0.355 N 
HETATM   18  H   UNL     1      44.854 -12.849   9.804  1.00  0.00     0.162 HD
HETATM   19  O   UNL     1      42.965 -11.871   7.447  1.00  0.00    -0.272 OA
BRANCH  17  20
HETATM   20  C   UNL     1      43.685 -11.077  10.043  1.00  0.00     0.084 C 
HETATM   21  C   UNL     1      42.306 -11.164  10.683  1.00  0.00     0.025 C 
HETATM   22  C   UNL     1      42.312  -9.987  11.647  1.00  0.00     0.002 C 
HETATM   23  C   UNL     1      43.720  -9.979  12.230  1.00  0.00     0.002 C 
HETATM   24  C   UNL     1      44.605 -10.695  11.210  1.00  0.00     0.025 C 
ENDBRANCH  17  20
ENDBRANCH  15  16
ENDBRANCH   6  15
BRANCH   5  25
HETATM   25  C   UNL     1      42.357 -13.800   4.816  1.00  0.00    -0.030 A 
HETATM   26  C   UNL     1      42.271 -12.808   3.823  1.00  0.00     0.012 A 
HETATM   27  C   UNL     1      41.052 -12.195   3.517  1.00  0.00     0.037 A 
HETATM   28  C   UNL     1      39.879 -12.574   4.167  1.00  0.00     0.068 A 
HETATM   29  C   UNL     1      39.937 -13.580   5.128  1.00  0.00     0.037 A 
HETATM   30  C   UNL     1      41.161 -14.183   5.449  1.00  0.00     0.012 A 
BRANCH  28  31
HETATM   31  O   UNL     1      38.761 -11.891   3.774  1.00  0.00    -0.356 OA
HETATM   32  C   UNL     1      38.433 -11.937   2.392  1.00  0.00     0.210 C 
ENDBRANCH  28  31
ENDBRANCH   5  25
TORSDOF 5
ENDMDL
MODEL 5
REMARK VINA RESULT:      -8.4      2.575      7.593
REMARK  5 active torsions:
REMARK  status: ('A' for Active; 'I' for Inactive)
REMARK    1  A    between atoms: C_5  and  C_6 
REMARK    2  A    between atoms: C_9  and  O_10 
REMARK    3  A    between atoms: N_14  and  C_15 
REMARK    4  A    between atoms: C_15  and  C_16 
REMARK       I    between atoms: C_16  and  N_17 
REMARK    5  A    between atoms: N_17  and  C_18 
ROOT
HETATM    1  C   UNL     1      40.880 -10.350   7.794  1.00  0.00     0.156 C 
HETATM    2  N   UNL     1      42.014 -11.235   7.673  1.00  0.00    -0.346 N 
HETATM    3  C   UNL     1      42.247 -12.090   6.651  1.00  0.00     0.113 A 
HETATM    4  C   UNL     1      43.404 -12.779   6.883  1.00  0.00     0.014 A 
HETATM    5  C   UNL     1      43.686 -13.713   5.764  1.00  0.00     0.158 A 
HETATM    6  N   UNL     1      42.570 -13.360   4.846  1.00  0.00    -0.325 N 
HETATM    7  C   UNL     1      41.688 -12.410   5.381  1.00  0.00     0.272 A 
HETATM    8  O   UNL     1      40.724 -11.903   4.833  1.00  0.00    -0.266 OA
HETATM    9  C   UNL     1      43.970 -12.298   8.076  1.00  0.00     0.002 A 
HETATM   10  C   UNL     1      43.079 -11.320   8.564  1.00  0.00     0.045 A 
HETATM   11  C   UNL     1      45.151 -12.569   8.791  1.00  0.00     0.014 A 
HETATM   12  C   UNL     1      45.420 -11.858   9.965  1.00  0.00     0.001 A 
HETATM   13  C   UNL     1      44.530 -10.894  10.432  1.00  0.00     0.002 A 
HETATM   14  C   UNL     1      43.346 -10.610   9.745  1.00  0.00     0.030 A 
ENDROOT
BRANCH   6  15
HETATM   15  C   UNL     1      42.753 -13.449   3.411  1.00  0.00     0.229 C 
BRANCH  15  16
HETATM   16  C   UNL     1      42.314 -14.765   2.787  1.00  0.00     0.235 C 
HETATM   17  N   UNL     1      43.334 -15.672   2.587  1.00  0.00    -0.355 N 
HETATM   18  H   UNL     1      44.267 -15.402   2.881  1.00  0.00     0.162 HD
HETATM   19  O   UNL     1      41.128 -15.025   2.600  1.00  0.00    -0.272 OA
BRANCH  17  20
HETATM   20  C   UNL     1      43.039 -17.068   2.353  1.00  0.00     0.084 C 
HETATM   21  C   UNL     1      43.841 -17.671   1.207  1.00  0.00     0.025 C 
HETATM   22  C   UNL     1      43.716 -19.165   1.465  1.00  0.00     0.002 C 
HETATM   23  C   UNL     1      43.821 -19.301   2.979  1.00  0.00     0.002 C 
HETATM   24  C   UNL     1      43.403 -17.948   3.556  1.00  0.00     0.025 C 
ENDBRANCH  17  20
ENDBRANCH  15  16
ENDBRANCH   6  15
BRANCH   5  25
HETATM   25  C   UNL     1      43.615 -15.142   6.266  1.00  0.00    -0.030 A 
HETATM   26  C   UNL     1      44.737 -15.922   6.593  1.00  0.00     0.012 A 
HETATM   27  C   UNL     1      44.598 -17.240   7.038  1.00  0.00     0.037 A 
HETATM   28  C   UNL     1      43.336 -17.809   7.200  1.00  0.00     0.068 A 
HETATM   29  C   UNL     1      42.210 -17.042   6.916  1.00  0.00     0.037 A 
HETATM   30  C   UNL     1      42.349 -15.726   6.452  1.00  0.00     0.012 A 
BRANCH  28  31
HETATM   31  O   UNL     1      43.345 -19.105   7.637  1.00  0.00    -0.356 OA
HETATM   32  C   UNL     1      43.805 -20.089   6.722  1.00  0.00     0.210 C 
ENDBRANCH  28  31
ENDBRANCH   5  25
TORSDOF 5
ENDMDL
MODEL 6
REMARK VINA RESULT:      -8.3      2.426      5.232
REMARK  5 active torsions:
REMARK  status: ('A' for Active; 'I' for Inactive)
REMARK    1  A    between atoms: C_5  and  C_6 
REMARK    2  A    between atoms: C_9  and  O_10 
REMARK    3  A    between atoms: N_14  and  C_15 
REMARK    4  A    between atoms: C_15  and  C_16 
REMARK       I    between atoms: C_16  and  N_17 
REMARK    5  A    between atoms: N_17  and  C_18 
ROOT
HETATM    1  C   UNL     1      44.136 -20.114   1.422  1.00  0.00     0.156 C 
HETATM    2  N   UNL     1      43.746 -19.619   2.721  1.00  0.00    -0.346 N 
HETATM    3  C   UNL     1      43.024 -18.501   2.959  1.00  0.00     0.113 A 
HETATM    4  C   UNL     1      42.863 -18.336   4.307  1.00  0.00     0.014 A 
HETATM    5  C   UNL     1      42.060 -17.120   4.589  1.00  0.00     0.158 A 
HETATM    6  N   UNL     1      41.724 -16.704   3.201  1.00  0.00    -0.325 N 
HETATM    7  C   UNL     1      42.320 -17.508   2.219  1.00  0.00     0.272 A 
HETATM    8  O   UNL     1      42.178 -17.430   1.011  1.00  0.00    -0.266 OA
HETATM    9  C   UNL     1      43.454 -19.433   4.957  1.00  0.00     0.002 A 
HETATM   10  C   UNL     1      44.007 -20.237   3.940  1.00  0.00     0.045 A 
HETATM   11  C   UNL     1      43.566 -19.847   6.297  1.00  0.00     0.014 A 
HETATM   12  C   UNL     1      44.217 -21.049   6.591  1.00  0.00     0.001 A 
HETATM   13  C   UNL     1      44.756 -21.832   5.574  1.00  0.00     0.002 A 
HETATM   14  C   UNL     1      44.665 -21.442   4.234  1.00  0.00     0.030 A 
ENDROOT
BRANCH   6  15
HETATM   15  C   UNL     1      40.466 -16.040   2.925  1.00  0.00     0.229 C 
BRANCH  15  16
HETATM   16  C   UNL     1      40.550 -14.888   1.935  1.00  0.00     0.235 C 
HETATM   17  N   UNL     1      40.082 -15.183   0.672  1.00  0.00    -0.355 N 
HETATM   18  H   UNL     1      39.712 -16.115   0.514  1.00  0.00     0.162 HD
HETATM   19  O   UNL     1      40.895 -13.761   2.286  1.00  0.00    -0.272 OA
BRANCH  17  20
HETATM   20  C   UNL     1      39.759 -14.123  -0.257  1.00  0.00     0.084 C 
HETATM   21  C   UNL     1      40.106 -14.459  -1.702  1.00  0.00     0.025 C 
HETATM   22  C   UNL     1      39.276 -13.452  -2.485  1.00  0.00     0.002 C 
HETATM   23  C   UNL     1      37.952 -13.382  -1.733  1.00  0.00     0.002 C 
HETATM   24  C   UNL     1      38.253 -13.830  -0.303  1.00  0.00     0.025 C 
ENDBRANCH  17  20
ENDBRANCH  15  16
ENDBRANCH   6  15
BRANCH   5  25
HETATM   25  C   UNL     1      42.915 -16.106   5.324  1.00  0.00    -0.030 A 
HETATM   26  C   UNL     1      43.369 -14.899   4.763  1.00  0.00     0.012 A 
HETATM   27  C   UNL     1      44.167 -14.016   5.496  1.00  0.00     0.037 A 
HETATM   28  C   UNL     1      44.510 -14.293   6.817  1.00  0.00     0.068 A 
HETATM   29  C   UNL     1      44.041 -15.465   7.404  1.00  0.00     0.037 A 
HETATM   30  C   UNL     1      43.255 -16.361   6.664  1.00  0.00     0.012 A 
BRANCH  28  31
HETATM   31  O   UNL     1      45.298 -13.347   7.414  1.00  0.00    -0.356 OA
HETATM   32  C   UNL     1      44.779 -12.719   8.578  1.00  0.00     0.210 C 
ENDBRANCH  28  31
ENDBRANCH   5  25
TORSDOF 5
ENDMDL
MODEL 7
REMARK VINA RESULT:      -8.2      2.375      5.093
REMARK  5 active torsions:
REMARK  status: ('A' for Active; 'I' for Inactive)
REMARK    1  A    between atoms: C_5  and  C_6 
REMARK    2  A    between atoms: C_9  and  O_10 
REMARK    3  A    between atoms: N_14  and  C_15 
REMARK    4  A    between atoms: C_15  and  C_16 
REMARK       I    between atoms: C_16  and  N_17 
REMARK    5  A    between atoms: N_17  and  C_18 
ROOT
HETATM    1  C   UNL     1      41.822 -16.931   0.453  1.00  0.00     0.156 C 
HETATM    2  N   UNL     1      42.116 -17.122   1.853  1.00  0.00    -0.346 N 
HETATM    3  C   UNL     1      41.653 -16.363   2.872  1.00  0.00     0.113 A 
HETATM    4  C   UNL     1      42.154 -16.827   4.057  1.00  0.00     0.014 A 
HETATM    5  C   UNL     1      41.644 -16.015   5.190  1.00  0.00     0.158 A 
HETATM    6  N   UNL     1      40.718 -15.107   4.462  1.00  0.00    -0.325 N 
HETATM    7  C   UNL     1      40.738 -15.290   3.071  1.00  0.00     0.272 A 
HETATM    8  O   UNL     1      40.048 -14.724   2.240  1.00  0.00    -0.266 OA
HETATM    9  C   UNL     1      42.920 -17.975   3.789  1.00  0.00     0.002 A 
HETATM   10  C   UNL     1      42.886 -18.149   2.391  1.00  0.00     0.045 A 
HETATM   11  C   UNL     1      43.627 -18.899   4.580  1.00  0.00     0.014 A 
HETATM   12  C   UNL     1      44.273 -19.975   3.963  1.00  0.00     0.001 A 
HETATM   13  C   UNL     1      44.228 -20.134   2.580  1.00  0.00     0.002 A 
HETATM   14  C   UNL     1      43.539 -19.226   1.770  1.00  0.00     0.030 A 
ENDROOT
BRANCH   6  15
HETATM   15  C   UNL     1      39.515 -14.623   5.109  1.00  0.00     0.229 C 
BRANCH  15  16
HETATM   16  C   UNL     1      39.523 -13.140   5.453  1.00  0.00     0.235 C 
HETATM   17  N   UNL     1      39.673 -12.865   6.796  1.00  0.00    -0.355 N 
HETATM   18  H   UNL     1      39.781 -13.651   7.428  1.00  0.00     0.162 HD
HETATM   19  O   UNL     1      39.520 -12.277   4.578  1.00  0.00    -0.272 OA
BRANCH  17  20
HETATM   20  C   UNL     1      40.059 -11.543   7.235  1.00  0.00     0.084 C 
HETATM   21  C   UNL     1      39.659 -11.242   8.673  1.00  0.00     0.025 C 
HETATM   22  C   UNL     1      40.550 -10.059   9.025  1.00  0.00     0.002 C 
HETATM   23  C   UNL     1      41.889 -10.384   8.375  1.00  0.00     0.002 C 
HETATM   24  C   UNL     1      41.582 -11.352   7.232  1.00  0.00     0.025 C 
ENDBRANCH  17  20
ENDBRANCH  15  16
ENDBRANCH   6  15
BRANCH   5  25
HETATM   25  C   UNL     1      42.798 -15.285   5.850  1.00  0.00    -0.030 A 
HETATM   26  C   UNL     1      43.468 -15.739   6.999  1.00  0.00     0.012 A 
HETATM   27  C   UNL     1      44.517 -15.006   7.562  1.00  0.00     0.037 A 
HETATM   28  C   UNL     1      44.950 -13.817   6.979  1.00  0.00     0.068 A 
HETATM   29  C   UNL     1      44.324 -13.368   5.820  1.00  0.00     0.037 A 
HETATM   30  C   UNL     1      43.260 -14.093   5.264  1.00  0.00     0.012 A 
BRANCH  28  31
HETATM   31  O   UNL     1      45.980 -13.201   7.635  1.00  0.00    -0.356 OA
HETATM   32  C   UNL     1      45.637 -12.360   8.727  1.00  0.00     0.210 C 
ENDBRANCH  28  31
ENDBRANCH   5  25
TORSDOF 5
ENDMDL
MODEL 8
REMARK VINA RESULT:      -8.1      1.689      2.148
REMARK  5 active torsions:
REMARK  status: ('A' for Active; 'I' for Inactive)
REMARK    1  A    between atoms: C_5  and  C_6 
REMARK    2  A    between atoms: C_9  and  O_10 
REMARK    3  A    between atoms: N_14  and  C_15 
REMARK    4  A    between atoms: C_15  and  C_16 
REMARK       I    between atoms: C_16  and  N_17 
REMARK    5  A    between atoms: N_17  and  C_18 
ROOT
HETATM    1  C   UNL     1      43.874 -19.512   7.217  1.00  0.00     0.156 C 
HETATM    2  N   UNL     1      43.799 -18.858   5.933  1.00  0.00    -0.346 N 
HETATM    3  C   UNL     1      43.591 -17.538   5.726  1.00  0.00     0.113 A 
HETATM    4  C   UNL     1      43.563 -17.281   4.383  1.00  0.00     0.014 A 
HETATM    5  C   UNL     1      43.351 -15.833   4.136  1.00  0.00     0.158 A 
HETATM    6  N   UNL     1      43.366 -15.326   5.535  1.00  0.00    -0.325 N 
HETATM    7  C   UNL     1      43.482 -16.343   6.494  1.00  0.00     0.272 A 
HETATM    8  O   UNL     1      43.572 -16.214   7.703  1.00  0.00    -0.266 OA
HETATM    9  C   UNL     1      43.830 -18.481   3.702  1.00  0.00     0.002 A 
HETATM   10  C   UNL     1      43.978 -19.469   4.696  1.00  0.00     0.045 A 
HETATM   11  C   UNL     1      43.981 -18.838   2.350  1.00  0.00     0.014 A 
HETATM   12  C   UNL     1      44.283 -20.163   2.020  1.00  0.00     0.001 A 
HETATM   13  C   UNL     1      44.428 -21.127   3.015  1.00  0.00     0.002 A 
HETATM   14  C   UNL     1      44.276 -20.801   4.366  1.00  0.00     0.030 A 
ENDROOT
BRANCH   6  15
HETATM   15  C   UNL     1      43.876 -14.001   5.822  1.00  0.00     0.229 C 
BRANCH  15  16
HETATM   16  C   UNL     1      42.844 -12.885   5.749  1.00  0.00     0.235 C 
HETATM   17  N   UNL     1      42.357 -12.475   6.973  1.00  0.00    -0.355 N 
HETATM   18  H   UNL     1      42.729 -12.926   7.802  1.00  0.00     0.162 HD
HETATM   19  O   UNL     1      42.574 -12.326   4.688  1.00  0.00    -0.272 OA
BRANCH  17  20
HETATM   20  C   UNL     1      41.665 -11.212   7.101  1.00  0.00     0.084 C 
HETATM   21  C   UNL     1      40.156 -11.360   7.239  1.00  0.00     0.025 C 
HETATM   22  C   UNL     1      39.740 -10.013   7.811  1.00  0.00     0.002 C 
HETATM   23  C   UNL     1      40.837  -9.670   8.812  1.00  0.00     0.002 C 
HETATM   24  C   UNL     1      42.074 -10.452   8.370  1.00  0.00     0.025 C 
ENDBRANCH  17  20
ENDBRANCH  15  16
ENDBRANCH   6  15
BRANCH   5  25
HETATM   25  C   UNL     1      42.017 -15.627   3.443  1.00  0.00    -0.030 A 
HETATM   26  C   UNL     1      40.839 -15.229   4.099  1.00  0.00     0.012 A 
HETATM   27  C   UNL     1      39.639 -15.072   3.398  1.00  0.00     0.037 A 
HETATM   28  C   UNL     1      39.585 -15.275   2.021  1.00  0.00     0.068 A 
HETATM   29  C   UNL     1      40.749 -15.635   1.347  1.00  0.00     0.037 A 
HETATM   30  C   UNL     1      41.949 -15.810   2.051  1.00  0.00     0.012 A 
BRANCH  28  31
HETATM   31  O   UNL     1      38.350 -15.091   1.464  1.00  0.00    -0.356 OA
HETATM   32  C   UNL     1      38.205 -13.998   0.567  1.00  0.00     0.210 C 
ENDBRANCH  28  31
ENDBRANCH   5  25
TORSDOF 5
ENDMDL
MODEL 9
REMARK VINA RESULT:      -8.0      1.640      2.304
REMARK  5 active torsions:
REMARK  status: ('A' for Active; 'I' for Inactive)
REMARK    1  A    between atoms: C_5  and  C_6 
REMARK    2  A    between atoms: C_9  and  O_10 
REMARK    3  A    between atoms: N_14  and  C_15 
REMARK    4  A    between atoms: C_15  and  C_16 
REMARK       I    between atoms: C_16  and  N_17 
REMARK    5  A    between atoms: N_17  and  C_18 
ROOT
HETATM    1  C   UNL     1      43.591 -19.202   6.683  1.00  0.00     0.156 C 
HETATM    2  N   UNL     1      43.566 -18.543   5.399  1.00  0.00    -0.346 N 
HETATM    3  C   UNL     1      43.353 -17.224   5.189  1.00  0.00     0.113 A 
HETATM    4  C   UNL     1      43.382 -16.961   3.848  1.00  0.00     0.014 A 
HETATM    5  C   UNL     1      43.164 -15.514   3.597  1.00  0.00     0.158 A 
HETATM    6  N   UNL     1      43.110 -15.014   4.997  1.00  0.00    -0.325 N 
HETATM    7  C   UNL     1      43.195 -16.034   5.956  1.00  0.00     0.272 A 
HETATM    8  O   UNL     1      43.229 -15.910   7.168  1.00  0.00    -0.266 OA
HETATM    9  C   UNL     1      43.693 -18.155   3.173  1.00  0.00     0.002 A 
HETATM   10  C   UNL     1      43.808 -19.146   4.169  1.00  0.00     0.045 A 
HETATM   11  C   UNL     1      43.909 -18.504   1.828  1.00  0.00     0.014 A 
HETATM   12  C   UNL     1      44.240 -19.824   1.507  1.00  0.00     0.001 A 
HETATM   13  C   UNL     1      44.351 -20.791   2.503  1.00  0.00     0.002 A 
HETATM   14  C   UNL     1      44.136 -20.473   3.848  1.00  0.00     0.030 A 
ENDROOT
BRANCH   6  15
HETATM   15  C   UNL     1      43.591 -13.684   5.313  1.00  0.00     0.229 C 
BRANCH  15  16
HETATM   16  C   UNL     1      42.515 -12.611   5.380  1.00  0.00     0.235 C 
HETATM   17  N   UNL     1      42.108 -12.131   4.153  1.00  0.00    -0.355 N 
HETATM   18  H   UNL     1      42.535 -12.534   3.326  1.00  0.00     0.162 HD
HETATM   19  O   UNL     1      41.980 -12.302   6.443  1.00  0.00    -0.272 OA
BRANCH  17  20
HETATM   20  C   UNL     1      40.869 -11.396   4.028  1.00  0.00     0.084 C 
HETATM   21  C   UNL     1      40.738 -10.653   2.705  1.00  0.00     0.025 C 
HETATM   22  C   UNL     1      39.243 -10.380   2.624  1.00  0.00     0.002 C 
HETATM   23  C   UNL     1      38.594 -11.651   3.160  1.00  0.00     0.002 C 
HETATM   24  C   UNL     1      39.642 -12.318   4.051  1.00  0.00     0.025 C 
ENDBRANCH  17  20
ENDBRANCH  15  16
ENDBRANCH   6  15
BRANCH   5  25
HETATM   25  C   UNL     1      41.860 -15.321   2.846  1.00  0.00    -0.030 A 
HETATM   26  C   UNL     1      40.632 -15.884   3.235  1.00  0.00     0.012 A 
HETATM   27  C   UNL     1      39.470 -15.674   2.487  1.00  0.00     0.037 A 
HETATM   28  C   UNL     1      39.491 -14.873   1.347  1.00  0.00     0.068 A 
HETATM   29  C   UNL     1      40.689 -14.277   0.964  1.00  0.00     0.037 A 
HETATM   30  C   UNL     1      41.859 -14.500   1.704  1.00  0.00     0.012 A 
BRANCH  28  31
HETATM   31  O   UNL     1      38.287 -14.756   0.709  1.00  0.00    -0.356 OA
HETATM   32  C   UNL     1      38.021 -13.521   0.058  1.00  0.00     0.210 C 
ENDBRANCH  28  31
ENDBRANCH   5  25
TORSDOF 5
ENDMDL
MODEL 10
REMARK VINA RESULT:      -8.0      1.956      7.910
REMARK  5 active torsions:
REMARK  status: ('A' for Active; 'I' for Inactive)
REMARK    1  A    between atoms: C_5  and  C_6 
REMARK    2  A    between atoms: C_9  and  O_10 
REMARK    3  A    between atoms: N_14  and  C_15 
REMARK    4  A    between atoms: C_15  and  C_16 
REMARK       I    between atoms: C_16  and  N_17 
REMARK    5  A    between atoms: N_17  and  C_18 
ROOT
HETATM    1  C   UNL     1      38.605 -14.302   1.772  1.00  0.00     0.156 C 
HETATM    2  N   UNL     1      39.819 -14.097   2.525  1.00  0.00    -0.346 N 
HETATM    3  C   UNL     1      40.861 -14.957   2.599  1.00  0.00     0.113 A 
HETATM    4  C   UNL     1      41.826 -14.440   3.418  1.00  0.00     0.014 A 
HETATM    5  C   UNL     1      42.986 -15.363   3.500  1.00  0.00     0.158 A 
HETATM    6  N   UNL     1      42.555 -16.407   2.533  1.00  0.00    -0.325 N 
HETATM    7  C   UNL     1      41.272 -16.186   2.010  1.00  0.00     0.272 A 
HETATM    8  O   UNL     1      40.693 -16.847   1.164  1.00  0.00    -0.266 OA
HETATM    9  C   UNL     1      41.411 -13.164   3.835  1.00  0.00     0.002 A 
HETATM   10  C   UNL     1      40.139 -12.961   3.261  1.00  0.00     0.045 A 
HETATM   11  C   UNL     1      41.979 -12.146   4.623  1.00  0.00     0.014 A 
HETATM   12  C   UNL     1      41.276 -10.953   4.813  1.00  0.00     0.001 A 
HETATM   13  C   UNL     1      40.022 -10.767   4.237  1.00  0.00     0.002 A 
HETATM   14  C   UNL     1      39.430 -11.764   3.455  1.00  0.00     0.030 A 
ENDROOT
BRANCH   6  15
HETATM   15  C   UNL     1      43.541 -17.123   1.748  1.00  0.00     0.229 C 
BRANCH  15  16
HETATM   16  C   UNL     1      43.539 -18.633   1.938  1.00  0.00     0.235 C 
HETATM   17  N   UNL     1      44.251 -19.073   3.034  1.00  0.00    -0.355 N 
HETATM   18  H   UNL     1      44.693 -18.372   3.620  1.00  0.00     0.162 HD
HETATM   19  O   UNL     1      42.851 -19.369   1.234  1.00  0.00    -0.272 OA
BRANCH  17  20
HETATM   20  C   UNL     1      44.050 -20.408   3.552  1.00  0.00     0.084 C 
HETATM   21  C   UNL     1      44.715 -21.490   2.711  1.00  0.00     0.025 C 
HETATM   22  C   UNL     1      44.766 -22.671   3.669  1.00  0.00     0.002 C 
HETATM   23  C   UNL     1      45.117 -22.053   5.017  1.00  0.00     0.002 C 
HETATM   24  C   UNL     1      44.673 -20.592   4.942  1.00  0.00     0.025 C 
ENDBRANCH  17  20
ENDBRANCH  15  16
ENDBRANCH   6  15
BRANCH   5  25
HETATM   25  C   UNL     1      43.119 -15.885   4.918  1.00  0.00    -0.030 A 
HETATM   26  C   UNL     1      42.581 -17.104   5.366  1.00  0.00     0.012 A 
HETATM   27  C   UNL     1      42.731 -17.517   6.693  1.00  0.00     0.037 A 
HETATM   28  C   UNL     1      43.447 -16.744   7.605  1.00  0.00     0.068 A 
HETATM   29  C   UNL     1      44.019 -15.550   7.172  1.00  0.00     0.037 A 
HETATM   30  C   UNL     1      43.854 -15.126   5.846  1.00  0.00     0.012 A 
BRANCH  28  31
HETATM   31  O   UNL     1      43.512 -17.263   8.868  1.00  0.00    -0.356 OA
HETATM   32  C   UNL     1      44.168 -18.515   9.016  1.00  0.00     0.210 C 
ENDBRANCH  28  31
ENDBRANCH   5  25
TORSDOF 5
ENDMDL
