MODEL 1
REMARK VINA RESULT:      -8.5      0.000      0.000
REMARK  3 active torsions:
REMARK  status: ('A' for Active; 'I' for Inactive)
REMARK    1  A    between atoms: C_4  and  N_5 
REMARK       I    between atoms: N_5  and  C_6 
REMARK    2  A    between atoms: C_6  and  C_7 
REMARK    3  A    between atoms: C_7  and  C_8 
ROOT
HETATM    1  C   UNL     1      42.497 -16.617   5.740  1.00  0.00     0.286 C 
HETATM    2  N   UNL     1      43.217 -15.861   4.625  1.00  0.00    -0.056 N 
HETATM    3  H   UNL     1      43.192 -14.865   4.878  1.00  0.00     0.278 HD
HETATM    4  H   UNL     1      44.230 -16.099   4.681  1.00  0.00     0.278 HD
HETATM    5  C   UNL     1      42.694 -16.000   3.225  1.00  0.00     0.209 C 
HETATM    6  C   UNL     1      41.161 -15.793   3.229  1.00  0.00     0.115 C 
HETATM    7  N   UNL     1      40.490 -16.581   4.258  1.00  0.00    -0.353 N 
HETATM    8  C   UNL     1      40.978 -16.727   5.532  1.00  0.00     0.249 C 
HETATM    9  O   UNL     1      40.221 -17.036   6.447  1.00  0.00    -0.271 OA
HETATM   10  C   UNL     1      43.135 -17.326   2.607  1.00  0.00     0.035 C 
HETATM   11  C   UNL     1      42.533 -17.510   1.216  1.00  0.00     0.002 C 
HETATM   12  C   UNL     1      41.010 -17.403   1.258  1.00  0.00     0.002 C 
HETATM   13  C   UNL     1      40.559 -16.067   1.845  1.00  0.00     0.027 C 
HETATM   14  H   UNL     1      39.472 -16.630   4.232  1.00  0.00     0.163 HD
ENDROOT
BRANCH   1  15
HETATM   15  C   UNL     1      43.048 -18.031   5.989  1.00  0.00     0.146 C 
BRANCH  15  16
HETATM   16  C   UNL     1      44.547 -18.076   6.063  1.00  0.00     0.224 C 
HETATM   17  N   UNL     1      45.273 -19.102   5.549  1.00  0.00    -0.327 N 
HETATM   18  H   UNL     1      46.263 -18.993   5.754  1.00  0.00     0.169 HD
HETATM   19  O   UNL     1      45.147 -17.126   6.586  1.00  0.00    -0.273 OA
BRANCH  17  20
HETATM   20  C   UNL     1      44.957 -20.254   4.798  1.00  0.00     0.035 A 
HETATM   21  C   UNL     1      44.685 -20.294   3.429  1.00  0.00     0.036 A 
HETATM   22  C   UNL     1      44.401 -21.509   2.779  1.00  0.00    -0.060 A 
HETATM   23  C   UNL     1      44.131 -21.550   1.302  1.00  0.00     0.048 C 
HETATM   24  C   UNL     1      44.400 -22.697   3.513  1.00  0.00     0.007 A 
HETATM   25  C   UNL     1      44.675 -22.675   4.875  1.00  0.00     0.003 A 
HETATM   26  C   UNL     1      44.955 -21.463   5.509  1.00  0.00     0.029 A 
ENDBRANCH  17  20
ENDBRANCH  15  16
ENDBRANCH   1  15
TORSDOF 3
ENDMDL
MODEL 2
REMARK VINA RESULT:      -7.9      1.538      2.177
REMARK  3 active torsions:
REMARK  status: ('A' for Active; 'I' for Inactive)
REMARK    1  A    between atoms: C_4  and  N_5 
REMARK       I    between atoms: N_5  and  C_6 
REMARK    2  A    between atoms: C_6  and  C_7 
REMARK    3  A    between atoms: C_7  and  C_8 
ROOT
HETATM    1  C   UNL     1      42.235 -14.874   5.134  1.00  0.00     0.286 C 
HETATM    2  N   UNL     1      43.222 -14.810   3.969  1.00  0.00    -0.056 N 
HETATM    3  H   UNL     1      43.286 -13.824   3.689  1.00  0.00     0.278 HD
HETATM    4  H   UNL     1      44.171 -15.018   4.346  1.00  0.00     0.278 HD
HETATM    5  C   UNL     1      42.923 -15.626   2.746  1.00  0.00     0.209 C 
HETATM    6  C   UNL     1      41.452 -15.400   2.327  1.00  0.00     0.115 C 
HETATM    7  N   UNL     1      40.523 -15.535   3.444  1.00  0.00    -0.353 N 
HETATM    8  C   UNL     1      40.770 -15.029   4.695  1.00  0.00     0.249 C 
HETATM    9  O   UNL     1      39.838 -14.807   5.461  1.00  0.00    -0.271 OA
HETATM   10  C   UNL     1      43.283 -17.094   2.966  1.00  0.00     0.035 C 
HETATM   11  C   UNL     1      42.900 -17.941   1.756  1.00  0.00     0.002 C 
HETATM   12  C   UNL     1      41.419 -17.782   1.420  1.00  0.00     0.002 C 
HETATM   13  C   UNL     1      41.056 -16.320   1.165  1.00  0.00     0.027 C 
HETATM   14  H   UNL     1      39.525 -15.560   3.233  1.00  0.00     0.163 HD
ENDROOT
BRANCH   1  15
HETATM   15  C   UNL     1      42.546 -15.981   6.154  1.00  0.00     0.146 C 
BRANCH  15  16
HETATM   16  C   UNL     1      43.968 -15.956   6.638  1.00  0.00     0.224 C 
HETATM   17  N   UNL     1      44.691 -17.087   6.837  1.00  0.00    -0.327 N 
HETATM   18  H   UNL     1      45.606 -16.876   7.230  1.00  0.00     0.169 HD
HETATM   19  O   UNL     1      44.512 -14.859   6.833  1.00  0.00    -0.273 OA
BRANCH  17  20
HETATM   20  C   UNL     1      44.458 -18.459   6.611  1.00  0.00     0.035 A 
HETATM   21  C   UNL     1      44.775 -19.166   5.449  1.00  0.00     0.036 A 
HETATM   22  C   UNL     1      44.513 -20.544   5.341  1.00  0.00    -0.060 A 
HETATM   23  C   UNL     1      44.876 -21.305   4.098  1.00  0.00     0.048 C 
HETATM   24  C   UNL     1      43.935 -21.220   6.418  1.00  0.00     0.007 A 
HETATM   25  C   UNL     1      43.619 -20.532   7.583  1.00  0.00     0.003 A 
HETATM   26  C   UNL     1      43.882 -19.164   7.678  1.00  0.00     0.029 A 
ENDBRANCH  17  20
ENDBRANCH  15  16
ENDBRANCH   1  15
TORSDOF 3
ENDMDL
MODEL 3
REMARK VINA RESULT:      -7.8      2.390      5.306
REMARK  3 active torsions:
REMARK  status: ('A' for Active; 'I' for Inactive)
REMARK    1  A    between atoms: C_4  and  N_5 
REMARK       I    between atoms: N_5  and  C_6 
REMARK    2  A    between atoms: C_6  and  C_7 
REMARK    3  A    between atoms: C_7  and  C_8 
ROOT
HETATM    1  C   UNL     1      43.779 -19.572   5.568  1.00  0.00     0.286 C 
HETATM    2  N   UNL     1      42.554 -18.851   5.006  1.00  0.00    -0.056 N 
HETATM    3  H   UNL     1      41.783 -19.531   5.011  1.00  0.00     0.278 HD
HETATM    4  H   UNL     1      42.255 -18.140   5.706  1.00  0.00     0.278 HD
HETATM    5  C   UNL     1      42.651 -18.264   3.628  1.00  0.00     0.209 C 
HETATM    6  C   UNL     1      43.251 -19.315   2.665  1.00  0.00     0.115 C 
HETATM    7  N   UNL     1      44.460 -19.938   3.196  1.00  0.00    -0.353 N 
HETATM    8  C   UNL     1      44.596 -20.324   4.505  1.00  0.00     0.249 C 
HETATM    9  O   UNL     1      45.423 -21.178   4.809  1.00  0.00    -0.271 OA
HETATM   10  C   UNL     1      43.415 -16.941   3.651  1.00  0.00     0.035 C 
HETATM   11  C   UNL     1      43.591 -16.385   2.240  1.00  0.00     0.002 C 
HETATM   12  C   UNL     1      44.277 -17.400   1.330  1.00  0.00     0.002 C 
HETATM   13  C   UNL     1      43.503 -18.717   1.276  1.00  0.00     0.027 C 
HETATM   14  H   UNL     1      45.010 -20.523   2.567  1.00  0.00     0.163 HD
ENDROOT
BRANCH   1  15
HETATM   15  C   UNL     1      44.738 -18.655   6.345  1.00  0.00     0.146 C 
BRANCH  15  16
HETATM   16  C   UNL     1      44.214 -18.261   7.696  1.00  0.00     0.224 C 
HETATM   17  N   UNL     1      43.584 -17.080   7.919  1.00  0.00    -0.327 N 
HETATM   18  H   UNL     1      43.362 -16.959   8.905  1.00  0.00     0.169 HD
HETATM   19  O   UNL     1      44.333 -19.059   8.637  1.00  0.00    -0.273 OA
BRANCH  17  20
HETATM   20  C   UNL     1      43.169 -16.013   7.095  1.00  0.00     0.035 A 
HETATM   21  C   UNL     1      41.896 -15.845   6.546  1.00  0.00     0.036 A 
HETATM   22  C   UNL     1      41.588 -14.726   5.751  1.00  0.00    -0.060 A 
HETATM   23  C   UNL     1      40.211 -14.538   5.182  1.00  0.00     0.048 C 
HETATM   24  C   UNL     1      42.569 -13.760   5.513  1.00  0.00     0.007 A 
HETATM   25  C   UNL     1      43.839 -13.911   6.057  1.00  0.00     0.003 A 
HETATM   26  C   UNL     1      44.133 -15.025   6.844  1.00  0.00     0.029 A 
ENDBRANCH  17  20
ENDBRANCH  15  16
ENDBRANCH   1  15
TORSDOF 3
ENDMDL
MODEL 4
REMARK VINA RESULT:      -7.7      2.072      2.861
REMARK  3 active torsions:
REMARK  status: ('A' for Active; 'I' for Inactive)
REMARK    1  A    between atoms: C_4  and  N_5 
REMARK       I    between atoms: N_5  and  C_6 
REMARK    2  A    between atoms: C_6  and  C_7 
REMARK    3  A    between atoms: C_7  and  C_8 
ROOT
HETATM    1  C   UNL     1      41.259 -17.179   3.216  1.00  0.00     0.286 C 
HETATM    2  N   UNL     1      40.657 -16.149   4.171  1.00  0.00    -0.056 N 
HETATM    3  H   UNL     1      39.824 -16.584   4.587  1.00  0.00     0.278 HD
HETATM    4  H   UNL     1      41.306 -16.047   4.979  1.00  0.00     0.278 HD
HETATM    5  C   UNL     1      40.258 -14.816   3.610  1.00  0.00     0.209 C 
HETATM    6  C   UNL     1      39.431 -15.029   2.321  1.00  0.00     0.115 C 
HETATM    7  N   UNL     1      40.063 -15.964   1.395  1.00  0.00    -0.353 N 
HETATM    8  C   UNL     1      40.671 -17.126   1.797  1.00  0.00     0.249 C 
HETATM    9  O   UNL     1      40.820 -18.047   1.000  1.00  0.00    -0.271 OA
HETATM   10  C   UNL     1      41.479 -13.918   3.417  1.00  0.00     0.035 C 
HETATM   11  C   UNL     1      41.089 -12.593   2.766  1.00  0.00     0.002 C 
HETATM   12  C   UNL     1      40.361 -12.824   1.443  1.00  0.00     0.002 C 
HETATM   13  C   UNL     1      39.120 -13.695   1.631  1.00  0.00     0.027 C 
HETATM   14  H   UNL     1      39.671 -16.043   0.457  1.00  0.00     0.163 HD
ENDROOT
BRANCH   1  15
HETATM   15  C   UNL     1      42.790 -17.100   3.101  1.00  0.00     0.146 C 
BRANCH  15  16
HETATM   16  C   UNL     1      43.485 -17.123   4.432  1.00  0.00     0.224 C 
HETATM   17  N   UNL     1      44.025 -18.254   4.954  1.00  0.00    -0.327 N 
HETATM   18  H   UNL     1      44.390 -18.092   5.889  1.00  0.00     0.169 HD
HETATM   19  O   UNL     1      43.597 -16.064   5.065  1.00  0.00    -0.273 OA
BRANCH  17  20
HETATM   20  C   UNL     1      44.196 -19.573   4.483  1.00  0.00     0.035 A 
HETATM   21  C   UNL     1      44.067 -19.997   3.159  1.00  0.00     0.036 A 
HETATM   22  C   UNL     1      44.281 -21.340   2.801  1.00  0.00    -0.060 A 
HETATM   23  C   UNL     1      44.163 -21.788   1.372  1.00  0.00     0.048 C 
HETATM   24  C   UNL     1      44.638 -22.266   3.784  1.00  0.00     0.007 A 
HETATM   25  C   UNL     1      44.776 -21.858   5.106  1.00  0.00     0.003 A 
HETATM   26  C   UNL     1      44.561 -20.522   5.450  1.00  0.00     0.029 A 
ENDBRANCH  17  20
ENDBRANCH  15  16
ENDBRANCH   1  15
TORSDOF 3
ENDMDL
MODEL 5
REMARK VINA RESULT:      -7.5      2.732      4.499
REMARK  3 active torsions:
REMARK  status: ('A' for Active; 'I' for Inactive)
REMARK    1  A    between atoms: C_4  and  N_5 
REMARK       I    between atoms: N_5  and  C_6 
REMARK    2  A    between atoms: C_6  and  C_7 
REMARK    3  A    between atoms: C_7  and  C_8 
ROOT
HETATM    1  C   UNL     1      41.950 -15.094   2.930  1.00  0.00     0.286 C 
HETATM    2  N   UNL     1      41.428 -15.575   4.284  1.00  0.00    -0.056 N 
HETATM    3  H   UNL     1      40.476 -15.202   4.383  1.00  0.00     0.278 HD
HETATM    4  H   UNL     1      41.280 -16.604   4.220  1.00  0.00     0.278 HD
HETATM    5  C   UNL     1      42.206 -15.203   5.512  1.00  0.00     0.209 C 
HETATM    6  C   UNL     1      42.536 -13.693   5.473  1.00  0.00     0.115 C 
HETATM    7  N   UNL     1      43.098 -13.274   4.193  1.00  0.00    -0.353 N 
HETATM    8  C   UNL     1      42.626 -13.714   2.982  1.00  0.00     0.249 C 
HETATM    9  O   UNL     1      42.836 -13.058   1.967  1.00  0.00    -0.271 OA
HETATM   10  C   UNL     1      43.435 -16.098   5.672  1.00  0.00     0.035 C 
HETATM   11  C   UNL     1      44.275 -15.668   6.871  1.00  0.00     0.002 C 
HETATM   12  C   UNL     1      44.676 -14.198   6.763  1.00  0.00     0.002 C 
HETATM   13  C   UNL     1      43.452 -13.292   6.635  1.00  0.00     0.027 C 
HETATM   14  H   UNL     1      43.490 -12.334   4.130  1.00  0.00     0.163 HD
ENDROOT
BRANCH   1  15
HETATM   15  C   UNL     1      42.921 -16.075   2.254  1.00  0.00     0.146 C 
BRANCH  15  16
HETATM   16  C   UNL     1      42.232 -17.073   1.369  1.00  0.00     0.224 C 
HETATM   17  N   UNL     1      42.462 -18.408   1.455  1.00  0.00    -0.327 N 
HETATM   18  H   UNL     1      41.959 -18.918   0.732  1.00  0.00     0.169 HD
HETATM   19  O   UNL     1      41.396 -16.666   0.549  1.00  0.00    -0.273 OA
BRANCH  17  20
HETATM   20  C   UNL     1      43.223 -19.223   2.319  1.00  0.00     0.035 A 
HETATM   21  C   UNL     1      43.572 -18.923   3.638  1.00  0.00     0.036 A 
HETATM   22  C   UNL     1      44.321 -19.824   4.416  1.00  0.00    -0.060 A 
HETATM   23  C   UNL     1      44.674 -19.507   5.840  1.00  0.00     0.048 C 
HETATM   24  C   UNL     1      44.714 -21.046   3.864  1.00  0.00     0.007 A 
HETATM   25  C   UNL     1      44.370 -21.362   2.555  1.00  0.00     0.003 A 
HETATM   26  C   UNL     1      43.627 -20.459   1.793  1.00  0.00     0.029 A 
ENDBRANCH  17  20
ENDBRANCH  15  16
ENDBRANCH   1  15
TORSDOF 3
ENDMDL
MODEL 6
REMARK VINA RESULT:      -7.5      1.648      2.317
REMARK  3 active torsions:
REMARK  status: ('A' for Active; 'I' for Inactive)
REMARK    1  A    between atoms: C_4  and  N_5 
REMARK       I    between atoms: N_5  and  C_6 
REMARK    2  A    between atoms: C_6  and  C_7 
REMARK    3  A    between atoms: C_7  and  C_8 
ROOT
HETATM    1  C   UNL     1      42.159 -14.545   5.599  1.00  0.00     0.286 C 
HETATM    2  N   UNL     1      41.866 -13.419   4.608  1.00  0.00    -0.056 N 
HETATM    3  H   UNL     1      41.206 -12.782   5.071  1.00  0.00     0.278 HD
HETATM    4  H   UNL     1      42.731 -12.846   4.513  1.00  0.00     0.278 HD
HETATM    5  C   UNL     1      41.297 -13.789   3.269  1.00  0.00     0.209 C 
HETATM    6  C   UNL     1      40.116 -14.768   3.467  1.00  0.00     0.115 C 
HETATM    7  N   UNL     1      40.446 -15.872   4.364  1.00  0.00    -0.353 N 
HETATM    8  C   UNL     1      41.163 -15.713   5.522  1.00  0.00     0.249 C 
HETATM    9  O   UNL     1      41.072 -16.546   6.419  1.00  0.00    -0.271 OA
HETATM   10  C   UNL     1      42.388 -14.319   2.340  1.00  0.00     0.035 C 
HETATM   11  C   UNL     1      41.799 -14.777   1.008  1.00  0.00     0.002 C 
HETATM   12  C   UNL     1      40.704 -15.819   1.220  1.00  0.00     0.002 C 
HETATM   13  C   UNL     1      39.592 -15.287   2.123  1.00  0.00     0.027 C 
HETATM   14  H   UNL     1      39.786 -16.646   4.428  1.00  0.00     0.163 HD
ENDROOT
BRANCH   1  15
HETATM   15  C   UNL     1      43.579 -15.121   5.483  1.00  0.00     0.146 C 
BRANCH  15  16
HETATM   16  C   UNL     1      43.907 -16.108   6.567  1.00  0.00     0.224 C 
HETATM   17  N   UNL     1      44.106 -17.427   6.318  1.00  0.00    -0.327 N 
HETATM   18  H   UNL     1      44.248 -17.949   7.180  1.00  0.00     0.169 HD
HETATM   19  O   UNL     1      44.031 -15.697   7.730  1.00  0.00    -0.273 OA
BRANCH  17  20
HETATM   20  C   UNL     1      44.169 -18.211   5.146  1.00  0.00     0.035 A 
HETATM   21  C   UNL     1      43.797 -17.803   3.864  1.00  0.00     0.036 A 
HETATM   22  C   UNL     1      43.922 -18.667   2.761  1.00  0.00    -0.060 A 
HETATM   23  C   UNL     1      43.542 -18.217   1.379  1.00  0.00     0.048 C 
HETATM   24  C   UNL     1      44.436 -19.952   2.949  1.00  0.00     0.007 A 
HETATM   25  C   UNL     1      44.816 -20.371   4.219  1.00  0.00     0.003 A 
HETATM   26  C   UNL     1      44.687 -19.505   5.306  1.00  0.00     0.029 A 
ENDBRANCH  17  20
ENDBRANCH  15  16
ENDBRANCH   1  15
TORSDOF 3
ENDMDL
MODEL 7
REMARK VINA RESULT:      -7.4      2.482      4.708
REMARK  3 active torsions:
REMARK  status: ('A' for Active; 'I' for Inactive)
REMARK    1  A    between atoms: C_4  and  N_5 
REMARK       I    between atoms: N_5  and  C_6 
REMARK    2  A    between atoms: C_6  and  C_7 
REMARK    3  A    between atoms: C_7  and  C_8 
ROOT
HETATM    1  C   UNL     1      40.559 -15.390   4.853  1.00  0.00     0.286 C 
HETATM    2  N   UNL     1      40.584 -16.874   5.220  1.00  0.00    -0.056 N 
HETATM    3  H   UNL     1      39.793 -17.034   5.857  1.00  0.00     0.278 HD
HETATM    4  H   UNL     1      40.322 -17.416   4.369  1.00  0.00     0.278 HD
HETATM    5  C   UNL     1      41.823 -17.420   5.864  1.00  0.00     0.209 C 
HETATM    6  C   UNL     1      42.255 -16.486   7.019  1.00  0.00     0.115 C 
HETATM    7  N   UNL     1      42.291 -15.082   6.622  1.00  0.00    -0.353 N 
HETATM    8  C   UNL     1      41.329 -14.497   5.838  1.00  0.00     0.249 C 
HETATM    9  O   UNL     1      41.175 -13.280   5.864  1.00  0.00    -0.271 OA
HETATM   10  C   UNL     1      42.918 -17.662   4.826  1.00  0.00     0.035 C 
HETATM   11  C   UNL     1      44.208 -18.136   5.489  1.00  0.00     0.002 C 
HETATM   12  C   UNL     1      44.673 -17.149   6.557  1.00  0.00     0.002 C 
HETATM   13  C   UNL     1      43.596 -16.924   7.618  1.00  0.00     0.027 C 
HETATM   14  H   UNL     1      42.713 -14.416   7.268  1.00  0.00     0.163 HD
ENDROOT
BRANCH   1  15
HETATM   15  C   UNL     1      41.074 -15.091   3.435  1.00  0.00     0.146 C 
BRANCH  15  16
HETATM   16  C   UNL     1      40.257 -15.748   2.359  1.00  0.00     0.224 C 
HETATM   17  N   UNL     1      40.733 -16.769   1.602  1.00  0.00    -0.327 N 
HETATM   18  H   UNL     1      40.066 -17.038   0.883  1.00  0.00     0.169 HD
HETATM   19  O   UNL     1      39.093 -15.365   2.177  1.00  0.00    -0.273 OA
BRANCH  17  20
HETATM   20  C   UNL     1      41.922 -17.529   1.606  1.00  0.00     0.035 A 
HETATM   21  C   UNL     1      42.015 -18.909   1.797  1.00  0.00     0.036 A 
HETATM   22  C   UNL     1      43.258 -19.567   1.760  1.00  0.00    -0.060 A 
HETATM   23  C   UNL     1      43.351 -21.054   1.943  1.00  0.00     0.048 C 
HETATM   24  C   UNL     1      44.419 -18.829   1.520  1.00  0.00     0.007 A 
HETATM   25  C   UNL     1      44.342 -17.455   1.322  1.00  0.00     0.003 A 
HETATM   26  C   UNL     1      43.103 -16.813   1.361  1.00  0.00     0.029 A 
ENDBRANCH  17  20
ENDBRANCH  15  16
ENDBRANCH   1  15
TORSDOF 3
ENDMDL
MODEL 8
REMARK VINA RESULT:      -7.4      2.302      3.470
REMARK  3 active torsions:
REMARK  status: ('A' for Active; 'I' for Inactive)
REMARK    1  A    between atoms: C_4  and  N_5 
REMARK       I    between atoms: N_5  and  C_6 
REMARK    2  A    between atoms: C_6  and  C_7 
REMARK    3  A    between atoms: C_7  and  C_8 
ROOT
HETATM    1  C   UNL     1      41.071 -16.634   3.219  1.00  0.00     0.286 C 
HETATM    2  N   UNL     1      40.269 -15.593   3.999  1.00  0.00    -0.056 N 
HETATM    3  H   UNL     1      39.488 -16.092   4.442  1.00  0.00     0.278 HD
HETATM    4  H   UNL     1      40.850 -15.285   4.808  1.00  0.00     0.278 HD
HETATM    5  C   UNL     1      39.708 -14.424   3.244  1.00  0.00     0.209 C 
HETATM    6  C   UNL     1      38.995 -14.931   1.969  1.00  0.00     0.115 C 
HETATM    7  N   UNL     1      39.811 -15.871   1.206  1.00  0.00    -0.353 N 
HETATM    8  C   UNL     1      40.562 -16.861   1.787  1.00  0.00     0.249 C 
HETATM    9  O   UNL     1      40.891 -17.845   1.132  1.00  0.00    -0.271 OA
HETATM   10  C   UNL     1      40.791 -13.380   2.970  1.00  0.00     0.035 C 
HETATM   11  C   UNL     1      40.245 -12.231   2.128  1.00  0.00     0.002 C 
HETATM   12  C   UNL     1      39.635 -12.745   0.826  1.00  0.00     0.002 C 
HETATM   13  C   UNL     1      38.529 -13.765   1.090  1.00  0.00     0.027 C 
HETATM   14  H   UNL     1      39.488 -16.134   0.275  1.00  0.00     0.163 HD
ENDROOT
BRANCH   1  15
HETATM   15  C   UNL     1      42.577 -16.334   3.148  1.00  0.00     0.146 C 
BRANCH  15  16
HETATM   16  C   UNL     1      43.259 -16.411   4.484  1.00  0.00     0.224 C 
HETATM   17  N   UNL     1      43.867 -17.540   4.929  1.00  0.00    -0.327 N 
HETATM   18  H   UNL     1      44.212 -17.424   5.879  1.00  0.00     0.169 HD
HETATM   19  O   UNL     1      43.294 -15.396   5.195  1.00  0.00    -0.273 OA
BRANCH  17  20
HETATM   20  C   UNL     1      44.130 -18.806   4.365  1.00  0.00     0.035 A 
HETATM   21  C   UNL     1      44.531 -19.949   5.062  1.00  0.00     0.036 A 
HETATM   22  C   UNL     1      44.747 -21.169   4.395  1.00  0.00    -0.060 A 
HETATM   23  C   UNL     1      45.156 -22.400   5.151  1.00  0.00     0.048 C 
HETATM   24  C   UNL     1      44.546 -21.243   3.015  1.00  0.00     0.007 A 
HETATM   25  C   UNL     1      44.141 -20.116   2.309  1.00  0.00     0.003 A 
HETATM   26  C   UNL     1      43.932 -18.911   2.981  1.00  0.00     0.029 A 
ENDBRANCH  17  20
ENDBRANCH  15  16
ENDBRANCH   1  15
TORSDOF 3
ENDMDL
MODEL 9
REMARK VINA RESULT:      -7.3      2.658      3.951
REMARK  3 active torsions:
REMARK  status: ('A' for Active; 'I' for Inactive)
REMARK    1  A    between atoms: C_4  and  N_5 
REMARK       I    between atoms: N_5  and  C_6 
REMARK    2  A    between atoms: C_6  and  C_7 
REMARK    3  A    between atoms: C_7  and  C_8 
ROOT
HETATM    1  C   UNL     1      41.711 -15.852   4.819  1.00  0.00     0.286 C 
HETATM    2  N   UNL     1      42.325 -14.474   4.574  1.00  0.00    -0.056 N 
HETATM    3  H   UNL     1      43.131 -14.392   5.207  1.00  0.00     0.278 HD
HETATM    4  H   UNL     1      42.760 -14.484   3.627  1.00  0.00     0.278 HD
HETATM    5  C   UNL     1      41.453 -13.269   4.770  1.00  0.00     0.209 C 
HETATM    6  C   UNL     1      40.710 -13.388   6.120  1.00  0.00     0.115 C 
HETATM    7  N   UNL     1      40.073 -14.690   6.299  1.00  0.00    -0.353 N 
HETATM    8  C   UNL     1      40.672 -15.874   5.951  1.00  0.00     0.249 C 
HETATM    9  O   UNL     1      40.302 -16.923   6.469  1.00  0.00    -0.271 OA
HETATM   10  C   UNL     1      40.526 -13.065   3.572  1.00  0.00     0.035 C 
HETATM   11  C   UNL     1      39.577 -11.892   3.805  1.00  0.00     0.002 C 
HETATM   12  C   UNL     1      38.779 -12.078   5.093  1.00  0.00     0.002 C 
HETATM   13  C   UNL     1      39.697 -12.250   6.302  1.00  0.00     0.027 C 
HETATM   14  H   UNL     1      39.433 -14.803   7.084  1.00  0.00     0.163 HD
ENDROOT
BRANCH   1  15
HETATM   15  C   UNL     1      41.070 -16.478   3.570  1.00  0.00     0.146 C 
BRANCH  15  16
HETATM   16  C   UNL     1      41.886 -16.281   2.325  1.00  0.00     0.224 C 
HETATM   17  N   UNL     1      42.916 -17.098   1.990  1.00  0.00    -0.327 N 
HETATM   18  H   UNL     1      43.392 -16.769   1.153  1.00  0.00     0.169 HD
HETATM   19  O   UNL     1      41.587 -15.354   1.557  1.00  0.00    -0.273 OA
BRANCH  17  20
HETATM   20  C   UNL     1      43.450 -18.286   2.533  1.00  0.00     0.035 A 
HETATM   21  C   UNL     1      43.530 -19.521   1.887  1.00  0.00     0.036 A 
HETATM   22  C   UNL     1      44.103 -20.638   2.522  1.00  0.00    -0.060 A 
HETATM   23  C   UNL     1      44.208 -21.959   1.815  1.00  0.00     0.048 C 
HETATM   24  C   UNL     1      44.610 -20.508   3.817  1.00  0.00     0.007 A 
HETATM   25  C   UNL     1      44.542 -19.283   4.470  1.00  0.00     0.003 A 
HETATM   26  C   UNL     1      43.971 -18.182   3.831  1.00  0.00     0.029 A 
ENDBRANCH  17  20
ENDBRANCH  15  16
ENDBRANCH   1  15
TORSDOF 3
ENDMDL
MODEL 10
REMARK VINA RESULT:      -7.1      2.530      5.859
REMARK  3 active torsions:
REMARK  status: ('A' for Active; 'I' for Inactive)
REMARK    1  A    between atoms: C_4  and  N_5 
REMARK       I    between atoms: N_5  and  C_6 
REMARK    2  A    between atoms: C_6  and  C_7 
REMARK    3  A    between atoms: C_7  and  C_8 
ROOT
HETATM    1  C   UNL     1      42.206 -14.907   6.303  1.00  0.00     0.286 C 
HETATM    2  N   UNL     1      41.696 -16.254   6.817  1.00  0.00    -0.056 N 
HETATM    3  H   UNL     1      41.524 -16.140   7.824  1.00  0.00     0.278 HD
HETATM    4  H   UNL     1      40.743 -16.403   6.424  1.00  0.00     0.278 HD
HETATM    5  C   UNL     1      42.569 -17.459   6.624  1.00  0.00     0.209 C 
HETATM    6  C   UNL     1      44.010 -17.125   7.076  1.00  0.00     0.115 C 
HETATM    7  N   UNL     1      44.498 -15.869   6.515  1.00  0.00    -0.353 N 
HETATM    8  C   UNL     1      43.729 -14.737   6.421  1.00  0.00     0.249 C 
HETATM    9  O   UNL     1      44.265 -13.637   6.333  1.00  0.00    -0.271 OA
HETATM   10  C   UNL     1      42.478 -17.975   5.188  1.00  0.00     0.035 C 
HETATM   11  C   UNL     1      43.430 -19.147   4.965  1.00  0.00     0.002 C 
HETATM   12  C   UNL     1      44.864 -18.766   5.321  1.00  0.00     0.002 C 
HETATM   13  C   UNL     1      44.972 -18.278   6.765  1.00  0.00     0.027 C 
HETATM   14  H   UNL     1      45.487 -15.649   6.630  1.00  0.00     0.163 HD
ENDROOT
BRANCH   1  15
HETATM   15  C   UNL     1      41.802 -14.602   4.851  1.00  0.00     0.146 C 
BRANCH  15  16
HETATM   16  C   UNL     1      40.321 -14.693   4.618  1.00  0.00     0.224 C 
HETATM   17  N   UNL     1      39.791 -15.028   3.414  1.00  0.00    -0.327 N 
HETATM   18  H   UNL     1      38.776 -14.971   3.429  1.00  0.00     0.169 HD
HETATM   19  O   UNL     1      39.554 -14.485   5.569  1.00  0.00    -0.273 OA
BRANCH  17  20
HETATM   20  C   UNL     1      40.333 -15.441   2.178  1.00  0.00     0.035 A 
HETATM   21  C   UNL     1      40.599 -14.618   1.082  1.00  0.00     0.036 A 
HETATM   22  C   UNL     1      41.161 -15.138  -0.099  1.00  0.00    -0.060 A 
HETATM   23  C   UNL     1      41.466 -14.246  -1.267  1.00  0.00     0.048 C 
HETATM   24  C   UNL     1      41.467 -16.499  -0.173  1.00  0.00     0.007 A 
HETATM   25  C   UNL     1      41.213 -17.330   0.913  1.00  0.00     0.003 A 
HETATM   26  C   UNL     1      40.655 -16.802   2.078  1.00  0.00     0.029 A 
ENDBRANCH  17  20
ENDBRANCH  15  16
ENDBRANCH   1  15
TORSDOF 3
ENDMDL
