MODEL 1
REMARK VINA RESULT:      -9.2      0.000      0.000
REMARK  5 active torsions:
REMARK  status: ('A' for Active; 'I' for Inactive)
REMARK    1  A    between atoms: O_2  and  C_3 
REMARK    2  A    between atoms: C_6  and  C_7 
REMARK    3  A    between atoms: C_12  and  C_13 
REMARK    4  A    between atoms: N_14  and  N_15 
REMARK       I    between atoms: N_15  and  C_16 
REMARK    5  A    between atoms: C_16  and  C_17 
ROOT
HETATM    1  C   UNL     1      45.079 -13.763   6.935  1.00  0.00     0.154 C 
HETATM    2  N   UNL     1      45.458 -13.212   8.046  1.00  0.00    -0.183 NA
ENDROOT
BRANCH   1   3
HETATM    3  C   UNL     1      43.729 -14.011   6.483  1.00  0.00     0.031 A 
HETATM    4  C   UNL     1      43.071 -15.173   5.960  1.00  0.00     0.100 A 
HETATM    5  N   UNL     1      41.774 -14.906   5.719  1.00  0.00    -0.174 NA
HETATM    6  N   UNL     1      41.633 -13.603   5.976  1.00  0.00    -0.288 N 
HETATM    7  H   UNL     1      40.723 -13.178   5.822  1.00  0.00     0.188 HD
HETATM    8  C   UNL     1      42.770 -13.018   6.431  1.00  0.00     0.124 A 
BRANCH   4   9
HETATM    9  C   UNL     1      43.593 -16.518   5.685  1.00  0.00    -0.005 A 
HETATM   10  C   UNL     1      43.256 -17.218   4.522  1.00  0.00     0.016 A 
HETATM   11  C   UNL     1      43.802 -18.482   4.271  1.00  0.00     0.037 A 
HETATM   12  C   UNL     1      44.682 -19.074   5.178  1.00  0.00     0.068 A 
HETATM   13  C   UNL     1      45.002 -18.399   6.353  1.00  0.00     0.037 A 
HETATM   14  C   UNL     1      44.459 -17.132   6.603  1.00  0.00     0.016 A 
BRANCH  12  15
HETATM   15  O   UNL     1      45.145 -20.305   4.808  1.00  0.00    -0.356 OA
HETATM   16  C   UNL     1      44.779 -20.767   3.513  1.00  0.00     0.210 C 
ENDBRANCH  12  15
ENDBRANCH   4   9
ENDBRANCH   1   3
BRANCH   2  17
HETATM   17  N   UNL     1      44.544 -12.713   8.925  1.00  0.00    -0.243 N 
HETATM   18  C   UNL     1      44.745 -11.447   9.461  1.00  0.00     0.271 C 
HETATM   19  O   UNL     1      45.675 -10.710   9.138  1.00  0.00    -0.266 OA
HETATM   20  H   UNL     1      43.758 -13.287   9.188  1.00  0.00     0.192 HD
BRANCH  18  21
HETATM   21  C   UNL     1      43.772 -10.973  10.498  1.00  0.00     0.036 A 
HETATM   22  C   UNL     1      42.403 -11.078  10.186  1.00  0.00     0.057 A 
HETATM   23  C   UNL     1      41.482 -10.631  11.109  1.00  0.00     0.106 A 
HETATM   24  C   UNL     1      41.866 -10.092  12.311  1.00  0.00     0.105 A 
HETATM   25  O   UNL     1      40.131 -10.657  10.960  1.00  0.00    -0.323 OA
HETATM   26  O   UNL     1      40.806  -9.709  13.072  1.00  0.00    -0.323 OA
HETATM   27  C   UNL     1      43.192  -9.976  12.660  1.00  0.00     0.041 A 
HETATM   28  C   UNL     1      39.708 -10.067  12.205  1.00  0.00     0.352 A 
HETATM   29  C   UNL     1      44.155 -10.423  11.744  1.00  0.00     0.020 A 
ENDBRANCH  18  21
ENDBRANCH   2  17
TORSDOF 5
ENDMDL
MODEL 2
REMARK VINA RESULT:      -8.8      5.779      8.935
REMARK  5 active torsions:
REMARK  status: ('A' for Active; 'I' for Inactive)
REMARK    1  A    between atoms: O_2  and  C_3 
REMARK    2  A    between atoms: C_6  and  C_7 
REMARK    3  A    between atoms: C_12  and  C_13 
REMARK    4  A    between atoms: N_14  and  N_15 
REMARK       I    between atoms: N_15  and  C_16 
REMARK    5  A    between atoms: C_16  and  C_17 
ROOT
HETATM    1  C   UNL     1      43.239 -14.385   4.329  1.00  0.00     0.154 C 
HETATM    2  N   UNL     1      43.400 -13.916   3.131  1.00  0.00    -0.183 NA
ENDROOT
BRANCH   1   3
HETATM    3  C   UNL     1      42.162 -15.215   4.820  1.00  0.00     0.031 A 
HETATM    4  C   UNL     1      41.912 -16.625   4.765  1.00  0.00     0.100 A 
HETATM    5  N   UNL     1      40.771 -16.923   5.413  1.00  0.00    -0.174 NA
HETATM    6  N   UNL     1      40.259 -15.744   5.777  1.00  0.00    -0.288 N 
HETATM    7  H   UNL     1      39.364 -15.736   6.256  1.00  0.00     0.188 HD
HETATM    8  C   UNL     1      41.046 -14.690   5.442  1.00  0.00     0.124 A 
BRANCH   4   9
HETATM    9  C   UNL     1      42.691 -17.705   4.145  1.00  0.00    -0.005 A 
HETATM   10  C   UNL     1      43.631 -18.447   4.868  1.00  0.00     0.016 A 
HETATM   11  C   UNL     1      44.328 -19.496   4.258  1.00  0.00     0.037 A 
HETATM   12  C   UNL     1      44.112 -19.815   2.917  1.00  0.00     0.068 A 
HETATM   13  C   UNL     1      43.200 -19.065   2.180  1.00  0.00     0.037 A 
HETATM   14  C   UNL     1      42.498 -18.017   2.790  1.00  0.00     0.016 A 
BRANCH  12  15
HETATM   15  O   UNL     1      44.853 -20.864   2.450  1.00  0.00    -0.356 OA
HETATM   16  C   UNL     1      44.162 -21.855   1.699  1.00  0.00     0.210 C 
ENDBRANCH  12  15
ENDBRANCH   4   9
ENDBRANCH   1   3
BRANCH   2  17
HETATM   17  N   UNL     1      42.538 -14.249   2.129  1.00  0.00    -0.243 N 
HETATM   18  C   UNL     1      42.135 -13.267   1.232  1.00  0.00     0.271 C 
HETATM   19  O   UNL     1      42.562 -12.114   1.246  1.00  0.00    -0.266 OA
HETATM   20  H   UNL     1      42.193 -15.194   2.080  1.00  0.00     0.192 HD
BRANCH  18  21
HETATM   21  C   UNL     1      41.112 -13.648   0.205  1.00  0.00     0.036 A 
HETATM   22  C   UNL     1      41.550 -14.447  -0.868  1.00  0.00     0.057 A 
HETATM   23  C   UNL     1      40.639 -14.796  -1.842  1.00  0.00     0.106 A 
HETATM   24  C   UNL     1      39.330 -14.388  -1.789  1.00  0.00     0.105 A 
HETATM   25  O   UNL     1      40.902 -15.555  -2.940  1.00  0.00    -0.323 OA
HETATM   26  O   UNL     1      38.602 -14.835  -2.846  1.00  0.00    -0.323 OA
HETATM   27  C   UNL     1      38.858 -13.612  -0.755  1.00  0.00     0.041 A 
HETATM   28  C   UNL     1      39.608 -15.572  -3.575  1.00  0.00     0.352 A 
HETATM   29  C   UNL     1      39.758 -13.240   0.253  1.00  0.00     0.020 A 
ENDBRANCH  18  21
ENDBRANCH   2  17
TORSDOF 5
ENDMDL
MODEL 3
REMARK VINA RESULT:      -8.7      4.915      9.147
REMARK  5 active torsions:
REMARK  status: ('A' for Active; 'I' for Inactive)
REMARK    1  A    between atoms: O_2  and  C_3 
REMARK    2  A    between atoms: C_6  and  C_7 
REMARK    3  A    between atoms: C_12  and  C_13 
REMARK    4  A    between atoms: N_14  and  N_15 
REMARK       I    between atoms: N_15  and  C_16 
REMARK    5  A    between atoms: C_16  and  C_17 
ROOT
HETATM    1  C   UNL     1      39.181 -14.232   1.577  1.00  0.00     0.154 C 
HETATM    2  N   UNL     1      39.016 -15.410   2.094  1.00  0.00    -0.183 NA
ENDROOT
BRANCH   1   3
HETATM    3  C   UNL     1      40.368 -13.699   0.945  1.00  0.00     0.031 A 
HETATM    4  C   UNL     1      41.665 -13.347   1.441  1.00  0.00     0.100 A 
HETATM    5  N   UNL     1      42.451 -12.924   0.434  1.00  0.00    -0.174 NA
HETATM    6  N   UNL     1      41.660 -12.906  -0.642  1.00  0.00    -0.288 N 
HETATM    7  H   UNL     1      42.050 -12.578  -1.520  1.00  0.00     0.188 HD
HETATM    8  C   UNL     1      40.403 -13.354  -0.393  1.00  0.00     0.124 A 
BRANCH   4   9
HETATM    9  C   UNL     1      42.206 -13.396   2.806  1.00  0.00    -0.005 A 
HETATM   10  C   UNL     1      41.595 -12.723   3.868  1.00  0.00     0.016 A 
HETATM   11  C   UNL     1      42.113 -12.823   5.164  1.00  0.00     0.037 A 
HETATM   12  C   UNL     1      43.256 -13.582   5.422  1.00  0.00     0.068 A 
HETATM   13  C   UNL     1      43.890 -14.232   4.367  1.00  0.00     0.037 A 
HETATM   14  C   UNL     1      43.370 -14.137   3.070  1.00  0.00     0.016 A 
BRANCH  12  15
HETATM   15  O   UNL     1      43.651 -13.599   6.730  1.00  0.00    -0.356 OA
HETATM   16  C   UNL     1      44.981 -14.026   6.994  1.00  0.00     0.210 C 
ENDBRANCH  12  15
ENDBRANCH   4   9
ENDBRANCH   1   3
BRANCH   2  17
HETATM   17  N   UNL     1      40.000 -16.351   2.018  1.00  0.00    -0.243 N 
HETATM   18  C   UNL     1      40.780 -16.602   3.140  1.00  0.00     0.271 C 
HETATM   19  O   UNL     1      40.596 -16.068   4.232  1.00  0.00    -0.266 OA
HETATM   20  H   UNL     1      40.156 -16.821   1.140  1.00  0.00     0.192 HD
BRANCH  18  21
HETATM   21  C   UNL     1      41.915 -17.570   2.989  1.00  0.00     0.036 A 
HETATM   22  C   UNL     1      42.420 -18.151   4.168  1.00  0.00     0.057 A 
HETATM   23  C   UNL     1      43.478 -19.028   4.068  1.00  0.00     0.106 A 
HETATM   24  C   UNL     1      44.042 -19.347   2.858  1.00  0.00     0.105 A 
HETATM   25  O   UNL     1      44.082 -19.667   5.106  1.00  0.00    -0.323 OA
HETATM   26  O   UNL     1      45.074 -20.224   2.978  1.00  0.00    -0.323 OA
HETATM   27  C   UNL     1      43.576 -18.808   1.680  1.00  0.00     0.041 A 
HETATM   28  C   UNL     1      45.096 -20.419   4.409  1.00  0.00     0.352 A 
HETATM   29  C   UNL     1      42.500 -17.912   1.747  1.00  0.00     0.020 A 
ENDBRANCH  18  21
ENDBRANCH   2  17
TORSDOF 5
ENDMDL
MODEL 4
REMARK VINA RESULT:      -8.4      7.397     10.961
REMARK  5 active torsions:
REMARK  status: ('A' for Active; 'I' for Inactive)
REMARK    1  A    between atoms: O_2  and  C_3 
REMARK    2  A    between atoms: C_6  and  C_7 
REMARK    3  A    between atoms: C_12  and  C_13 
REMARK    4  A    between atoms: N_14  and  N_15 
REMARK       I    between atoms: N_15  and  C_16 
REMARK    5  A    between atoms: C_16  and  C_17 
ROOT
HETATM    1  C   UNL     1      39.262 -14.449   1.035  1.00  0.00     0.154 C 
HETATM    2  N   UNL     1      39.164 -15.424   1.885  1.00  0.00    -0.183 NA
ENDROOT
BRANCH   1   3
HETATM    3  C   UNL     1      40.313 -14.214   0.071  1.00  0.00     0.031 A 
HETATM    4  C   UNL     1      40.332 -14.164  -1.362  1.00  0.00     0.100 A 
HETATM    5  N   UNL     1      41.569 -13.868  -1.802  1.00  0.00    -0.174 NA
HETATM    6  N   UNL     1      42.331 -13.834  -0.705  1.00  0.00    -0.288 N 
HETATM    7  H   UNL     1      43.325 -13.660  -0.816  1.00  0.00     0.188 HD
HETATM    8  C   UNL     1      41.633 -14.040   0.441  1.00  0.00     0.124 A 
BRANCH   4   9
HETATM    9  C   UNL     1      39.251 -14.369  -2.335  1.00  0.00    -0.005 A 
HETATM   10  C   UNL     1      38.112 -13.559  -2.355  1.00  0.00     0.016 A 
HETATM   11  C   UNL     1      37.118 -13.755  -3.321  1.00  0.00     0.037 A 
HETATM   12  C   UNL     1      37.236 -14.768  -4.273  1.00  0.00     0.068 A 
HETATM   13  C   UNL     1      38.353 -15.599  -4.245  1.00  0.00     0.037 A 
HETATM   14  C   UNL     1      39.350 -15.401  -3.281  1.00  0.00     0.016 A 
BRANCH  12  15
HETATM   15  O   UNL     1      36.200 -14.846  -5.160  1.00  0.00    -0.356 OA
HETATM   16  C   UNL     1      35.178 -13.864  -5.042  1.00  0.00     0.210 C 
ENDBRANCH  12  15
ENDBRANCH   4   9
ENDBRANCH   1   3
BRANCH   2  17
HETATM   17  N   UNL     1      40.080 -16.434   1.898  1.00  0.00    -0.243 N 
HETATM   18  C   UNL     1      40.932 -16.558   2.987  1.00  0.00     0.271 C 
HETATM   19  O   UNL     1      40.870 -15.843   3.986  1.00  0.00    -0.266 OA
HETATM   20  H   UNL     1      40.135 -17.050   1.101  1.00  0.00     0.192 HD
BRANCH  18  21
HETATM   21  C   UNL     1      41.989 -17.618   2.921  1.00  0.00     0.036 A 
HETATM   22  C   UNL     1      42.511 -18.078   4.145  1.00  0.00     0.057 A 
HETATM   23  C   UNL     1      43.501 -19.037   4.119  1.00  0.00     0.106 A 
HETATM   24  C   UNL     1      43.983 -19.548   2.940  1.00  0.00     0.105 A 
HETATM   25  O   UNL     1      44.110 -19.581   5.207  1.00  0.00    -0.323 OA
HETATM   26  O   UNL     1      44.957 -20.476   3.134  1.00  0.00    -0.323 OA
HETATM   27  C   UNL     1      43.497 -19.131   1.721  1.00  0.00     0.041 A 
HETATM   28  C   UNL     1      45.036 -20.488   4.576  1.00  0.00     0.352 A 
HETATM   29  C   UNL     1      42.489 -18.158   1.712  1.00  0.00     0.020 A 
ENDBRANCH  18  21
ENDBRANCH   2  17
TORSDOF 5
ENDMDL
MODEL 5
REMARK VINA RESULT:      -8.3      6.537     10.207
REMARK  5 active torsions:
REMARK  status: ('A' for Active; 'I' for Inactive)
REMARK    1  A    between atoms: O_2  and  C_3 
REMARK    2  A    between atoms: C_6  and  C_7 
REMARK    3  A    between atoms: C_12  and  C_13 
REMARK    4  A    between atoms: N_14  and  N_15 
REMARK       I    between atoms: N_15  and  C_16 
REMARK    5  A    between atoms: C_16  and  C_17 
ROOT
HETATM    1  C   UNL     1      42.534 -14.109   2.789  1.00  0.00     0.154 C 
HETATM    2  N   UNL     1      43.651 -14.769   2.798  1.00  0.00    -0.183 NA
ENDROOT
BRANCH   1   3
HETATM    3  C   UNL     1      41.216 -14.600   2.454  1.00  0.00     0.031 A 
HETATM    4  C   UNL     1      40.463 -14.624   1.235  1.00  0.00     0.100 A 
HETATM    5  N   UNL     1      39.280 -15.236   1.429  1.00  0.00    -0.174 NA
HETATM    6  N   UNL     1      39.233 -15.497   2.738  1.00  0.00    -0.288 N 
HETATM    7  H   UNL     1      38.395 -15.932   3.112  1.00  0.00     0.188 HD
HETATM    8  C   UNL     1      40.361 -15.133   3.400  1.00  0.00     0.124 A 
BRANCH   4   9
HETATM    9  C   UNL     1      40.799 -14.114  -0.101  1.00  0.00    -0.005 A 
HETATM   10  C   UNL     1      41.053 -14.970  -1.177  1.00  0.00     0.016 A 
HETATM   11  C   UNL     1      41.332 -14.451  -2.446  1.00  0.00     0.037 A 
HETATM   12  C   UNL     1      41.375 -13.073  -2.663  1.00  0.00     0.068 A 
HETATM   13  C   UNL     1      41.153 -12.211  -1.592  1.00  0.00     0.037 A 
HETATM   14  C   UNL     1      40.870 -12.729  -0.322  1.00  0.00     0.016 A 
BRANCH  12  15
HETATM   15  O   UNL     1      41.652 -12.702  -3.948  1.00  0.00    -0.356 OA
HETATM   16  C   UNL     1      42.267 -11.433  -4.133  1.00  0.00     0.210 C 
ENDBRANCH  12  15
ENDBRANCH   4   9
ENDBRANCH   1   3
BRANCH   2  17
HETATM   17  N   UNL     1      43.673 -16.108   2.542  1.00  0.00    -0.243 N 
HETATM   18  C   UNL     1      43.674 -16.999   3.607  1.00  0.00     0.271 C 
HETATM   19  O   UNL     1      43.589 -16.654   4.785  1.00  0.00    -0.266 OA
HETATM   20  H   UNL     1      43.718 -16.418   1.583  1.00  0.00     0.192 HD
BRANCH  18  21
HETATM   21  C   UNL     1      43.799 -18.458   3.288  1.00  0.00     0.036 A 
HETATM   22  C   UNL     1      44.300 -19.294   4.304  1.00  0.00     0.057 A 
HETATM   23  C   UNL     1      44.449 -20.638   4.036  1.00  0.00     0.106 A 
HETATM   24  C   UNL     1      44.122 -21.173   2.815  1.00  0.00     0.105 A 
HETATM   25  O   UNL     1      44.922 -21.573   4.903  1.00  0.00    -0.323 OA
HETATM   26  O   UNL     1      44.349 -22.512   2.756  1.00  0.00    -0.323 OA
HETATM   27  C   UNL     1      43.624 -20.394   1.796  1.00  0.00     0.041 A 
HETATM   28  C   UNL     1      44.861 -22.759   4.084  1.00  0.00     0.352 A 
HETATM   29  C   UNL     1      43.459 -19.023   2.036  1.00  0.00     0.020 A 
ENDBRANCH  18  21
ENDBRANCH   2  17
TORSDOF 5
ENDMDL
MODEL 6
REMARK VINA RESULT:      -8.3      6.426      9.144
REMARK  5 active torsions:
REMARK  status: ('A' for Active; 'I' for Inactive)
REMARK    1  A    between atoms: O_2  and  C_3 
REMARK    2  A    between atoms: C_6  and  C_7 
REMARK    3  A    between atoms: C_12  and  C_13 
REMARK    4  A    between atoms: N_14  and  N_15 
REMARK       I    between atoms: N_15  and  C_16 
REMARK    5  A    between atoms: C_16  and  C_17 
ROOT
HETATM    1  C   UNL     1      40.214 -15.793   2.820  1.00  0.00     0.154 C 
HETATM    2  N   UNL     1      39.644 -15.513   1.690  1.00  0.00    -0.183 NA
ENDROOT
BRANCH   1   3
HETATM    3  C   UNL     1      41.413 -15.209   3.378  1.00  0.00     0.031 A 
HETATM    4  C   UNL     1      42.732 -15.720   3.609  1.00  0.00     0.100 A 
HETATM    5  N   UNL     1      43.522 -14.758   4.122  1.00  0.00    -0.174 NA
HETATM    6  N   UNL     1      42.717 -13.709   4.309  1.00  0.00    -0.288 N 
HETATM    7  H   UNL     1      43.109 -12.871   4.729  1.00  0.00     0.188 HD
HETATM    8  C   UNL     1      41.445 -13.925   3.887  1.00  0.00     0.124 A 
BRANCH   4   9
HETATM    9  C   UNL     1      43.290 -17.056   3.365  1.00  0.00    -0.005 A 
HETATM   10  C   UNL     1      43.643 -17.913   4.413  1.00  0.00     0.016 A 
HETATM   11  C   UNL     1      44.135 -19.195   4.147  1.00  0.00     0.037 A 
HETATM   12  C   UNL     1      44.296 -19.642   2.835  1.00  0.00     0.068 A 
HETATM   13  C   UNL     1      43.976 -18.787   1.783  1.00  0.00     0.037 A 
HETATM   14  C   UNL     1      43.479 -17.505   2.048  1.00  0.00     0.016 A 
BRANCH  12  15
HETATM   15  O   UNL     1      44.779 -20.915   2.717  1.00  0.00    -0.356 OA
HETATM   16  C   UNL     1      44.106 -21.775   1.806  1.00  0.00     0.210 C 
ENDBRANCH  12  15
ENDBRANCH   4   9
ENDBRANCH   1   3
BRANCH   2  17
HETATM   17  N   UNL     1      40.121 -14.513   0.895  1.00  0.00    -0.243 N 
HETATM   18  C   UNL     1      40.984 -14.833  -0.145  1.00  0.00     0.271 C 
HETATM   19  O   UNL     1      41.299 -15.984  -0.440  1.00  0.00    -0.266 OA
HETATM   20  H   UNL     1      39.858 -13.562   1.100  1.00  0.00     0.192 HD
BRANCH  18  21
HETATM   21  C   UNL     1      41.566 -13.699  -0.934  1.00  0.00     0.036 A 
HETATM   22  C   UNL     1      42.142 -12.642  -0.204  1.00  0.00     0.057 A 
HETATM   23  C   UNL     1      42.666 -11.572  -0.898  1.00  0.00     0.106 A 
HETATM   24  C   UNL     1      42.640 -11.516  -2.269  1.00  0.00     0.105 A 
HETATM   25  O   UNL     1      43.251 -10.475  -0.345  1.00  0.00    -0.323 OA
HETATM   26  O   UNL     1      43.202 -10.377  -2.755  1.00  0.00    -0.323 OA
HETATM   27  C   UNL     1      42.092 -12.530  -3.022  1.00  0.00     0.041 A 
HETATM   28  C   UNL     1      43.583  -9.719  -1.527  1.00  0.00     0.352 A 
HETATM   29  C   UNL     1      41.552 -13.633  -2.347  1.00  0.00     0.020 A 
ENDBRANCH  18  21
ENDBRANCH   2  17
TORSDOF 5
ENDMDL
MODEL 7
REMARK VINA RESULT:      -8.2      4.802      6.611
REMARK  5 active torsions:
REMARK  status: ('A' for Active; 'I' for Inactive)
REMARK    1  A    between atoms: O_2  and  C_3 
REMARK    2  A    between atoms: C_6  and  C_7 
REMARK    3  A    between atoms: C_12  and  C_13 
REMARK    4  A    between atoms: N_14  and  N_15 
REMARK       I    between atoms: N_15  and  C_16 
REMARK    5  A    between atoms: C_16  and  C_17 
ROOT
HETATM    1  C   UNL     1      42.551 -13.308   2.505  1.00  0.00     0.154 C 
HETATM    2  N   UNL     1      43.562 -13.690   3.222  1.00  0.00    -0.183 NA
ENDROOT
BRANCH   1   3
HETATM    3  C   UNL     1      41.286 -13.984   2.322  1.00  0.00     0.031 A 
HETATM    4  C   UNL     1      40.935 -15.354   2.089  1.00  0.00     0.100 A 
HETATM    5  N   UNL     1      39.598 -15.489   2.028  1.00  0.00    -0.174 NA
HETATM    6  N   UNL     1      39.117 -14.246   2.112  1.00  0.00    -0.288 N 
HETATM    7  H   UNL     1      38.113 -14.113   2.049  1.00  0.00     0.188 HD
HETATM    8  C   UNL     1      40.083 -13.307   2.284  1.00  0.00     0.124 A 
BRANCH   4   9
HETATM    9  C   UNL     1      41.787 -16.540   1.931  1.00  0.00    -0.005 A 
HETATM   10  C   UNL     1      42.876 -16.557   1.053  1.00  0.00     0.016 A 
HETATM   11  C   UNL     1      43.692 -17.690   0.956  1.00  0.00     0.037 A 
HETATM   12  C   UNL     1      43.431 -18.828   1.720  1.00  0.00     0.068 A 
HETATM   13  C   UNL     1      42.332 -18.833   2.576  1.00  0.00     0.037 A 
HETATM   14  C   UNL     1      41.517 -17.698   2.677  1.00  0.00     0.016 A 
BRANCH  12  15
HETATM   15  O   UNL     1      44.308 -19.859   1.533  1.00  0.00    -0.356 OA
HETATM   16  C   UNL     1      44.113 -21.021   2.329  1.00  0.00     0.210 C 
ENDBRANCH  12  15
ENDBRANCH   4   9
ENDBRANCH   1   3
BRANCH   2  17
HETATM   17  N   UNL     1      43.490 -14.816   3.987  1.00  0.00    -0.243 N 
HETATM   18  C   UNL     1      43.642 -14.708   5.363  1.00  0.00     0.271 C 
HETATM   19  O   UNL     1      43.775 -13.637   5.952  1.00  0.00    -0.266 OA
HETATM   20  H   UNL     1      43.356 -15.705   3.530  1.00  0.00     0.192 HD
BRANCH  18  21
HETATM   21  C   UNL     1      43.655 -15.979   6.159  1.00  0.00     0.036 A 
HETATM   22  C   UNL     1      43.803 -17.181   5.441  1.00  0.00     0.057 A 
HETATM   23  C   UNL     1      43.797 -18.369   6.139  1.00  0.00     0.106 A 
HETATM   24  C   UNL     1      43.653 -18.406   7.504  1.00  0.00     0.105 A 
HETATM   25  O   UNL     1      43.923 -19.610   5.598  1.00  0.00    -0.323 OA
HETATM   26  O   UNL     1      43.669 -19.673   7.996  1.00  0.00    -0.323 OA
HETATM   27  C   UNL     1      43.513 -17.255   8.245  1.00  0.00     0.041 A 
HETATM   28  C   UNL     1      43.836 -20.433   6.779  1.00  0.00     0.352 A 
HETATM   29  C   UNL     1      43.516 -16.029   7.566  1.00  0.00     0.020 A 
ENDBRANCH  18  21
ENDBRANCH   2  17
TORSDOF 5
ENDMDL
MODEL 8
REMARK VINA RESULT:      -8.1      6.908      9.917
REMARK  5 active torsions:
REMARK  status: ('A' for Active; 'I' for Inactive)
REMARK    1  A    between atoms: O_2  and  C_3 
REMARK    2  A    between atoms: C_6  and  C_7 
REMARK    3  A    between atoms: C_12  and  C_13 
REMARK    4  A    between atoms: N_14  and  N_15 
REMARK       I    between atoms: N_15  and  C_16 
REMARK    5  A    between atoms: C_16  and  C_17 
ROOT
HETATM    1  C   UNL     1      39.321 -13.728   2.353  1.00  0.00     0.154 C 
HETATM    2  N   UNL     1      39.223 -14.819   3.048  1.00  0.00    -0.183 NA
ENDROOT
BRANCH   1   3
HETATM    3  C   UNL     1      40.526 -13.076   1.891  1.00  0.00     0.031 A 
HETATM    4  C   UNL     1      41.195 -13.044   0.623  1.00  0.00     0.100 A 
HETATM    5  N   UNL     1      42.279 -12.248   0.688  1.00  0.00    -0.174 NA
HETATM    6  N   UNL     1      42.359 -11.871   1.967  1.00  0.00    -0.288 N 
HETATM    7  H   UNL     1      43.140 -11.285   2.247  1.00  0.00     0.188 HD
HETATM    8  C   UNL     1      41.340 -12.341   2.731  1.00  0.00     0.124 A 
BRANCH   4   9
HETATM    9  C   UNL     1      40.866 -13.712  -0.642  1.00  0.00    -0.005 A 
HETATM   10  C   UNL     1      40.168 -13.059  -1.663  1.00  0.00     0.016 A 
HETATM   11  C   UNL     1      39.905 -13.711  -2.873  1.00  0.00     0.037 A 
HETATM   12  C   UNL     1      40.321 -15.027  -3.082  1.00  0.00     0.068 A 
HETATM   13  C   UNL     1      40.992 -15.696  -2.063  1.00  0.00     0.037 A 
HETATM   14  C   UNL     1      41.260 -15.044  -0.852  1.00  0.00     0.016 A 
BRANCH  12  15
HETATM   15  O   UNL     1      40.006 -15.540  -4.309  1.00  0.00    -0.356 OA
HETATM   16  C   UNL     1      38.792 -16.276  -4.404  1.00  0.00     0.210 C 
ENDBRANCH  12  15
ENDBRANCH   4   9
ENDBRANCH   1   3
BRANCH   2  17
HETATM   17  N   UNL     1      40.331 -15.545   3.369  1.00  0.00    -0.243 N 
HETATM   18  C   UNL     1      40.612 -16.699   2.649  1.00  0.00     0.271 C 
HETATM   19  O   UNL     1      39.951 -17.080   1.685  1.00  0.00    -0.266 OA
HETATM   20  H   UNL     1      40.905 -15.241   4.140  1.00  0.00     0.192 HD
BRANCH  18  21
HETATM   21  C   UNL     1      41.783 -17.523   3.095  1.00  0.00     0.036 A 
HETATM   22  C   UNL     1      42.249 -18.507   2.203  1.00  0.00     0.057 A 
HETATM   23  C   UNL     1      43.309 -19.298   2.590  1.00  0.00     0.106 A 
HETATM   24  C   UNL     1      43.915 -19.148   3.813  1.00  0.00     0.105 A 
HETATM   25  O   UNL     1      43.873 -20.291   1.851  1.00  0.00    -0.323 OA
HETATM   26  O   UNL     1      44.934 -20.027   4.001  1.00  0.00    -0.323 OA
HETATM   27  C   UNL     1      43.495 -18.195   4.713  1.00  0.00     0.041 A 
HETATM   28  C   UNL     1      44.899 -20.753   2.753  1.00  0.00     0.352 A 
HETATM   29  C   UNL     1      42.420 -17.373   4.350  1.00  0.00     0.020 A 
ENDBRANCH  18  21
ENDBRANCH   2  17
TORSDOF 5
ENDMDL
MODEL 9
REMARK VINA RESULT:      -8.1      5.384      9.540
REMARK  5 active torsions:
REMARK  status: ('A' for Active; 'I' for Inactive)
REMARK    1  A    between atoms: O_2  and  C_3 
REMARK    2  A    between atoms: C_6  and  C_7 
REMARK    3  A    between atoms: C_12  and  C_13 
REMARK    4  A    between atoms: N_14  and  N_15 
REMARK       I    between atoms: N_15  and  C_16 
REMARK    5  A    between atoms: C_16  and  C_17 
ROOT
HETATM    1  C   UNL     1      39.716 -13.112  -0.912  1.00  0.00     0.154 C 
HETATM    2  N   UNL     1      39.434 -14.344  -0.619  1.00  0.00    -0.183 NA
ENDROOT
BRANCH   1   3
HETATM    3  C   UNL     1      40.967 -12.417  -0.712  1.00  0.00     0.031 A 
HETATM    4  C   UNL     1      41.753 -12.135   0.453  1.00  0.00     0.100 A 
HETATM    5  N   UNL     1      42.878 -11.481   0.109  1.00  0.00    -0.174 NA
HETATM    6  N   UNL     1      42.766 -11.259  -1.203  1.00  0.00    -0.288 N 
HETATM    7  H   UNL     1      43.503 -10.738  -1.667  1.00  0.00     0.188 HD
HETATM    8  C   UNL     1      41.641 -11.792  -1.744  1.00  0.00     0.124 A 
BRANCH   4   9
HETATM    9  C   UNL     1      41.510 -12.457   1.865  1.00  0.00    -0.005 A 
HETATM   10  C   UNL     1      40.315 -12.114   2.505  1.00  0.00     0.016 A 
HETATM   11  C   UNL     1      40.098 -12.470   3.841  1.00  0.00     0.037 A 
HETATM   12  C   UNL     1      41.070 -13.161   4.565  1.00  0.00     0.068 A 
HETATM   13  C   UNL     1      42.276 -13.483   3.946  1.00  0.00     0.037 A 
HETATM   14  C   UNL     1      42.493 -13.130   2.608  1.00  0.00     0.016 A 
BRANCH  12  15
HETATM   15  O   UNL     1      40.728 -13.452   5.855  1.00  0.00    -0.356 OA
HETATM   16  C   UNL     1      39.599 -12.771   6.389  1.00  0.00     0.210 C 
ENDBRANCH  12  15
ENDBRANCH   4   9
ENDBRANCH   1   3
BRANCH   2  17
HETATM   17  N   UNL     1      40.389 -15.180  -0.123  1.00  0.00    -0.243 N 
HETATM   18  C   UNL     1      40.250 -15.672   1.168  1.00  0.00     0.271 C 
HETATM   19  O   UNL     1      39.273 -15.450   1.881  1.00  0.00    -0.266 OA
HETATM   20  H   UNL     1      41.189 -15.398  -0.697  1.00  0.00     0.192 HD
BRANCH  18  21
HETATM   21  C   UNL     1      41.369 -16.508   1.714  1.00  0.00     0.036 A 
HETATM   22  C   UNL     1      41.214 -17.010   3.020  1.00  0.00     0.057 A 
HETATM   23  C   UNL     1      42.234 -17.764   3.560  1.00  0.00     0.106 A 
HETATM   24  C   UNL     1      43.383 -18.034   2.860  1.00  0.00     0.105 A 
HETATM   25  O   UNL     1      42.242 -18.314   4.804  1.00  0.00    -0.323 OA
HETATM   26  O   UNL     1      44.263 -18.787   3.573  1.00  0.00    -0.323 OA
HETATM   27  C   UNL     1      43.573 -17.569   1.579  1.00  0.00     0.041 A 
HETATM   28  C   UNL     1      43.533 -18.957   4.808  1.00  0.00     0.352 A 
HETATM   29  C   UNL     1      42.555 -16.800   1.000  1.00  0.00     0.020 A 
ENDBRANCH  18  21
ENDBRANCH   2  17
TORSDOF 5
ENDMDL
MODEL 10
REMARK VINA RESULT:      -8.0      6.311      9.262
REMARK  5 active torsions:
REMARK  status: ('A' for Active; 'I' for Inactive)
REMARK    1  A    between atoms: O_2  and  C_3 
REMARK    2  A    between atoms: C_6  and  C_7 
REMARK    3  A    between atoms: C_12  and  C_13 
REMARK    4  A    between atoms: N_14  and  N_15 
REMARK       I    between atoms: N_15  and  C_16 
REMARK    5  A    between atoms: C_16  and  C_17 
ROOT
HETATM    1  C   UNL     1      41.618 -14.255   3.758  1.00  0.00     0.154 C 
HETATM    2  N   UNL     1      42.400 -13.354   3.249  1.00  0.00    -0.183 NA
ENDROOT
BRANCH   1   3
HETATM    3  C   UNL     1      40.776 -15.198   3.056  1.00  0.00     0.031 A 
HETATM    4  C   UNL     1      40.919 -16.588   2.740  1.00  0.00     0.100 A 
HETATM    5  N   UNL     1      39.825 -17.035   2.096  1.00  0.00    -0.174 NA
HETATM    6  N   UNL     1      39.060 -15.955   1.916  1.00  0.00    -0.288 N 
HETATM    7  H   UNL     1      38.187 -16.063   1.409  1.00  0.00     0.188 HD
HETATM    8  C   UNL     1      39.583 -14.828   2.465  1.00  0.00     0.124 A 
BRANCH   4   9
HETATM    9  C   UNL     1      42.021 -17.518   3.017  1.00  0.00    -0.005 A 
HETATM   10  C   UNL     1      42.371 -17.881   4.322  1.00  0.00     0.016 A 
HETATM   11  C   UNL     1      43.401 -18.800   4.550  1.00  0.00     0.037 A 
HETATM   12  C   UNL     1      44.107 -19.364   3.487  1.00  0.00     0.068 A 
HETATM   13  C   UNL     1      43.787 -18.988   2.185  1.00  0.00     0.037 A 
HETATM   14  C   UNL     1      42.754 -18.070   1.954  1.00  0.00     0.016 A 
BRANCH  12  15
HETATM   15  O   UNL     1      45.082 -20.250   3.850  1.00  0.00    -0.356 OA
HETATM   16  C   UNL     1      44.762 -21.167   4.889  1.00  0.00     0.210 C 
ENDBRANCH  12  15
ENDBRANCH   4   9
ENDBRANCH   1   3
BRANCH   2  17
HETATM   17  N   UNL     1      42.566 -13.256   1.899  1.00  0.00    -0.243 N 
HETATM   18  C   UNL     1      41.941 -12.220   1.216  1.00  0.00     0.271 C 
HETATM   19  O   UNL     1      41.289 -11.335   1.768  1.00  0.00    -0.266 OA
HETATM   20  H   UNL     1      43.117 -13.955   1.425  1.00  0.00     0.192 HD
BRANCH  18  21
HETATM   21  C   UNL     1      42.066 -12.202  -0.277  1.00  0.00     0.036 A 
HETATM   22  C   UNL     1      42.304 -10.954  -0.884  1.00  0.00     0.057 A 
HETATM   23  C   UNL     1      42.402 -10.898  -2.258  1.00  0.00     0.106 A 
HETATM   24  C   UNL     1      42.276 -12.020  -3.038  1.00  0.00     0.105 A 
HETATM   25  O   UNL     1      42.624  -9.776  -2.994  1.00  0.00    -0.323 OA
HETATM   26  O   UNL     1      42.400 -11.748  -4.365  1.00  0.00    -0.323 OA
HETATM   27  C   UNL     1      42.049 -13.261  -2.487  1.00  0.00     0.041 A 
HETATM   28  C   UNL     1      42.616 -10.321  -4.329  1.00  0.00     0.352 A 
HETATM   29  C   UNL     1      41.946 -13.352  -1.092  1.00  0.00     0.020 A 
ENDBRANCH  18  21
ENDBRANCH   2  17
TORSDOF 5
ENDMDL
