MODEL 1
REMARK VINA RESULT:      -9.0      0.000      0.000
REMARK  6 active torsions:
REMARK  status: ('A' for Active; 'I' for Inactive)
REMARK    1  A    between atoms: O_2  and  C_3 
REMARK    2  A    between atoms: C_5  and  C_6 
REMARK    3  A    between atoms: C_6  and  C_7 
REMARK    4  A    between atoms: C_7  and  C_8 
REMARK       I    between atoms: C_8  and  N_9 
REMARK    5  A    between atoms: N_12  and  C_13 
REMARK    6  A    between atoms: C_17  and  C_18 
ROOT
HETATM    1  C   UNL     1      41.221 -15.812   3.055  1.00  0.00     0.220 C 
HETATM    2  N   UNL     1      41.433 -15.176   4.275  1.00  0.00    -0.349 N 
HETATM    3  C   UNL     1      41.996 -15.844   5.459  1.00  0.00     0.145 C 
HETATM    4  C   UNL     1      43.523 -15.631   5.501  1.00  0.00     0.144 C 
HETATM    5  N   UNL     1      43.847 -14.182   5.465  1.00  0.00    -0.363 N 
HETATM    6  C   UNL     1      43.232 -13.478   4.305  1.00  0.00     0.144 C 
HETATM    7  C   UNL     1      41.708 -13.733   4.260  1.00  0.00     0.145 C 
HETATM    8  O   UNL     1      41.082 -15.183   2.007  1.00  0.00    -0.273 OA
ENDROOT
BRANCH   5   9
HETATM    9  C   UNL     1      44.073 -13.519   6.639  1.00  0.00     0.122 A 
HETATM   10  N   UNL     1      45.127 -13.811   7.466  1.00  0.00    -0.262 N 
HETATM   11  H   UNL     1      45.831 -14.525   7.334  1.00  0.00     0.191 HD
HETATM   12  N   UNL     1      45.173 -13.078   8.589  1.00  0.00    -0.173 NA
HETATM   13  C   UNL     1      44.085 -12.295   8.522  1.00  0.00     0.090 A 
HETATM   14  C   UNL     1      43.369 -12.547   7.318  1.00  0.00     0.084 A 
BRANCH  13  15
HETATM   15  C   UNL     1      43.747 -11.353   9.594  1.00  0.00    -0.005 A 
HETATM   16  C   UNL     1      44.540 -11.280  10.751  1.00  0.00     0.015 A 
HETATM   17  C   UNL     1      44.217 -10.401  11.789  1.00  0.00     0.024 A 
HETATM   18  C   UNL     1      43.098  -9.582  11.676  1.00  0.00     0.034 A 
HETATM   19 CL   UNL     1      42.696  -8.500  12.952  1.00  0.00    -0.084 Cl
HETATM   20  C   UNL     1      42.301  -9.633  10.535  1.00  0.00     0.024 A 
HETATM   21  C   UNL     1      42.624 -10.516   9.498  1.00  0.00     0.015 A 
ENDBRANCH  13  15
ENDBRANCH   5   9
BRANCH   1  22
HETATM   22  C   UNL     1      41.175 -17.329   3.081  1.00  0.00     0.107 C 
BRANCH  22  23
HETATM   23  C   UNL     1      42.024 -17.957   1.979  1.00  0.00     0.048 C 
BRANCH  23  24
HETATM   24  C   UNL     1      42.992 -18.961   2.560  1.00  0.00    -0.055 A 
HETATM   25  C   UNL     1      43.447 -18.818   3.883  1.00  0.00     0.044 A 
HETATM   26  C   UNL     1      44.299 -19.768   4.448  1.00  0.00     0.068 A 
HETATM   27  C   UNL     1      44.704 -20.862   3.683  1.00  0.00     0.037 A 
HETATM   28  C   UNL     1      44.261 -21.015   2.369  1.00  0.00     0.003 A 
HETATM   29  C   UNL     1      43.403 -20.069   1.809  1.00  0.00     0.007 A 
BRANCH  26  30
HETATM   30  O   UNL     1      44.798 -19.746   5.723  1.00  0.00    -0.356 OA
HETATM   31  C   UNL     1      43.863 -19.552   6.776  1.00  0.00     0.210 C 
ENDBRANCH  26  30
ENDBRANCH  23  24
ENDBRANCH  22  23
ENDBRANCH   1  22
TORSDOF 6
ENDMDL
MODEL 2
REMARK VINA RESULT:      -8.7      2.452      2.957
REMARK  6 active torsions:
REMARK  status: ('A' for Active; 'I' for Inactive)
REMARK    1  A    between atoms: O_2  and  C_3 
REMARK    2  A    between atoms: C_5  and  C_6 
REMARK    3  A    between atoms: C_6  and  C_7 
REMARK    4  A    between atoms: C_7  and  C_8 
REMARK       I    between atoms: C_8  and  N_9 
REMARK    5  A    between atoms: N_12  and  C_13 
REMARK    6  A    between atoms: C_17  and  C_18 
ROOT
HETATM    1  C   UNL     1      42.643 -16.661   1.343  1.00  0.00     0.220 C 
HETATM    2  N   UNL     1      42.138 -15.904   2.396  1.00  0.00    -0.349 N 
HETATM    3  C   UNL     1      42.905 -15.577   3.609  1.00  0.00     0.145 C 
HETATM    4  C   UNL     1      43.592 -14.206   3.438  1.00  0.00     0.144 C 
HETATM    5  N   UNL     1      42.592 -13.161   3.106  1.00  0.00    -0.363 N 
HETATM    6  C   UNL     1      41.764 -13.506   1.915  1.00  0.00     0.144 C 
HETATM    7  C   UNL     1      41.113 -14.897   2.091  1.00  0.00     0.145 C 
HETATM    8  O   UNL     1      42.138 -16.637   0.221  1.00  0.00    -0.273 OA
ENDROOT
BRANCH   5   9
HETATM    9  C   UNL     1      42.077 -12.386   4.107  1.00  0.00     0.122 A 
HETATM   10  N   UNL     1      41.702 -11.081   3.918  1.00  0.00    -0.262 N 
HETATM   11  H   UNL     1      41.765 -10.542   3.064  1.00  0.00     0.191 HD
HETATM   12  N   UNL     1      41.246 -10.467   5.021  1.00  0.00    -0.173 NA
HETATM   13  C   UNL     1      41.359 -11.390   5.988  1.00  0.00     0.090 A 
HETATM   14  C   UNL     1      41.881 -12.602   5.454  1.00  0.00     0.084 A 
BRANCH  13  15
HETATM   15  C   UNL     1      40.992 -11.099   7.378  1.00  0.00    -0.005 A 
HETATM   16  C   UNL     1      41.952 -10.603   8.276  1.00  0.00     0.015 A 
HETATM   17  C   UNL     1      41.620 -10.340   9.609  1.00  0.00     0.024 A 
HETATM   18  C   UNL     1      40.321 -10.565  10.053  1.00  0.00     0.034 A 
HETATM   19 CL   UNL     1      39.908 -10.245  11.692  1.00  0.00    -0.084 Cl
HETATM   20  C   UNL     1      39.352 -11.050   9.178  1.00  0.00     0.024 A 
HETATM   21  C   UNL     1      39.687 -11.316   7.845  1.00  0.00     0.015 A 
ENDBRANCH  13  15
ENDBRANCH   5   9
BRANCH   1  22
HETATM   22  C   UNL     1      43.858 -17.520   1.647  1.00  0.00     0.107 C 
BRANCH  22  23
HETATM   23  C   UNL     1      43.568 -19.012   1.501  1.00  0.00     0.048 C 
BRANCH  23  24
HETATM   24  C   UNL     1      44.036 -19.766   2.725  1.00  0.00    -0.055 A 
HETATM   25  C   UNL     1      44.102 -19.117   3.970  1.00  0.00     0.044 A 
HETATM   26  C   UNL     1      44.482 -19.817   5.117  1.00  0.00     0.068 A 
HETATM   27  C   UNL     1      44.803 -21.171   5.014  1.00  0.00     0.037 A 
HETATM   28  C   UNL     1      44.742 -21.826   3.783  1.00  0.00     0.003 A 
HETATM   29  C   UNL     1      44.355 -21.126   2.641  1.00  0.00     0.007 A 
BRANCH  26  30
HETATM   30  O   UNL     1      44.573 -19.302   6.382  1.00  0.00    -0.356 OA
HETATM   31  C   UNL     1      45.211 -18.039   6.517  1.00  0.00     0.210 C 
ENDBRANCH  26  30
ENDBRANCH  23  24
ENDBRANCH  22  23
ENDBRANCH   1  22
TORSDOF 6
ENDMDL
MODEL 3
REMARK VINA RESULT:      -8.6      1.766      2.247
REMARK  6 active torsions:
REMARK  status: ('A' for Active; 'I' for Inactive)
REMARK    1  A    between atoms: O_2  and  C_3 
REMARK    2  A    between atoms: C_5  and  C_6 
REMARK    3  A    between atoms: C_6  and  C_7 
REMARK    4  A    between atoms: C_7  and  C_8 
REMARK       I    between atoms: C_8  and  N_9 
REMARK    5  A    between atoms: N_12  and  C_13 
REMARK    6  A    between atoms: C_17  and  C_18 
ROOT
HETATM    1  C   UNL     1      41.268 -16.189   2.796  1.00  0.00     0.220 C 
HETATM    2  N   UNL     1      41.405 -15.426   3.952  1.00  0.00    -0.349 N 
HETATM    3  C   UNL     1      42.666 -14.793   4.369  1.00  0.00     0.145 C 
HETATM    4  C   UNL     1      42.719 -13.342   3.848  1.00  0.00     0.144 C 
HETATM    5  N   UNL     1      41.529 -12.581   4.305  1.00  0.00    -0.363 N 
HETATM    6  C   UNL     1      40.243 -13.242   3.944  1.00  0.00     0.144 C 
HETATM    7  C   UNL     1      40.224 -14.705   4.445  1.00  0.00     0.145 C 
HETATM    8  O   UNL     1      40.170 -16.416   2.290  1.00  0.00    -0.273 OA
ENDROOT
BRANCH   5   9
HETATM    9  C   UNL     1      41.620 -11.810   5.430  1.00  0.00     0.122 A 
HETATM   10  N   UNL     1      41.276 -10.484   5.450  1.00  0.00    -0.262 N 
HETATM   11  H   UNL     1      40.940  -9.924   4.677  1.00  0.00     0.191 HD
HETATM   12  N   UNL     1      41.460  -9.878   6.634  1.00  0.00    -0.173 NA
HETATM   13  C   UNL     1      41.983 -10.833   7.419  1.00  0.00     0.090 A 
HETATM   14  C   UNL     1      42.104 -12.054   6.697  1.00  0.00     0.084 A 
BRANCH  13  15
HETATM   15  C   UNL     1      42.367 -10.562   8.808  1.00  0.00    -0.005 A 
HETATM   16  C   UNL     1      41.574  -9.730   9.614  1.00  0.00     0.015 A 
HETATM   17  C   UNL     1      41.939  -9.447  10.934  1.00  0.00     0.024 A 
HETATM   18  C   UNL     1      43.100 -10.003  11.462  1.00  0.00     0.034 A 
HETATM   19 CL   UNL     1      43.555  -9.658  13.085  1.00  0.00    -0.084 Cl
HETATM   20  C   UNL     1      43.898 -10.837  10.683  1.00  0.00     0.024 A 
HETATM   21  C   UNL     1      43.533 -11.115   9.361  1.00  0.00     0.015 A 
ENDBRANCH  13  15
ENDBRANCH   5   9
BRANCH   1  22
HETATM   22  C   UNL     1      42.549 -16.727   2.183  1.00  0.00     0.107 C 
BRANCH  22  23
HETATM   23  C   UNL     1      42.390 -18.153   1.659  1.00  0.00     0.048 C 
BRANCH  23  24
HETATM   24  C   UNL     1      43.258 -19.108   2.445  1.00  0.00    -0.055 A 
HETATM   25  C   UNL     1      43.647 -18.790   3.758  1.00  0.00     0.044 A 
HETATM   26  C   UNL     1      44.405 -19.688   4.512  1.00  0.00     0.068 A 
HETATM   27  C   UNL     1      44.779 -20.907   3.946  1.00  0.00     0.037 A 
HETATM   28  C   UNL     1      44.399 -21.234   2.644  1.00  0.00     0.003 A 
HETATM   29  C   UNL     1      43.636 -20.339   1.896  1.00  0.00     0.007 A 
BRANCH  26  30
HETATM   30  O   UNL     1      44.834 -19.498   5.797  1.00  0.00    -0.356 OA
HETATM   31  C   UNL     1      44.985 -18.153   6.233  1.00  0.00     0.210 C 
ENDBRANCH  26  30
ENDBRANCH  23  24
ENDBRANCH  22  23
ENDBRANCH   1  22
TORSDOF 6
ENDMDL
MODEL 4
REMARK VINA RESULT:      -8.5      5.375      8.386
REMARK  6 active torsions:
REMARK  status: ('A' for Active; 'I' for Inactive)
REMARK    1  A    between atoms: O_2  and  C_3 
REMARK    2  A    between atoms: C_5  and  C_6 
REMARK    3  A    between atoms: C_6  and  C_7 
REMARK    4  A    between atoms: C_7  and  C_8 
REMARK       I    between atoms: C_8  and  N_9 
REMARK    5  A    between atoms: N_12  and  C_13 
REMARK    6  A    between atoms: C_17  and  C_18 
ROOT
HETATM    1  C   UNL     1      42.391 -16.349   5.595  1.00  0.00     0.220 C 
HETATM    2  N   UNL     1      42.380 -15.632   4.402  1.00  0.00    -0.349 N 
HETATM    3  C   UNL     1      43.360 -15.827   3.322  1.00  0.00     0.145 C 
HETATM    4  C   UNL     1      42.807 -16.835   2.292  1.00  0.00     0.144 C 
HETATM    5  N   UNL     1      41.488 -16.386   1.781  1.00  0.00    -0.363 N 
HETATM    6  C   UNL     1      40.502 -16.124   2.868  1.00  0.00     0.144 C 
HETATM    7  C   UNL     1      41.088 -15.140   3.907  1.00  0.00     0.145 C 
HETATM    8  O   UNL     1      41.400 -16.425   6.320  1.00  0.00    -0.273 OA
ENDROOT
BRANCH   5   9
HETATM    9  C   UNL     1      41.428 -15.688   0.608  1.00  0.00     0.122 A 
HETATM   10  N   UNL     1      40.978 -16.241  -0.563  1.00  0.00    -0.262 N 
HETATM   11  H   UNL     1      40.661 -17.190  -0.712  1.00  0.00     0.191 HD
HETATM   12  N   UNL     1      41.019 -15.416  -1.621  1.00  0.00    -0.173 NA
HETATM   13  C   UNL     1      41.552 -14.282  -1.140  1.00  0.00     0.090 A 
HETATM   14  C   UNL     1      41.827 -14.418   0.250  1.00  0.00     0.084 A 
BRANCH  13  15
HETATM   15  C   UNL     1      41.802 -13.122  -2.001  1.00  0.00    -0.005 A 
HETATM   16  C   UNL     1      41.327 -13.104  -3.323  1.00  0.00     0.015 A 
HETATM   17  C   UNL     1      41.575 -12.013  -4.161  1.00  0.00     0.024 A 
HETATM   18  C   UNL     1      42.298 -10.926  -3.681  1.00  0.00     0.034 A 
HETATM   19 CL   UNL     1      42.607  -9.582  -4.709  1.00  0.00    -0.084 Cl
HETATM   20  C   UNL     1      42.773 -10.919  -2.372  1.00  0.00     0.024 A 
HETATM   21  C   UNL     1      42.526 -12.014  -1.535  1.00  0.00     0.015 A 
ENDBRANCH  13  15
ENDBRANCH   5   9
BRANCH   1  22
HETATM   22  C   UNL     1      43.693 -17.042   5.957  1.00  0.00     0.107 C 
BRANCH  22  23
HETATM   23  C   UNL     1      43.470 -18.296   6.799  1.00  0.00     0.048 C 
BRANCH  23  24
HETATM   24  C   UNL     1      43.875 -19.532   6.030  1.00  0.00    -0.055 A 
HETATM   25  C   UNL     1      44.188 -19.440   4.662  1.00  0.00     0.044 A 
HETATM   26  C   UNL     1      44.614 -20.565   3.954  1.00  0.00     0.068 A 
HETATM   27  C   UNL     1      44.722 -21.788   4.617  1.00  0.00     0.037 A 
HETATM   28  C   UNL     1      44.414 -21.892   5.973  1.00  0.00     0.003 A 
HETATM   29  C   UNL     1      43.995 -20.766   6.680  1.00  0.00     0.007 A 
BRANCH  26  30
HETATM   30  O   UNL     1      44.957 -20.600   2.629  1.00  0.00    -0.356 OA
HETATM   31  C   UNL     1      44.472 -21.700   1.869  1.00  0.00     0.210 C 
ENDBRANCH  26  30
ENDBRANCH  23  24
ENDBRANCH  22  23
ENDBRANCH   1  22
TORSDOF 6
ENDMDL
MODEL 5
REMARK VINA RESULT:      -8.4      6.167      9.335
REMARK  6 active torsions:
REMARK  status: ('A' for Active; 'I' for Inactive)
REMARK    1  A    between atoms: O_2  and  C_3 
REMARK    2  A    between atoms: C_5  and  C_6 
REMARK    3  A    between atoms: C_6  and  C_7 
REMARK    4  A    between atoms: C_7  and  C_8 
REMARK       I    between atoms: C_8  and  N_9 
REMARK    5  A    between atoms: N_12  and  C_13 
REMARK    6  A    between atoms: C_17  and  C_18 
ROOT
HETATM    1  C   UNL     1      38.715 -12.681   2.210  1.00  0.00     0.220 C 
HETATM    2  N   UNL     1      39.350 -13.909   2.369  1.00  0.00    -0.349 N 
HETATM    3  C   UNL     1      39.347 -14.969   1.348  1.00  0.00     0.145 C 
HETATM    4  C   UNL     1      40.609 -14.847   0.468  1.00  0.00     0.144 C 
HETATM    5  N   UNL     1      41.834 -14.876   1.307  1.00  0.00    -0.363 N 
HETATM    6  C   UNL     1      41.823 -13.848   2.386  1.00  0.00     0.144 C 
HETATM    7  C   UNL     1      40.535 -13.964   3.234  1.00  0.00     0.145 C 
HETATM    8  O   UNL     1      39.004 -11.703   2.899  1.00  0.00    -0.273 OA
ENDROOT
BRANCH   5   9
HETATM    9  C   UNL     1      42.496 -16.059   1.482  1.00  0.00     0.122 A 
HETATM   10  N   UNL     1      43.032 -16.770   0.441  1.00  0.00    -0.262 N 
HETATM   11  H   UNL     1      43.001 -16.537  -0.543  1.00  0.00     0.191 HD
HETATM   12  N   UNL     1      43.619 -17.924   0.798  1.00  0.00    -0.173 NA
HETATM   13  C   UNL     1      43.430 -17.997   2.125  1.00  0.00     0.090 A 
HETATM   14  C   UNL     1      42.725 -16.851   2.587  1.00  0.00     0.084 A 
BRANCH  13  15
HETATM   15  C   UNL     1      43.900 -19.146   2.907  1.00  0.00    -0.005 A 
HETATM   16  C   UNL     1      44.247 -18.989   4.259  1.00  0.00     0.015 A 
HETATM   17  C   UNL     1      44.716 -20.071   5.011  1.00  0.00     0.024 A 
HETATM   18  C   UNL     1      44.834 -21.323   4.416  1.00  0.00     0.034 A 
HETATM   19 CL   UNL     1      45.410 -22.657   5.337  1.00  0.00    -0.084 Cl
HETATM   20  C   UNL     1      44.488 -21.503   3.079  1.00  0.00     0.024 A 
HETATM   21  C   UNL     1      44.023 -20.418   2.328  1.00  0.00     0.015 A 
ENDBRANCH  13  15
ENDBRANCH   5   9
BRANCH   1  22
HETATM   22  C   UNL     1      37.645 -12.604   1.135  1.00  0.00     0.107 C 
BRANCH  22  23
HETATM   23  C   UNL     1      38.016 -11.639   0.011  1.00  0.00     0.048 C 
BRANCH  23  24
HETATM   24  C   UNL     1      38.622 -12.387  -1.153  1.00  0.00    -0.055 A 
HETATM   25  C   UNL     1      37.953 -13.494  -1.706  1.00  0.00     0.044 A 
HETATM   26  C   UNL     1      38.477 -14.160  -2.815  1.00  0.00     0.068 A 
HETATM   27  C   UNL     1      39.680 -13.720  -3.369  1.00  0.00     0.037 A 
HETATM   28  C   UNL     1      40.353 -12.624  -2.829  1.00  0.00     0.003 A 
HETATM   29  C   UNL     1      39.824 -11.956  -1.726  1.00  0.00     0.007 A 
BRANCH  26  30
HETATM   30  O   UNL     1      37.916 -15.237  -3.447  1.00  0.00    -0.356 OA
HETATM   31  C   UNL     1      38.786 -16.054  -4.220  1.00  0.00     0.210 C 
ENDBRANCH  26  30
ENDBRANCH  23  24
ENDBRANCH  22  23
ENDBRANCH   1  22
TORSDOF 6
ENDMDL
MODEL 6
REMARK VINA RESULT:      -8.3      4.307      9.387
REMARK  6 active torsions:
REMARK  status: ('A' for Active; 'I' for Inactive)
REMARK    1  A    between atoms: O_2  and  C_3 
REMARK    2  A    between atoms: C_5  and  C_6 
REMARK    3  A    between atoms: C_6  and  C_7 
REMARK    4  A    between atoms: C_7  and  C_8 
REMARK       I    between atoms: C_8  and  N_9 
REMARK    5  A    between atoms: N_12  and  C_13 
REMARK    6  A    between atoms: C_17  and  C_18 
ROOT
HETATM    1  C   UNL     1      39.487 -10.786   5.229  1.00  0.00     0.220 C 
HETATM    2  N   UNL     1      40.310 -11.683   4.554  1.00  0.00    -0.349 N 
HETATM    3  C   UNL     1      41.722 -11.914   4.897  1.00  0.00     0.145 C 
HETATM    4  C   UNL     1      41.834 -13.111   5.864  1.00  0.00     0.144 C 
HETATM    5  N   UNL     1      41.193 -14.315   5.278  1.00  0.00    -0.363 N 
HETATM    6  C   UNL     1      39.780 -14.078   4.868  1.00  0.00     0.144 C 
HETATM    7  C   UNL     1      39.684 -12.854   3.928  1.00  0.00     0.145 C 
HETATM    8  O   UNL     1      38.260 -10.851   5.165  1.00  0.00    -0.273 OA
ENDROOT
BRANCH   5   9
HETATM    9  C   UNL     1      41.964 -15.228   4.615  1.00  0.00     0.122 A 
HETATM   10  N   UNL     1      42.805 -14.883   3.589  1.00  0.00    -0.262 N 
HETATM   11  H   UNL     1      42.950 -13.961   3.197  1.00  0.00     0.191 HD
HETATM   12  N   UNL     1      43.460 -15.914   3.035  1.00  0.00    -0.173 NA
HETATM   13  C   UNL     1      43.007 -16.991   3.695  1.00  0.00     0.090 A 
HETATM   14  C   UNL     1      42.064 -16.600   4.687  1.00  0.00     0.084 A 
BRANCH  13  15
HETATM   15  C   UNL     1      43.459 -18.346   3.361  1.00  0.00    -0.005 A 
HETATM   16  C   UNL     1      43.004 -18.977   2.192  1.00  0.00     0.015 A 
HETATM   17  C   UNL     1      43.410 -20.276   1.872  1.00  0.00     0.024 A 
HETATM   18  C   UNL     1      44.283 -20.953   2.718  1.00  0.00     0.034 A 
HETATM   19 CL   UNL     1      44.785 -22.552   2.330  1.00  0.00    -0.084 Cl
HETATM   20  C   UNL     1      44.752 -20.344   3.879  1.00  0.00     0.024 A 
HETATM   21  C   UNL     1      44.341 -19.045   4.199  1.00  0.00     0.015 A 
ENDBRANCH  13  15
ENDBRANCH   5   9
BRANCH   1  22
HETATM   22  C   UNL     1      40.181  -9.721   6.060  1.00  0.00     0.107 C 
BRANCH  22  23
HETATM   23  C   UNL     1      39.568  -9.575   7.451  1.00  0.00     0.048 C 
BRANCH  23  24
HETATM   24  C   UNL     1      40.509 -10.110   8.505  1.00  0.00    -0.055 A 
HETATM   25  C   UNL     1      41.884 -10.222   8.232  1.00  0.00     0.044 A 
HETATM   26  C   UNL     1      42.770 -10.664   9.216  1.00  0.00     0.068 A 
HETATM   27  C   UNL     1      42.276 -11.002  10.477  1.00  0.00     0.037 A 
HETATM   28  C   UNL     1      40.915 -10.895  10.759  1.00  0.00     0.003 A 
HETATM   29  C   UNL     1      40.033 -10.446   9.778  1.00  0.00     0.007 A 
BRANCH  26  30
HETATM   30  O   UNL     1      44.124 -10.805   9.076  1.00  0.00    -0.356 OA
HETATM   31  C   UNL     1      44.633 -12.132   9.035  1.00  0.00     0.210 C 
ENDBRANCH  26  30
ENDBRANCH  23  24
ENDBRANCH  22  23
ENDBRANCH   1  22
TORSDOF 6
ENDMDL
MODEL 7
REMARK VINA RESULT:      -8.3      2.095      2.909
REMARK  6 active torsions:
REMARK  status: ('A' for Active; 'I' for Inactive)
REMARK    1  A    between atoms: O_2  and  C_3 
REMARK    2  A    between atoms: C_5  and  C_6 
REMARK    3  A    between atoms: C_6  and  C_7 
REMARK    4  A    between atoms: C_7  and  C_8 
REMARK       I    between atoms: C_8  and  N_9 
REMARK    5  A    between atoms: N_12  and  C_13 
REMARK    6  A    between atoms: C_17  and  C_18 
ROOT
HETATM    1  C   UNL     1      40.466 -14.991   3.303  1.00  0.00     0.220 C 
HETATM    2  N   UNL     1      40.656 -14.304   4.498  1.00  0.00    -0.349 N 
HETATM    3  C   UNL     1      41.980 -14.006   5.068  1.00  0.00     0.145 C 
HETATM    4  C   UNL     1      42.437 -12.603   4.617  1.00  0.00     0.144 C 
HETATM    5  N   UNL     1      41.423 -11.582   4.984  1.00  0.00    -0.363 N 
HETATM    6  C   UNL     1      40.062 -11.903   4.467  1.00  0.00     0.144 C 
HETATM    7  C   UNL     1      39.638 -13.326   4.900  1.00  0.00     0.145 C 
HETATM    8  O   UNL     1      39.407 -14.934   2.679  1.00  0.00    -0.273 OA
ENDROOT
BRANCH   5   9
HETATM    9  C   UNL     1      41.575 -10.876   6.145  1.00  0.00     0.122 A 
HETATM   10  N   UNL     1      41.440  -9.514   6.208  1.00  0.00    -0.262 N 
HETATM   11  H   UNL     1      41.235  -8.881   5.446  1.00  0.00     0.191 HD
HETATM   12  N   UNL     1      41.655  -8.989   7.424  1.00  0.00    -0.173 NA
HETATM   13  C   UNL     1      41.982 -10.041   8.189  1.00  0.00     0.090 A 
HETATM   14  C   UNL     1      41.949 -11.239   7.421  1.00  0.00     0.084 A 
BRANCH  13  15
HETATM   15  C   UNL     1      42.332  -9.885   9.605  1.00  0.00    -0.005 A 
HETATM   16  C   UNL     1      41.627  -8.979  10.414  1.00  0.00     0.015 A 
HETATM   17  C   UNL     1      41.962  -8.805  11.761  1.00  0.00     0.024 A 
HETATM   18  C   UNL     1      43.005  -9.544  12.311  1.00  0.00     0.034 A 
HETATM   19 CL   UNL     1      43.423  -9.334  13.966  1.00  0.00    -0.084 Cl
HETATM   20  C   UNL     1      43.713 -10.454  11.529  1.00  0.00     0.024 A 
HETATM   21  C   UNL     1      43.378 -10.623  10.181  1.00  0.00     0.015 A 
ENDBRANCH  13  15
ENDBRANCH   5   9
BRANCH   1  22
HETATM   22  C   UNL     1      41.638 -15.815   2.799  1.00  0.00     0.107 C 
BRANCH  22  23
HETATM   23  C   UNL     1      41.285 -17.292   2.638  1.00  0.00     0.048 C 
BRANCH  23  24
HETATM   24  C   UNL     1      42.329 -18.163   3.298  1.00  0.00    -0.055 A 
HETATM   25  C   UNL     1      43.099 -19.050   2.525  1.00  0.00     0.044 A 
HETATM   26  C   UNL     1      44.101 -19.821   3.115  1.00  0.00     0.068 A 
HETATM   27  C   UNL     1      44.330 -19.707   4.487  1.00  0.00     0.037 A 
HETATM   28  C   UNL     1      43.573 -18.831   5.265  1.00  0.00     0.003 A 
HETATM   29  C   UNL     1      42.577 -18.057   4.672  1.00  0.00     0.007 A 
BRANCH  26  30
HETATM   30  O   UNL     1      44.921 -20.707   2.471  1.00  0.00    -0.356 OA
HETATM   31  C   UNL     1      44.305 -21.858   1.906  1.00  0.00     0.210 C 
ENDBRANCH  26  30
ENDBRANCH  23  24
ENDBRANCH  22  23
ENDBRANCH   1  22
TORSDOF 6
ENDMDL
MODEL 8
REMARK VINA RESULT:      -7.9      2.293      2.902
REMARK  6 active torsions:
REMARK  status: ('A' for Active; 'I' for Inactive)
REMARK    1  A    between atoms: O_2  and  C_3 
REMARK    2  A    between atoms: C_5  and  C_6 
REMARK    3  A    between atoms: C_6  and  C_7 
REMARK    4  A    between atoms: C_7  and  C_8 
REMARK       I    between atoms: C_8  and  N_9 
REMARK    5  A    between atoms: N_12  and  C_13 
REMARK    6  A    between atoms: C_17  and  C_18 
ROOT
HETATM    1  C   UNL     1      40.699 -15.384   3.245  1.00  0.00     0.220 C 
HETATM    2  N   UNL     1      40.729 -14.828   4.521  1.00  0.00    -0.349 N 
HETATM    3  C   UNL     1      41.970 -14.521   5.249  1.00  0.00     0.145 C 
HETATM    4  C   UNL     1      42.371 -13.052   5.000  1.00  0.00     0.144 C 
HETATM    5  N   UNL     1      41.260 -12.140   5.371  1.00  0.00    -0.363 N 
HETATM    6  C   UNL     1      39.979 -12.477   4.688  1.00  0.00     0.144 C 
HETATM    7  C   UNL     1      39.613 -13.961   4.921  1.00  0.00     0.145 C 
HETATM    8  O   UNL     1      39.701 -15.317   2.528  1.00  0.00    -0.273 OA
ENDROOT
BRANCH   5   9
HETATM    9  C   UNL     1      41.254 -11.563   6.610  1.00  0.00     0.122 A 
HETATM   10  N   UNL     1      42.373 -11.485   7.398  1.00  0.00    -0.262 N 
HETATM   11  H   UNL     1      43.298 -11.837   7.187  1.00  0.00     0.191 HD
HETATM   12  N   UNL     1      42.173 -10.913   8.596  1.00  0.00    -0.173 NA
HETATM   13  C   UNL     1      40.861 -10.634   8.617  1.00  0.00     0.090 A 
HETATM   14  C   UNL     1      40.252 -11.033   7.394  1.00  0.00     0.084 A 
BRANCH  13  15
HETATM   15  C   UNL     1      40.222 -10.023   9.787  1.00  0.00    -0.005 A 
HETATM   16  C   UNL     1      38.844  -9.748   9.781  1.00  0.00     0.015 A 
HETATM   17  C   UNL     1      38.227  -9.147  10.882  1.00  0.00     0.024 A 
HETATM   18  C   UNL     1      38.983  -8.821  12.004  1.00  0.00     0.034 A 
HETATM   19 CL   UNL     1      38.228  -8.081  13.360  1.00  0.00    -0.084 Cl
HETATM   20  C   UNL     1      40.349  -9.092  12.035  1.00  0.00     0.024 A 
HETATM   21  C   UNL     1      40.966  -9.690  10.930  1.00  0.00     0.015 A 
ENDBRANCH  13  15
ENDBRANCH   5   9
BRANCH   1  22
HETATM   22  C   UNL     1      41.966 -16.077   2.777  1.00  0.00     0.107 C 
BRANCH  22  23
HETATM   23  C   UNL     1      41.713 -17.516   2.331  1.00  0.00     0.048 C 
BRANCH  23  24
HETATM   24  C   UNL     1      42.781 -18.436   2.873  1.00  0.00    -0.055 A 
HETATM   25  C   UNL     1      43.175 -18.343   4.220  1.00  0.00     0.044 A 
HETATM   26  C   UNL     1      44.123 -19.223   4.745  1.00  0.00     0.068 A 
HETATM   27  C   UNL     1      44.683 -20.196   3.917  1.00  0.00     0.037 A 
HETATM   28  C   UNL     1      44.301 -20.298   2.579  1.00  0.00     0.003 A 
HETATM   29  C   UNL     1      43.349 -19.423   2.059  1.00  0.00     0.007 A 
BRANCH  26  30
HETATM   30  O   UNL     1      44.578 -19.240   6.036  1.00  0.00    -0.356 OA
HETATM   31  C   UNL     1      45.299 -18.097   6.479  1.00  0.00     0.210 C 
ENDBRANCH  26  30
ENDBRANCH  23  24
ENDBRANCH  22  23
ENDBRANCH   1  22
TORSDOF 6
ENDMDL
MODEL 9
REMARK VINA RESULT:      -7.9      5.551      8.195
REMARK  6 active torsions:
REMARK  status: ('A' for Active; 'I' for Inactive)
REMARK    1  A    between atoms: O_2  and  C_3 
REMARK    2  A    between atoms: C_5  and  C_6 
REMARK    3  A    between atoms: C_6  and  C_7 
REMARK    4  A    between atoms: C_7  and  C_8 
REMARK       I    between atoms: C_8  and  N_9 
REMARK    5  A    between atoms: N_12  and  C_13 
REMARK    6  A    between atoms: C_17  and  C_18 
ROOT
HETATM    1  C   UNL     1      43.403 -17.733   1.339  1.00  0.00     0.220 C 
HETATM    2  N   UNL     1      42.264 -17.117   0.828  1.00  0.00    -0.349 N 
HETATM    3  C   UNL     1      40.892 -17.524   1.167  1.00  0.00     0.145 C 
HETATM    4  C   UNL     1      40.372 -16.676   2.346  1.00  0.00     0.144 C 
HETATM    5  N   UNL     1      40.467 -15.229   2.028  1.00  0.00    -0.363 N 
HETATM    6  C   UNL     1      41.840 -14.812   1.622  1.00  0.00     0.144 C 
HETATM    7  C   UNL     1      42.355 -15.697   0.463  1.00  0.00     0.145 C 
HETATM    8  O   UNL     1      44.504 -17.184   1.326  1.00  0.00    -0.273 OA
ENDROOT
BRANCH   5   9
HETATM    9  C   UNL     1      39.371 -14.580   1.533  1.00  0.00     0.122 A 
HETATM   10  N   UNL     1      38.140 -15.174   1.430  1.00  0.00    -0.262 N 
HETATM   11  H   UNL     1      37.894 -16.123   1.679  1.00  0.00     0.191 HD
HETATM   12  N   UNL     1      37.188 -14.395   0.893  1.00  0.00    -0.173 NA
HETATM   13  C   UNL     1      37.823 -13.251   0.593  1.00  0.00     0.090 A 
HETATM   14  C   UNL     1      39.192 -13.333   0.974  1.00  0.00     0.084 A 
BRANCH  13  15
HETATM   15  C   UNL     1      37.130 -12.133  -0.055  1.00  0.00    -0.005 A 
HETATM   16  C   UNL     1      36.087 -11.465   0.608  1.00  0.00     0.015 A 
HETATM   17  C   UNL     1      35.404 -10.411  -0.005  1.00  0.00     0.024 A 
HETATM   18  C   UNL     1      35.765 -10.010  -1.288  1.00  0.00     0.034 A 
HETATM   19 CL   UNL     1      34.928  -8.714  -2.048  1.00  0.00    -0.084 Cl
HETATM   20  C   UNL     1      36.801 -10.653  -1.961  1.00  0.00     0.024 A 
HETATM   21  C   UNL     1      37.481 -11.711  -1.346  1.00  0.00     0.015 A 
ENDBRANCH  13  15
ENDBRANCH   5   9
BRANCH   1  22
HETATM   22  C   UNL     1      43.217 -19.122   1.923  1.00  0.00     0.107 C 
BRANCH  22  23
HETATM   23  C   UNL     1      44.471 -19.627   2.635  1.00  0.00     0.048 C 
BRANCH  23  24
HETATM   24  C   UNL     1      44.233 -19.725   4.124  1.00  0.00    -0.055 A 
HETATM   25  C   UNL     1      43.608 -18.669   4.810  1.00  0.00     0.044 A 
HETATM   26  C   UNL     1      43.337 -18.771   6.175  1.00  0.00     0.068 A 
HETATM   27  C   UNL     1      43.698 -19.933   6.858  1.00  0.00     0.037 A 
HETATM   28  C   UNL     1      44.320 -20.987   6.188  1.00  0.00     0.003 A 
HETATM   29  C   UNL     1      44.583 -20.887   4.823  1.00  0.00     0.007 A 
BRANCH  26  30
HETATM   30  O   UNL     1      42.726 -17.820   6.948  1.00  0.00    -0.356 OA
HETATM   31  C   UNL     1      43.410 -17.413   8.126  1.00  0.00     0.210 C 
ENDBRANCH  26  30
ENDBRANCH  23  24
ENDBRANCH  22  23
ENDBRANCH   1  22
TORSDOF 6
ENDMDL
MODEL 10
REMARK VINA RESULT:      -7.7      6.734     10.329
REMARK  6 active torsions:
REMARK  status: ('A' for Active; 'I' for Inactive)
REMARK    1  A    between atoms: O_2  and  C_3 
REMARK    2  A    between atoms: C_5  and  C_6 
REMARK    3  A    between atoms: C_6  and  C_7 
REMARK    4  A    between atoms: C_7  and  C_8 
REMARK       I    between atoms: C_8  and  N_9 
REMARK    5  A    between atoms: N_12  and  C_13 
REMARK    6  A    between atoms: C_17  and  C_18 
ROOT
HETATM    1  C   UNL     1      41.958 -15.772   3.014  1.00  0.00     0.220 C 
HETATM    2  N   UNL     1      41.201 -15.902   1.853  1.00  0.00    -0.349 N 
HETATM    3  C   UNL     1      39.738 -15.753   1.810  1.00  0.00     0.145 C 
HETATM    4  C   UNL     1      39.373 -14.299   1.444  1.00  0.00     0.144 C 
HETATM    5  N   UNL     1      40.017 -13.906   0.166  1.00  0.00    -0.363 N 
HETATM    6  C   UNL     1      41.493 -14.110   0.173  1.00  0.00     0.144 C 
HETATM    7  C   UNL     1      41.839 -15.562   0.575  1.00  0.00     0.145 C 
HETATM    8  O   UNL     1      43.169 -15.560   2.983  1.00  0.00    -0.273 OA
ENDROOT
BRANCH   5   9
HETATM    9  C   UNL     1      39.308 -14.007  -0.999  1.00  0.00     0.122 A 
HETATM   10  N   UNL     1      39.639 -14.889  -1.994  1.00  0.00    -0.262 N 
HETATM   11  H   UNL     1      40.415 -15.537  -2.008  1.00  0.00     0.191 HD
HETATM   12  N   UNL     1      38.849 -14.827  -3.078  1.00  0.00    -0.173 NA
HETATM   13  C   UNL     1      37.984 -13.838  -2.804  1.00  0.00     0.090 A 
HETATM   14  C   UNL     1      38.245 -13.297  -1.514  1.00  0.00     0.084 A 
BRANCH  13  15
HETATM   15  C   UNL     1      36.957 -13.424  -3.767  1.00  0.00    -0.005 A 
HETATM   16  C   UNL     1      36.596 -12.072  -3.881  1.00  0.00     0.015 A 
HETATM   17  C   UNL     1      35.605 -11.666  -4.780  1.00  0.00     0.024 A 
HETATM   18  C   UNL     1      34.971 -12.612  -5.579  1.00  0.00     0.034 A 
HETATM   19 CL   UNL     1      33.750 -12.119  -6.687  1.00  0.00    -0.084 Cl
HETATM   20  C   UNL     1      35.319 -13.958  -5.489  1.00  0.00     0.024 A 
HETATM   21  C   UNL     1      36.309 -14.362  -4.585  1.00  0.00     0.015 A 
ENDBRANCH  13  15
ENDBRANCH   5   9
BRANCH   1  22
HETATM   22  C   UNL     1      41.209 -15.901   4.329  1.00  0.00     0.107 C 
BRANCH  22  23
HETATM   23  C   UNL     1      41.196 -17.335   4.854  1.00  0.00     0.048 C 
BRANCH  23  24
HETATM   24  C   UNL     1      42.572 -17.740   5.327  1.00  0.00    -0.055 A 
HETATM   25  C   UNL     1      43.243 -18.811   4.710  1.00  0.00     0.044 A 
HETATM   26  C   UNL     1      44.536 -19.161   5.103  1.00  0.00     0.068 A 
HETATM   27  C   UNL     1      45.158 -18.439   6.123  1.00  0.00     0.037 A 
HETATM   28  C   UNL     1      44.502 -17.375   6.743  1.00  0.00     0.003 A 
HETATM   29  C   UNL     1      43.214 -17.023   6.344  1.00  0.00     0.007 A 
BRANCH  26  30
HETATM   30  O   UNL     1      45.293 -20.171   4.574  1.00  0.00    -0.356 OA
HETATM   31  C   UNL     1      44.821 -20.768   3.373  1.00  0.00     0.210 C 
ENDBRANCH  26  30
ENDBRANCH  23  24
ENDBRANCH  22  23
ENDBRANCH   1  22
TORSDOF 6
ENDMDL
