MODEL 1
REMARK VINA RESULT:      -9.5      0.000      0.000
REMARK  9 active torsions:
REMARK  status: ('A' for Active; 'I' for Inactive)
REMARK    1  A    between atoms: C_11  and  S_12 
REMARK    2  A    between atoms: S_12  and  C_13 
REMARK    3  A    between atoms: C_13  and  C_14 
REMARK       I    between atoms: C_14  and  N_15 
REMARK    4  A    between atoms: N_15  and  N_16 
REMARK    5  A    between atoms: N_16  and  C_17 
REMARK    6  A    between atoms: C_17  and  N_18 
REMARK    7  A    between atoms: N_18  and  C_19 
REMARK    8  A    between atoms: C_22  and  O_23 
REMARK    9  A    between atoms: O_23  and  C_24 
ROOT
HETATM    1  C   UNL     1      39.859 -13.725   5.433  1.00  0.00     0.245 C 
HETATM    2  N   UNL     1      40.565 -14.257   6.505  1.00  0.00    -0.267 N 
HETATM    3  O   UNL     1      39.890 -14.218   4.309  1.00  0.00    -0.271 OA
HETATM    4  H   UNL     1      40.736 -13.750   7.368  1.00  0.00     0.190 HD
ENDROOT
BRANCH   2   5
HETATM    5  N   UNL     1      41.234 -15.473   6.329  1.00  0.00    -0.274 N 
HETATM    6  H   UNL     1      40.631 -16.282   6.233  1.00  0.00     0.189 HD
BRANCH   5   7
HETATM    7  C   UNL     1      42.520 -15.533   5.850  1.00  0.00     0.191 C 
HETATM    8  S   UNL     1      43.892 -15.341   6.794  1.00  0.00    -0.039 SA
BRANCH   7   9
HETATM    9  N   UNL     1      42.679 -15.922   4.545  1.00  0.00    -0.332 N 
HETATM   10  H   UNL     1      42.336 -15.235   3.880  1.00  0.00     0.168 HD
BRANCH   9  11
HETATM   11  C   UNL     1      43.192 -17.114   3.997  1.00  0.00     0.034 A 
HETATM   12  C   UNL     1      43.373 -18.290   4.728  1.00  0.00     0.032 A 
HETATM   13  C   UNL     1      43.925 -19.423   4.120  1.00  0.00     0.039 A 
HETATM   14  C   UNL     1      44.278 -19.411   2.769  1.00  0.00     0.078 A 
HETATM   15  C   UNL     1      44.035 -18.260   2.021  1.00  0.00     0.039 A 
HETATM   16  C   UNL     1      43.484 -17.124   2.631  1.00  0.00     0.032 A 
BRANCH  14  17
HETATM   17  O   UNL     1      44.828 -20.575   2.317  1.00  0.00    -0.255 OA
BRANCH  17  18
HETATM   18  C   UNL     1      43.948 -21.632   1.974  1.00  0.00     0.530 C 
HETATM   19  F   UNL     1      43.928 -22.578   2.936  1.00  0.00    -0.144 F 
HETATM   20  F   UNL     1      42.695 -21.177   1.762  1.00  0.00    -0.144 F 
HETATM   21  F   UNL     1      44.385 -22.204   0.829  1.00  0.00    -0.144 F 
ENDBRANCH  17  18
ENDBRANCH  14  17
ENDBRANCH   9  11
ENDBRANCH   7   9
ENDBRANCH   5   7
ENDBRANCH   2   5
BRANCH   1  22
HETATM   22  C   UNL     1      39.013 -12.528   5.844  1.00  0.00     0.187 C 
BRANCH  22  23
HETATM   23  S   UNL     1      39.778 -10.914   5.517  1.00  0.00    -0.079 SA
BRANCH  23  24
HETATM   24  C   UNL     1      40.497 -10.571   7.112  1.00  0.00     0.211 A 
HETATM   25  N   UNL     1      41.716  -9.957   7.152  1.00  0.00    -0.122 NA
HETATM   26  N   UNL     1      42.362  -9.791   8.310  1.00  0.00    -0.143 NA
HETATM   27  C   UNL     1      41.730 -10.254   9.419  1.00  0.00     0.137 A 
HETATM   28  C   UNL     1      42.113 -10.312  10.785  1.00  0.00     0.025 A 
HETATM   29  C   UNL     1      40.470 -10.813   9.309  1.00  0.00     0.162 A 
HETATM   30  C   UNL     1      43.266  -9.937  11.505  1.00  0.00     0.016 A 
HETATM   31  C   UNL     1      41.047 -10.894  11.481  1.00  0.00     0.046 A 
HETATM   32  C   UNL     1      43.312 -10.158  12.886  1.00  0.00     0.001 A 
HETATM   33  C   UNL     1      42.232 -10.735  13.552  1.00  0.00     0.002 A 
HETATM   34  C   UNL     1      41.077 -11.113  12.862  1.00  0.00     0.030 A 
HETATM   35  N   UNL     1      40.062 -11.177  10.558  1.00  0.00    -0.338 N 
HETATM   36  H   UNL     1      39.175 -11.615  10.756  1.00  0.00     0.167 HD
HETATM   37  N   UNL     1      39.775 -10.988   8.174  1.00  0.00    -0.201 NA
ENDBRANCH  23  24
ENDBRANCH  22  23
ENDBRANCH   1  22
TORSDOF 9
ENDMDL
MODEL 2
REMARK VINA RESULT:      -9.3      1.448      1.507
REMARK  9 active torsions:
REMARK  status: ('A' for Active; 'I' for Inactive)
REMARK    1  A    between atoms: C_11  and  S_12 
REMARK    2  A    between atoms: S_12  and  C_13 
REMARK    3  A    between atoms: C_13  and  C_14 
REMARK       I    between atoms: C_14  and  N_15 
REMARK    4  A    between atoms: N_15  and  N_16 
REMARK    5  A    between atoms: N_16  and  C_17 
REMARK    6  A    between atoms: C_17  and  N_18 
REMARK    7  A    between atoms: N_18  and  C_19 
REMARK    8  A    between atoms: C_22  and  O_23 
REMARK    9  A    between atoms: O_23  and  C_24 
ROOT
HETATM    1  C   UNL     1      40.155 -13.653   5.751  1.00  0.00     0.245 C 
HETATM    2  N   UNL     1      39.510 -14.748   5.189  1.00  0.00    -0.267 N 
HETATM    3  O   UNL     1      41.376 -13.587   5.859  1.00  0.00    -0.271 OA
HETATM    4  H   UNL     1      38.515 -14.925   5.294  1.00  0.00     0.190 HD
ENDROOT
BRANCH   2   5
HETATM    5  N   UNL     1      40.285 -15.757   4.609  1.00  0.00    -0.274 N 
HETATM    6  H   UNL     1      40.283 -16.638   5.111  1.00  0.00     0.189 HD
BRANCH   5   7
HETATM    7  C   UNL     1      40.618 -15.745   3.277  1.00  0.00     0.191 C 
HETATM    8  S   UNL     1      39.582 -15.269   2.047  1.00  0.00    -0.039 SA
BRANCH   7   9
HETATM    9  N   UNL     1      41.928 -15.998   2.960  1.00  0.00    -0.332 N 
HETATM   10  H   UNL     1      42.432 -15.171   2.658  1.00  0.00     0.168 HD
BRANCH   9  11
HETATM   11  C   UNL     1      42.653 -17.206   2.949  1.00  0.00     0.034 A 
HETATM   12  C   UNL     1      42.969 -17.933   4.097  1.00  0.00     0.032 A 
HETATM   13  C   UNL     1      43.727 -19.106   4.007  1.00  0.00     0.039 A 
HETATM   14  C   UNL     1      44.156 -19.587   2.768  1.00  0.00     0.078 A 
HETATM   15  C   UNL     1      43.784 -18.899   1.614  1.00  0.00     0.039 A 
HETATM   16  C   UNL     1      43.026 -17.723   1.706  1.00  0.00     0.032 A 
BRANCH  14  17
HETATM   17  O   UNL     1      44.907 -20.725   2.831  1.00  0.00    -0.255 OA
BRANCH  17  18
HETATM   18  C   UNL     1      44.328 -21.926   2.352  1.00  0.00     0.530 C 
HETATM   19  F   UNL     1      44.584 -22.954   3.189  1.00  0.00    -0.144 F 
HETATM   20  F   UNL     1      42.994 -21.797   2.190  1.00  0.00    -0.144 F 
HETATM   21  F   UNL     1      44.870 -22.219   1.149  1.00  0.00    -0.144 F 
ENDBRANCH  17  18
ENDBRANCH  14  17
ENDBRANCH   9  11
ENDBRANCH   7   9
ENDBRANCH   5   7
ENDBRANCH   2   5
BRANCH   1  22
HETATM   22  C   UNL     1      39.178 -12.550   6.137  1.00  0.00     0.187 C 
BRANCH  22  23
HETATM   23  S   UNL     1      39.782 -10.865   5.831  1.00  0.00    -0.079 SA
BRANCH  23  24
HETATM   24  C   UNL     1      40.506 -10.492   7.417  1.00  0.00     0.211 A 
HETATM   25  N   UNL     1      41.711  -9.850   7.441  1.00  0.00    -0.122 NA
HETATM   26  N   UNL     1      42.363  -9.659   8.592  1.00  0.00    -0.143 NA
HETATM   27  C   UNL     1      41.750 -10.127   9.710  1.00  0.00     0.137 A 
HETATM   28  C   UNL     1      42.146 -10.163  11.073  1.00  0.00     0.025 A 
HETATM   29  C   UNL     1      40.502 -10.715   9.616  1.00  0.00     0.162 A 
HETATM   30  C   UNL     1      43.296  -9.756  11.780  1.00  0.00     0.016 A 
HETATM   31  C   UNL     1      41.099 -10.763  11.784  1.00  0.00     0.046 A 
HETATM   32  C   UNL     1      43.359  -9.963  13.163  1.00  0.00     0.001 A 
HETATM   33  C   UNL     1      42.297 -10.559  13.843  1.00  0.00     0.002 A 
HETATM   34  C   UNL     1      41.145 -10.969  13.166  1.00  0.00     0.030 A 
HETATM   35  N   UNL     1      40.113 -11.076  10.872  1.00  0.00    -0.338 N 
HETATM   36  H   UNL     1      39.237 -11.533  11.081  1.00  0.00     0.167 HD
HETATM   37  N   UNL     1      39.803 -10.915   8.489  1.00  0.00    -0.201 NA
ENDBRANCH  23  24
ENDBRANCH  22  23
ENDBRANCH   1  22
TORSDOF 9
ENDMDL
MODEL 3
REMARK VINA RESULT:      -9.2      2.258      3.135
REMARK  9 active torsions:
REMARK  status: ('A' for Active; 'I' for Inactive)
REMARK    1  A    between atoms: C_11  and  S_12 
REMARK    2  A    between atoms: S_12  and  C_13 
REMARK    3  A    between atoms: C_13  and  C_14 
REMARK       I    between atoms: C_14  and  N_15 
REMARK    4  A    between atoms: N_15  and  N_16 
REMARK    5  A    between atoms: N_16  and  C_17 
REMARK    6  A    between atoms: C_17  and  N_18 
REMARK    7  A    between atoms: N_18  and  C_19 
REMARK    8  A    between atoms: C_22  and  O_23 
REMARK    9  A    between atoms: O_23  and  C_24 
ROOT
HETATM    1  C   UNL     1      43.588 -14.013   5.562  1.00  0.00     0.245 C 
HETATM    2  N   UNL     1      42.221 -14.234   5.444  1.00  0.00    -0.267 N 
HETATM    3  O   UNL     1      44.280 -13.629   4.623  1.00  0.00    -0.271 OA
HETATM    4  H   UNL     1      41.679 -14.759   6.124  1.00  0.00     0.190 HD
ENDROOT
BRANCH   2   5
HETATM    5  N   UNL     1      41.586 -13.885   4.247  1.00  0.00    -0.274 N 
HETATM    6  H   UNL     1      41.590 -12.893   4.036  1.00  0.00     0.189 HD
BRANCH   5   7
HETATM    7  C   UNL     1      41.409 -14.788   3.227  1.00  0.00     0.191 C 
HETATM    8  S   UNL     1      39.924 -15.170   2.550  1.00  0.00    -0.039 SA
BRANCH   7   9
HETATM    9  N   UNL     1      42.540 -15.289   2.637  1.00  0.00    -0.332 N 
HETATM   10  H   UNL     1      43.056 -14.593   2.108  1.00  0.00     0.168 HD
BRANCH   9  11
HETATM   11  C   UNL     1      43.062 -16.598   2.617  1.00  0.00     0.034 A 
HETATM   12  C   UNL     1      43.292 -17.361   3.762  1.00  0.00     0.032 A 
HETATM   13  C   UNL     1      43.850 -18.640   3.661  1.00  0.00     0.039 A 
HETATM   14  C   UNL     1      44.159 -19.189   2.415  1.00  0.00     0.078 A 
HETATM   15  C   UNL     1      43.868 -18.456   1.266  1.00  0.00     0.039 A 
HETATM   16  C   UNL     1      43.312 -17.174   1.368  1.00  0.00     0.032 A 
BRANCH  14  17
HETATM   17  O   UNL     1      44.720 -20.433   2.468  1.00  0.00    -0.255 OA
BRANCH  17  18
HETATM   18  C   UNL     1      43.938 -21.530   2.030  1.00  0.00     0.530 C 
HETATM   19  F   UNL     1      44.412 -22.031   0.870  1.00  0.00    -0.144 F 
HETATM   20  F   UNL     1      43.900 -22.507   2.961  1.00  0.00    -0.144 F 
HETATM   21  F   UNL     1      42.673 -21.104   1.818  1.00  0.00    -0.144 F 
ENDBRANCH  17  18
ENDBRANCH  14  17
ENDBRANCH   9  11
ENDBRANCH   7   9
ENDBRANCH   5   7
ENDBRANCH   2   5
BRANCH   1  22
HETATM   22  C   UNL     1      44.081 -14.235   6.985  1.00  0.00     0.187 C 
BRANCH  22  23
HETATM   23  S   UNL     1      45.488 -13.193   7.468  1.00  0.00    -0.079 SA
BRANCH  23  24
HETATM   24  C   UNL     1      44.816 -12.401   8.917  1.00  0.00     0.211 A 
HETATM   25  N   UNL     1      45.206 -12.860  10.142  1.00  0.00    -0.122 NA
HETATM   26  N   UNL     1      44.641 -12.394  11.260  1.00  0.00    -0.143 NA
HETATM   27  C   UNL     1      43.683 -11.446  11.096  1.00  0.00     0.137 A 
HETATM   28  C   UNL     1      42.837 -10.771  12.015  1.00  0.00     0.025 A 
HETATM   29  C   UNL     1      43.381 -10.987   9.827  1.00  0.00     0.162 A 
HETATM   30  C   UNL     1      42.651 -10.825  13.411  1.00  0.00     0.016 A 
HETATM   31  C   UNL     1      42.046  -9.890  11.266  1.00  0.00     0.046 A 
HETATM   32  C   UNL     1      41.688 -10.003  14.006  1.00  0.00     0.001 A 
HETATM   33  C   UNL     1      40.920  -9.132  13.235  1.00  0.00     0.002 A 
HETATM   34  C   UNL     1      41.085  -9.057  11.850  1.00  0.00     0.030 A 
HETATM   35  N   UNL     1      42.409 -10.038   9.944  1.00  0.00    -0.338 N 
HETATM   36  H   UNL     1      42.004  -9.546   9.162  1.00  0.00     0.167 HD
HETATM   37  N   UNL     1      43.930 -11.411   8.678  1.00  0.00    -0.201 NA
ENDBRANCH  23  24
ENDBRANCH  22  23
ENDBRANCH   1  22
TORSDOF 9
ENDMDL
MODEL 4
REMARK VINA RESULT:      -9.1      4.994      5.925
REMARK  9 active torsions:
REMARK  status: ('A' for Active; 'I' for Inactive)
REMARK    1  A    between atoms: C_11  and  S_12 
REMARK    2  A    between atoms: S_12  and  C_13 
REMARK    3  A    between atoms: C_13  and  C_14 
REMARK       I    between atoms: C_14  and  N_15 
REMARK    4  A    between atoms: N_15  and  N_16 
REMARK    5  A    between atoms: N_16  and  C_17 
REMARK    6  A    between atoms: C_17  and  N_18 
REMARK    7  A    between atoms: N_18  and  C_19 
REMARK    8  A    between atoms: C_22  and  O_23 
REMARK    9  A    between atoms: O_23  and  C_24 
ROOT
HETATM    1  C   UNL     1      40.750 -13.714  -0.685  1.00  0.00     0.245 C 
HETATM    2  N   UNL     1      41.920 -14.423  -0.435  1.00  0.00    -0.267 N 
HETATM    3  O   UNL     1      39.746 -14.239  -1.157  1.00  0.00    -0.271 OA
HETATM    4  H   UNL     1      42.817 -13.978  -0.266  1.00  0.00     0.190 HD
ENDROOT
BRANCH   2   5
HETATM    5  N   UNL     1      41.912 -15.811  -0.609  1.00  0.00    -0.274 N 
HETATM    6  H   UNL     1      42.231 -16.129  -1.517  1.00  0.00     0.189 HD
BRANCH   5   7
HETATM    7  C   UNL     1      41.946 -16.677   0.456  1.00  0.00     0.191 C 
HETATM    8  S   UNL     1      40.595 -17.178   1.313  1.00  0.00    -0.039 SA
BRANCH   7   9
HETATM    9  N   UNL     1      43.148 -17.277   0.731  1.00  0.00    -0.332 N 
HETATM   10  H   UNL     1      43.839 -17.140   0.000  1.00  0.00     0.168 HD
BRANCH   9  11
HETATM   11  C   UNL     1      43.550 -18.070   1.824  1.00  0.00     0.034 A 
HETATM   12  C   UNL     1      43.704 -19.456   1.763  1.00  0.00     0.032 A 
HETATM   13  C   UNL     1      44.070 -20.178   2.905  1.00  0.00     0.039 A 
HETATM   14  C   UNL     1      44.316 -19.528   4.115  1.00  0.00     0.078 A 
HETATM   15  C   UNL     1      44.229 -18.137   4.161  1.00  0.00     0.039 A 
HETATM   16  C   UNL     1      43.860 -17.414   3.018  1.00  0.00     0.032 A 
BRANCH  14  17
HETATM   17  O   UNL     1      44.639 -20.358   5.149  1.00  0.00    -0.255 OA
BRANCH  17  18
HETATM   18  C   UNL     1      43.940 -20.196   6.371  1.00  0.00     0.530 C 
HETATM   19  F   UNL     1      42.704 -19.697   6.159  1.00  0.00    -0.144 F 
HETATM   20  F   UNL     1      43.847 -21.364   7.041  1.00  0.00    -0.144 F 
HETATM   21  F   UNL     1      44.619 -19.322   7.146  1.00  0.00    -0.144 F 
ENDBRANCH  17  18
ENDBRANCH  14  17
ENDBRANCH   9  11
ENDBRANCH   7   9
ENDBRANCH   5   7
ENDBRANCH   2   5
BRANCH   1  22
HETATM   22  C   UNL     1      40.857 -12.262  -0.242  1.00  0.00     0.187 C 
BRANCH  22  23
HETATM   23  S   UNL     1      39.844 -11.837   1.204  1.00  0.00    -0.079 SA
BRANCH  23  24
HETATM   24  C   UNL     1      40.477 -13.006   2.392  1.00  0.00     0.211 A 
HETATM   25  N   UNL     1      39.623 -13.951   2.886  1.00  0.00    -0.122 NA
HETATM   26  N   UNL     1      40.004 -14.770   3.871  1.00  0.00    -0.143 NA
HETATM   27  C   UNL     1      41.272 -14.609   4.327  1.00  0.00     0.137 A 
HETATM   28  C   UNL     1      42.000 -15.233   5.374  1.00  0.00     0.025 A 
HETATM   29  C   UNL     1      42.100 -13.670   3.738  1.00  0.00     0.162 A 
HETATM   30  C   UNL     1      41.700 -16.223   6.332  1.00  0.00     0.016 A 
HETATM   31  C   UNL     1      43.278 -14.661   5.377  1.00  0.00     0.046 A 
HETATM   32  C   UNL     1      42.682 -16.603   7.254  1.00  0.00     0.001 A 
HETATM   33  C   UNL     1      43.947 -16.019   7.229  1.00  0.00     0.002 A 
HETATM   34  C   UNL     1      44.271 -15.037   6.289  1.00  0.00     0.030 A 
HETATM   35  N   UNL     1      43.309 -13.725   4.366  1.00  0.00    -0.338 N 
HETATM   36  H   UNL     1      44.094 -13.135   4.130  1.00  0.00     0.167 HD
HETATM   37  N   UNL     1      41.771 -12.837   2.739  1.00  0.00    -0.201 NA
ENDBRANCH  23  24
ENDBRANCH  22  23
ENDBRANCH   1  22
TORSDOF 9
ENDMDL
MODEL 5
REMARK VINA RESULT:      -8.9      4.324      4.958
REMARK  9 active torsions:
REMARK  status: ('A' for Active; 'I' for Inactive)
REMARK    1  A    between atoms: C_11  and  S_12 
REMARK    2  A    between atoms: S_12  and  C_13 
REMARK    3  A    between atoms: C_13  and  C_14 
REMARK       I    between atoms: C_14  and  N_15 
REMARK    4  A    between atoms: N_15  and  N_16 
REMARK    5  A    between atoms: N_16  and  C_17 
REMARK    6  A    between atoms: C_17  and  N_18 
REMARK    7  A    between atoms: N_18  and  C_19 
REMARK    8  A    between atoms: C_22  and  O_23 
REMARK    9  A    between atoms: O_23  and  C_24 
ROOT
HETATM    1  C   UNL     1      40.696 -12.115   0.943  1.00  0.00     0.245 C 
HETATM    2  N   UNL     1      41.865 -12.867   0.987  1.00  0.00    -0.267 N 
HETATM    3  O   UNL     1      39.642 -12.555   0.492  1.00  0.00    -0.271 OA
HETATM    4  H   UNL     1      42.784 -12.462   1.138  1.00  0.00     0.190 HD
ENDROOT
BRANCH   2   5
HETATM    5  N   UNL     1      41.807 -14.216   0.621  1.00  0.00    -0.274 N 
HETATM    6  H   UNL     1      42.206 -14.429  -0.287  1.00  0.00     0.189 HD
BRANCH   5   7
HETATM    7  C   UNL     1      41.685 -15.218   1.552  1.00  0.00     0.191 C 
HETATM    8  S   UNL     1      40.265 -16.056   1.858  1.00  0.00    -0.039 SA
BRANCH   7   9
HETATM    9  N   UNL     1      42.837 -15.649   2.156  1.00  0.00    -0.332 N 
HETATM   10  H   UNL     1      43.451 -14.889   2.432  1.00  0.00     0.168 HD
BRANCH   9  11
HETATM   11  C   UNL     1      43.309 -16.952   2.410  1.00  0.00     0.034 A 
HETATM   12  C   UNL     1      43.289 -17.554   3.669  1.00  0.00     0.032 A 
HETATM   13  C   UNL     1      43.812 -18.840   3.848  1.00  0.00     0.039 A 
HETATM   14  C   UNL     1      44.335 -19.556   2.770  1.00  0.00     0.078 A 
HETATM   15  C   UNL     1      44.294 -18.984   1.499  1.00  0.00     0.039 A 
HETATM   16  C   UNL     1      43.772 -17.695   1.321  1.00  0.00     0.032 A 
BRANCH  14  17
HETATM   17  O   UNL     1      44.833 -20.785   3.094  1.00  0.00    -0.255 OA
BRANCH  17  18
HETATM   18  C   UNL     1      44.276 -21.915   2.448  1.00  0.00     0.530 C 
HETATM   19  F   UNL     1      44.381 -23.017   3.221  1.00  0.00    -0.144 F 
HETATM   20  F   UNL     1      42.980 -21.709   2.130  1.00  0.00    -0.144 F 
HETATM   21  F   UNL     1      44.957 -22.140   1.302  1.00  0.00    -0.144 F 
ENDBRANCH  17  18
ENDBRANCH  14  17
ENDBRANCH   9  11
ENDBRANCH   7   9
ENDBRANCH   5   7
ENDBRANCH   2   5
BRANCH   1  22
HETATM   22  C   UNL     1      40.877 -10.742   1.576  1.00  0.00     0.187 C 
BRANCH  22  23
HETATM   23  S   UNL     1      40.145 -10.570   3.229  1.00  0.00    -0.079 SA
BRANCH  23  24
HETATM   24  C   UNL     1      40.642 -12.119   3.961  1.00  0.00     0.211 A 
HETATM   25  N   UNL     1      39.676 -13.049   4.220  1.00  0.00    -0.122 NA
HETATM   26  N   UNL     1      39.967 -14.172   4.883  1.00  0.00    -0.143 NA
HETATM   27  C   UNL     1      41.262 -14.324   5.261  1.00  0.00     0.137 A 
HETATM   28  C   UNL     1      41.927 -15.328   6.013  1.00  0.00     0.025 A 
HETATM   29  C   UNL     1      42.198 -13.367   4.912  1.00  0.00     0.162 A 
HETATM   30  C   UNL     1      41.520 -16.516   6.655  1.00  0.00     0.016 A 
HETATM   31  C   UNL     1      43.276 -14.956   6.083  1.00  0.00     0.046 A 
HETATM   32  C   UNL     1      42.468 -17.283   7.340  1.00  0.00     0.001 A 
HETATM   33  C   UNL     1      43.805 -16.890   7.387  1.00  0.00     0.002 A 
HETATM   34  C   UNL     1      44.235 -15.719   6.757  1.00  0.00     0.030 A 
HETATM   35  N   UNL     1      43.408 -13.768   5.396  1.00  0.00    -0.338 N 
HETATM   36  H   UNL     1      44.262 -13.242   5.283  1.00  0.00     0.167 HD
HETATM   37  N   UNL     1      41.958 -12.233   4.236  1.00  0.00    -0.201 NA
ENDBRANCH  23  24
ENDBRANCH  22  23
ENDBRANCH   1  22
TORSDOF 9
ENDMDL
MODEL 6
REMARK VINA RESULT:      -8.8      5.416     11.179
REMARK  9 active torsions:
REMARK  status: ('A' for Active; 'I' for Inactive)
REMARK    1  A    between atoms: C_11  and  S_12 
REMARK    2  A    between atoms: S_12  and  C_13 
REMARK    3  A    between atoms: C_13  and  C_14 
REMARK       I    between atoms: C_14  and  N_15 
REMARK    4  A    between atoms: N_15  and  N_16 
REMARK    5  A    between atoms: N_16  and  C_17 
REMARK    6  A    between atoms: C_17  and  N_18 
REMARK    7  A    between atoms: N_18  and  C_19 
REMARK    8  A    between atoms: C_22  and  O_23 
REMARK    9  A    between atoms: O_23  and  C_24 
ROOT
HETATM    1  C   UNL     1      41.031 -13.862   4.869  1.00  0.00     0.245 C 
HETATM    2  N   UNL     1      41.077 -13.605   6.234  1.00  0.00    -0.267 N 
HETATM    3  O   UNL     1      39.983 -13.858   4.228  1.00  0.00    -0.271 OA
HETATM    4  H   UNL     1      41.879 -13.824   6.817  1.00  0.00     0.190 HD
ENDROOT
BRANCH   2   5
HETATM    5  N   UNL     1      39.903 -13.201   6.879  1.00  0.00    -0.274 N 
HETATM    6  H   UNL     1      39.424 -13.934   7.391  1.00  0.00     0.189 HD
BRANCH   5   7
HETATM    7  C   UNL     1      39.669 -11.889   7.209  1.00  0.00     0.191 C 
HETATM    8  S   UNL     1      39.549 -10.641   6.096  1.00  0.00    -0.039 SA
BRANCH   7   9
HETATM    9  N   UNL     1      39.371 -11.620   8.519  1.00  0.00    -0.332 N 
HETATM   10  H   UNL     1      38.446 -11.938   8.791  1.00  0.00     0.168 HD
BRANCH   9  11
HETATM   11  C   UNL     1      40.114 -10.952   9.512  1.00  0.00     0.034 A 
HETATM   12  C   UNL     1      41.226 -10.152   9.244  1.00  0.00     0.032 A 
HETATM   13  C   UNL     1      41.935  -9.551  10.291  1.00  0.00     0.039 A 
HETATM   14  C   UNL     1      41.529  -9.715  11.617  1.00  0.00     0.078 A 
HETATM   15  C   UNL     1      40.379 -10.457  11.882  1.00  0.00     0.039 A 
HETATM   16  C   UNL     1      39.671 -11.061  10.833  1.00  0.00     0.032 A 
BRANCH  14  17
HETATM   17  O   UNL     1      42.327  -9.094  12.534  1.00  0.00    -0.255 OA
BRANCH  17  18
HETATM   18  C   UNL     1      43.391  -9.841  13.097  1.00  0.00     0.530 C 
HETATM   19  F   UNL     1      44.265 -10.233  12.146  1.00  0.00    -0.144 F 
HETATM   20  F   UNL     1      44.042  -9.130  14.043  1.00  0.00    -0.144 F 
HETATM   21  F   UNL     1      42.882 -10.948  13.682  1.00  0.00    -0.144 F 
ENDBRANCH  17  18
ENDBRANCH  14  17
ENDBRANCH   9  11
ENDBRANCH   7   9
ENDBRANCH   5   7
ENDBRANCH   2   5
BRANCH   1  22
HETATM   22  C   UNL     1      42.419 -14.073   4.280  1.00  0.00     0.187 C 
BRANCH  22  23
HETATM   23  S   UNL     1      42.445 -14.348   2.485  1.00  0.00    -0.079 SA
BRANCH  23  24
HETATM   24  C   UNL     1      43.027 -16.032   2.429  1.00  0.00     0.211 A 
HETATM   25  N   UNL     1      42.904 -16.718   1.254  1.00  0.00    -0.122 NA
HETATM   26  N   UNL     1      43.203 -18.019   1.186  1.00  0.00    -0.143 NA
HETATM   27  C   UNL     1      43.638 -18.593   2.336  1.00  0.00     0.137 A 
HETATM   28  C   UNL     1      43.987 -19.930   2.666  1.00  0.00     0.025 A 
HETATM   29  C   UNL     1      43.794 -17.822   3.474  1.00  0.00     0.162 A 
HETATM   30  C   UNL     1      44.005 -21.150   1.960  1.00  0.00     0.016 A 
HETATM   31  C   UNL     1      44.372 -19.928   4.013  1.00  0.00     0.046 A 
HETATM   32  C   UNL     1      44.403 -22.317   2.621  1.00  0.00     0.001 A 
HETATM   33  C   UNL     1      44.787 -22.282   3.961  1.00  0.00     0.002 A 
HETATM   34  C   UNL     1      44.780 -21.086   4.683  1.00  0.00     0.030 A 
HETATM   35  N   UNL     1      44.254 -18.632   4.470  1.00  0.00    -0.338 N 
HETATM   36  H   UNL     1      44.447 -18.317   5.409  1.00  0.00     0.167 HD
HETATM   37  N   UNL     1      43.523 -16.513   3.588  1.00  0.00    -0.201 NA
ENDBRANCH  23  24
ENDBRANCH  22  23
ENDBRANCH   1  22
TORSDOF 9
ENDMDL
MODEL 7
REMARK VINA RESULT:      -8.7      4.589      5.795
REMARK  9 active torsions:
REMARK  status: ('A' for Active; 'I' for Inactive)
REMARK    1  A    between atoms: C_11  and  S_12 
REMARK    2  A    between atoms: S_12  and  C_13 
REMARK    3  A    between atoms: C_13  and  C_14 
REMARK       I    between atoms: C_14  and  N_15 
REMARK    4  A    between atoms: N_15  and  N_16 
REMARK    5  A    between atoms: N_16  and  C_17 
REMARK    6  A    between atoms: C_17  and  N_18 
REMARK    7  A    between atoms: N_18  and  C_19 
REMARK    8  A    between atoms: C_22  and  O_23 
REMARK    9  A    between atoms: O_23  and  C_24 
ROOT
HETATM    1  C   UNL     1      40.244 -12.412   0.632  1.00  0.00     0.245 C 
HETATM    2  N   UNL     1      40.108 -13.744   1.006  1.00  0.00    -0.267 N 
HETATM    3  O   UNL     1      40.318 -12.057  -0.541  1.00  0.00    -0.271 OA
HETATM    4  H   UNL     1      40.272 -14.078   1.950  1.00  0.00     0.190 HD
ENDROOT
BRANCH   2   5
HETATM    5  N   UNL     1      39.920 -14.704   0.006  1.00  0.00    -0.274 N 
HETATM    6  H   UNL     1      39.026 -14.654  -0.470  1.00  0.00     0.189 HD
BRANCH   5   7
HETATM    7  C   UNL     1      40.976 -15.327  -0.612  1.00  0.00     0.191 C 
HETATM    8  S   UNL     1      41.062 -15.632  -2.258  1.00  0.00    -0.039 SA
BRANCH   7   9
HETATM    9  N   UNL     1      42.085 -15.577   0.154  1.00  0.00    -0.332 N 
HETATM   10  H   UNL     1      42.719 -14.787   0.207  1.00  0.00     0.168 HD
BRANCH   9  11
HETATM   11  C   UNL     1      42.491 -16.746   0.827  1.00  0.00     0.034 A 
HETATM   12  C   UNL     1      43.812 -17.014   1.190  1.00  0.00     0.032 A 
HETATM   13  C   UNL     1      44.142 -18.218   1.824  1.00  0.00     0.039 A 
HETATM   14  C   UNL     1      43.157 -19.159   2.131  1.00  0.00     0.078 A 
HETATM   15  C   UNL     1      41.828 -18.864   1.830  1.00  0.00     0.039 A 
HETATM   16  C   UNL     1      41.499 -17.659   1.193  1.00  0.00     0.032 A 
BRANCH  14  17
HETATM   17  O   UNL     1      43.625 -20.295   2.725  1.00  0.00    -0.255 OA
BRANCH  17  18
HETATM   18  C   UNL     1      43.674 -21.476   1.944  1.00  0.00     0.530 C 
HETATM   19  F   UNL     1      44.421 -21.294   0.835  1.00  0.00    -0.144 F 
HETATM   20  F   UNL     1      44.167 -22.513   2.655  1.00  0.00    -0.144 F 
HETATM   21  F   UNL     1      42.418 -21.793   1.557  1.00  0.00    -0.144 F 
ENDBRANCH  17  18
ENDBRANCH  14  17
ENDBRANCH   9  11
ENDBRANCH   7   9
ENDBRANCH   5   7
ENDBRANCH   2   5
BRANCH   1  22
HETATM   22  C   UNL     1      40.218 -11.476   1.833  1.00  0.00     0.187 C 
BRANCH  22  23
HETATM   23  S   UNL     1      39.109 -11.997   3.173  1.00  0.00    -0.079 SA
BRANCH  23  24
HETATM   24  C   UNL     1      40.183 -13.106   4.065  1.00  0.00     0.211 A 
HETATM   25  N   UNL     1      41.235 -12.571   4.751  1.00  0.00    -0.122 NA
HETATM   26  N   UNL     1      42.147 -13.359   5.330  1.00  0.00    -0.143 NA
HETATM   27  C   UNL     1      41.950 -14.696   5.201  1.00  0.00     0.137 A 
HETATM   28  C   UNL     1      42.712 -15.820   5.616  1.00  0.00     0.025 A 
HETATM   29  C   UNL     1      40.829 -15.166   4.541  1.00  0.00     0.162 A 
HETATM   30  C   UNL     1      43.939 -15.988   6.290  1.00  0.00     0.016 A 
HETATM   31  C   UNL     1      42.009 -16.960   5.207  1.00  0.00     0.046 A 
HETATM   32  C   UNL     1      44.417 -17.281   6.529  1.00  0.00     0.001 A 
HETATM   33  C   UNL     1      43.691 -18.397   6.116  1.00  0.00     0.002 A 
HETATM   34  C   UNL     1      42.472 -18.259   5.448  1.00  0.00     0.030 A 
HETATM   35  N   UNL     1      40.867 -16.529   4.568  1.00  0.00    -0.338 N 
HETATM   36  H   UNL     1      40.164 -17.120   4.149  1.00  0.00     0.167 HD
HETATM   37  N   UNL     1      39.881 -14.418   3.958  1.00  0.00    -0.201 NA
ENDBRANCH  23  24
ENDBRANCH  22  23
ENDBRANCH   1  22
TORSDOF 9
ENDMDL
MODEL 8
REMARK VINA RESULT:      -8.7      4.370      5.175
REMARK  9 active torsions:
REMARK  status: ('A' for Active; 'I' for Inactive)
REMARK    1  A    between atoms: C_11  and  S_12 
REMARK    2  A    between atoms: S_12  and  C_13 
REMARK    3  A    between atoms: C_13  and  C_14 
REMARK       I    between atoms: C_14  and  N_15 
REMARK    4  A    between atoms: N_15  and  N_16 
REMARK    5  A    between atoms: N_16  and  C_17 
REMARK    6  A    between atoms: C_17  and  N_18 
REMARK    7  A    between atoms: N_18  and  C_19 
REMARK    8  A    between atoms: C_22  and  O_23 
REMARK    9  A    between atoms: O_23  and  C_24 
ROOT
HETATM    1  C   UNL     1      40.066 -11.207   1.336  1.00  0.00     0.245 C 
HETATM    2  N   UNL     1      41.303 -11.839   1.382  1.00  0.00    -0.267 N 
HETATM    3  O   UNL     1      39.284 -11.349   0.401  1.00  0.00    -0.271 OA
HETATM    4  H   UNL     1      42.047 -11.565   2.017  1.00  0.00     0.190 HD
ENDROOT
BRANCH   2   5
HETATM    5  N   UNL     1      41.616 -12.772   0.388  1.00  0.00    -0.274 N 
HETATM    6  H   UNL     1      42.339 -12.478  -0.260  1.00  0.00     0.189 HD
BRANCH   5   7
HETATM    7  C   UNL     1      41.353 -14.111   0.538  1.00  0.00     0.191 C 
HETATM    8  S   UNL     1      41.078 -15.169  -0.733  1.00  0.00    -0.039 SA
BRANCH   7   9
HETATM    9  N   UNL     1      41.470 -14.630   1.801  1.00  0.00    -0.332 N 
HETATM   10  H   UNL     1      41.141 -13.998   2.524  1.00  0.00     0.168 HD
BRANCH   9  11
HETATM   11  C   UNL     1      42.003 -15.857   2.244  1.00  0.00     0.034 A 
HETATM   12  C   UNL     1      41.225 -16.926   2.692  1.00  0.00     0.032 A 
HETATM   13  C   UNL     1      41.832 -18.100   3.152  1.00  0.00     0.039 A 
HETATM   14  C   UNL     1      43.221 -18.236   3.147  1.00  0.00     0.078 A 
HETATM   15  C   UNL     1      43.998 -17.197   2.637  1.00  0.00     0.039 A 
HETATM   16  C   UNL     1      43.389 -16.020   2.178  1.00  0.00     0.032 A 
BRANCH  14  17
HETATM   17  O   UNL     1      43.675 -19.422   3.647  1.00  0.00    -0.255 OA
BRANCH  17  18
HETATM   18  C   UNL     1      44.197 -20.369   2.732  1.00  0.00     0.530 C 
HETATM   19  F   UNL     1      43.629 -20.232   1.515  1.00  0.00    -0.144 F 
HETATM   20  F   UNL     1      45.538 -20.255   2.620  1.00  0.00    -0.144 F 
HETATM   21  F   UNL     1      43.920 -21.612   3.188  1.00  0.00    -0.144 F 
ENDBRANCH  17  18
ENDBRANCH  14  17
ENDBRANCH   9  11
ENDBRANCH   7   9
ENDBRANCH   5   7
ENDBRANCH   2   5
BRANCH   1  22
HETATM   22  C   UNL     1      39.792 -10.397   2.596  1.00  0.00     0.187 C 
BRANCH  22  23
HETATM   23  S   UNL     1      38.734 -11.230   3.814  1.00  0.00    -0.079 SA
BRANCH  23  24
HETATM   24  C   UNL     1      39.915 -12.340   4.557  1.00  0.00     0.211 A 
HETATM   25  N   UNL     1      41.237 -11.999   4.513  1.00  0.00    -0.122 NA
HETATM   26  N   UNL     1      42.178 -12.848   4.937  1.00  0.00    -0.143 NA
HETATM   27  C   UNL     1      41.736 -14.040   5.414  1.00  0.00     0.137 A 
HETATM   28  C   UNL     1      42.417 -15.193   5.886  1.00  0.00     0.025 A 
HETATM   29  C   UNL     1      40.378 -14.293   5.482  1.00  0.00     0.162 A 
HETATM   30  C   UNL     1      43.773 -15.551   6.030  1.00  0.00     0.016 A 
HETATM   31  C   UNL     1      41.435 -16.121   6.255  1.00  0.00     0.046 A 
HETATM   32  C   UNL     1      44.098 -16.816   6.533  1.00  0.00     0.001 A 
HETATM   33  C   UNL     1      43.098 -17.716   6.896  1.00  0.00     0.002 A 
HETATM   34  C   UNL     1      41.746 -17.386   6.766  1.00  0.00     0.030 A 
HETATM   35  N   UNL     1      40.210 -15.540   6.007  1.00  0.00    -0.338 N 
HETATM   36  H   UNL     1      39.309 -15.971   6.159  1.00  0.00     0.167 HD
HETATM   37  N   UNL     1      39.397 -13.469   5.085  1.00  0.00    -0.201 NA
ENDBRANCH  23  24
ENDBRANCH  22  23
ENDBRANCH   1  22
TORSDOF 9
ENDMDL
MODEL 9
REMARK VINA RESULT:      -8.6      3.945      6.689
REMARK  9 active torsions:
REMARK  status: ('A' for Active; 'I' for Inactive)
REMARK    1  A    between atoms: C_11  and  S_12 
REMARK    2  A    between atoms: S_12  and  C_13 
REMARK    3  A    between atoms: C_13  and  C_14 
REMARK       I    between atoms: C_14  and  N_15 
REMARK    4  A    between atoms: N_15  and  N_16 
REMARK    5  A    between atoms: N_16  and  C_17 
REMARK    6  A    between atoms: C_17  and  N_18 
REMARK    7  A    between atoms: N_18  and  C_19 
REMARK    8  A    between atoms: C_22  and  O_23 
REMARK    9  A    between atoms: O_23  and  C_24 
ROOT
HETATM    1  C   UNL     1      39.645 -12.369   5.419  1.00  0.00     0.245 C 
HETATM    2  N   UNL     1      40.921 -12.920   5.423  1.00  0.00    -0.267 N 
HETATM    3  O   UNL     1      38.710 -12.860   6.045  1.00  0.00    -0.271 OA
HETATM    4  H   UNL     1      41.638 -12.672   4.747  1.00  0.00     0.190 HD
ENDROOT
BRANCH   2   5
HETATM    5  N   UNL     1      41.182 -14.000   6.272  1.00  0.00    -0.274 N 
HETATM    6  H   UNL     1      40.361 -14.510   6.577  1.00  0.00     0.189 HD
BRANCH   5   7
HETATM    7  C   UNL     1      42.408 -14.618   6.307  1.00  0.00     0.191 C 
HETATM    8  S   UNL     1      43.865 -13.848   6.001  1.00  0.00    -0.039 SA
BRANCH   7   9
HETATM    9  N   UNL     1      42.440 -15.909   6.767  1.00  0.00    -0.332 N 
HETATM   10  H   UNL     1      41.875 -16.051   7.599  1.00  0.00     0.168 HD
BRANCH   9  11
HETATM   11  C   UNL     1      43.151 -17.033   6.301  1.00  0.00     0.034 A 
HETATM   12  C   UNL     1      44.422 -17.390   6.752  1.00  0.00     0.032 A 
HETATM   13  C   UNL     1      45.080 -18.501   6.211  1.00  0.00     0.039 A 
HETATM   14  C   UNL     1      44.467 -19.289   5.234  1.00  0.00     0.078 A 
HETATM   15  C   UNL     1      43.171 -18.974   4.831  1.00  0.00     0.039 A 
HETATM   16  C   UNL     1      42.514 -17.860   5.372  1.00  0.00     0.032 A 
BRANCH  14  17
HETATM   17  O   UNL     1      45.233 -20.323   4.779  1.00  0.00    -0.255 OA
BRANCH  17  18
HETATM   18  C   UNL     1      44.820 -21.641   5.096  1.00  0.00     0.530 C 
HETATM   19  F   UNL     1      45.880 -22.426   5.384  1.00  0.00    -0.144 F 
HETATM   20  F   UNL     1      43.957 -21.648   6.135  1.00  0.00    -0.144 F 
HETATM   21  F   UNL     1      44.187 -22.166   4.023  1.00  0.00    -0.144 F 
ENDBRANCH  17  18
ENDBRANCH  14  17
ENDBRANCH   9  11
ENDBRANCH   7   9
ENDBRANCH   5   7
ENDBRANCH   2   5
BRANCH   1  22
HETATM   22  C   UNL     1      39.584 -11.076   4.618  1.00  0.00     0.187 C 
BRANCH  22  23
HETATM   23  S   UNL     1      39.629 -11.300   2.817  1.00  0.00    -0.079 SA
BRANCH  23  24
HETATM   24  C   UNL     1      40.666 -12.746   2.701  1.00  0.00     0.211 A 
HETATM   25  N   UNL     1      42.020 -12.574   2.735  1.00  0.00    -0.122 NA
HETATM   26  N   UNL     1      42.847 -13.602   2.523  1.00  0.00    -0.143 NA
HETATM   27  C   UNL     1      42.260 -14.804   2.291  1.00  0.00     0.137 A 
HETATM   28  C   UNL     1      42.790 -16.082   1.975  1.00  0.00     0.025 A 
HETATM   29  C   UNL     1      40.882 -14.915   2.331  1.00  0.00     0.162 A 
HETATM   30  C   UNL     1      44.088 -16.591   1.769  1.00  0.00     0.016 A 
HETATM   31  C   UNL     1      41.700 -16.954   1.850  1.00  0.00     0.046 A 
HETATM   32  C   UNL     1      44.251 -17.943   1.447  1.00  0.00     0.001 A 
HETATM   33  C   UNL     1      43.147 -18.787   1.336  1.00  0.00     0.002 A 
HETATM   34  C   UNL     1      41.849 -18.309   1.537  1.00  0.00     0.030 A 
HETATM   35  N   UNL     1      40.559 -16.216   2.082  1.00  0.00    -0.338 N 
HETATM   36  H   UNL     1      39.612 -16.565   2.049  1.00  0.00     0.167 HD
HETATM   37  N   UNL     1      40.012 -13.918   2.553  1.00  0.00    -0.201 NA
ENDBRANCH  23  24
ENDBRANCH  22  23
ENDBRANCH   1  22
TORSDOF 9
ENDMDL
MODEL 10
REMARK VINA RESULT:      -8.4      6.140      9.203
REMARK  9 active torsions:
REMARK  status: ('A' for Active; 'I' for Inactive)
REMARK    1  A    between atoms: C_11  and  S_12 
REMARK    2  A    between atoms: S_12  and  C_13 
REMARK    3  A    between atoms: C_13  and  C_14 
REMARK       I    between atoms: C_14  and  N_15 
REMARK    4  A    between atoms: N_15  and  N_16 
REMARK    5  A    between atoms: N_16  and  C_17 
REMARK    6  A    between atoms: C_17  and  N_18 
REMARK    7  A    between atoms: N_18  and  C_19 
REMARK    8  A    between atoms: C_22  and  O_23 
REMARK    9  A    between atoms: O_23  and  C_24 
ROOT
HETATM    1  C   UNL     1      40.411 -11.915   2.695  1.00  0.00     0.245 C 
HETATM    2  N   UNL     1      41.670 -11.491   2.285  1.00  0.00    -0.267 N 
HETATM    3  O   UNL     1      39.394 -11.254   2.501  1.00  0.00    -0.271 OA
HETATM    4  H   UNL     1      42.535 -11.898   2.627  1.00  0.00     0.190 HD
ENDROOT
BRANCH   2   5
HETATM    5  N   UNL     1      41.766 -10.330   1.511  1.00  0.00    -0.274 N 
HETATM    6  H   UNL     1      42.123  -9.518   2.003  1.00  0.00     0.189 HD
BRANCH   5   7
HETATM    7  C   UNL     1      41.846 -10.373   0.141  1.00  0.00     0.191 C 
HETATM    8  S   UNL     1      43.203  -9.938  -0.742  1.00  0.00    -0.039 SA
BRANCH   7   9
HETATM    9  N   UNL     1      40.795 -10.949  -0.525  1.00  0.00    -0.332 N 
HETATM   10  H   UNL     1      39.904 -10.510  -0.319  1.00  0.00     0.168 HD
BRANCH   9  11
HETATM   11  C   UNL     1      40.756 -12.054  -1.397  1.00  0.00     0.034 A 
HETATM   12  C   UNL     1      40.519 -11.955  -2.769  1.00  0.00     0.032 A 
HETATM   13  C   UNL     1      40.457 -13.105  -3.563  1.00  0.00     0.039 A 
HETATM   14  C   UNL     1      40.659 -14.370  -3.006  1.00  0.00     0.078 A 
HETATM   15  C   UNL     1      40.963 -14.468  -1.649  1.00  0.00     0.039 A 
HETATM   16  C   UNL     1      41.022 -13.315  -0.854  1.00  0.00     0.032 A 
BRANCH  14  17
HETATM   17  O   UNL     1      40.545 -15.403  -3.892  1.00  0.00    -0.255 OA
BRANCH  17  18
HETATM   18  C   UNL     1      39.344 -16.155  -3.878  1.00  0.00     0.530 C 
HETATM   19  F   UNL     1      39.520 -17.337  -3.250  1.00  0.00    -0.144 F 
HETATM   20  F   UNL     1      38.344 -15.472  -3.282  1.00  0.00    -0.144 F 
HETATM   21  F   UNL     1      38.976 -16.408  -5.154  1.00  0.00    -0.144 F 
ENDBRANCH  17  18
ENDBRANCH  14  17
ENDBRANCH   9  11
ENDBRANCH   7   9
ENDBRANCH   5   7
ENDBRANCH   2   5
BRANCH   1  22
HETATM   22  C   UNL     1      40.453 -13.297   3.331  1.00  0.00     0.187 C 
BRANCH  22  23
HETATM   23  S   UNL     1      39.500 -14.565   2.448  1.00  0.00    -0.079 SA
BRANCH  23  24
HETATM   24  C   UNL     1      40.697 -15.885   2.392  1.00  0.00     0.211 A 
HETATM   25  N   UNL     1      40.757 -16.654   1.266  1.00  0.00    -0.122 NA
HETATM   26  N   UNL     1      41.542 -17.735   1.215  1.00  0.00    -0.143 NA
HETATM   27  C   UNL     1      42.268 -17.999   2.332  1.00  0.00     0.137 A 
HETATM   28  C   UNL     1      43.147 -19.060   2.672  1.00  0.00     0.025 A 
HETATM   29  C   UNL     1      42.201 -17.141   3.415  1.00  0.00     0.162 A 
HETATM   30  C   UNL     1      43.589 -20.227   2.016  1.00  0.00     0.016 A 
HETATM   31  C   UNL     1      43.614 -18.801   3.967  1.00  0.00     0.046 A 
HETATM   32  C   UNL     1      44.476 -21.088   2.673  1.00  0.00     0.001 A 
HETATM   33  C   UNL     1      44.927 -20.800   3.960  1.00  0.00     0.002 A 
HETATM   34  C   UNL     1      44.506 -19.649   4.632  1.00  0.00     0.030 A 
HETATM   35  N   UNL     1      43.029 -17.625   4.384  1.00  0.00    -0.338 N 
HETATM   36  H   UNL     1      43.161 -17.185   5.284  1.00  0.00     0.167 HD
HETATM   37  N   UNL     1      41.442 -16.039   3.508  1.00  0.00    -0.201 NA
ENDBRANCH  23  24
ENDBRANCH  22  23
ENDBRANCH   1  22
TORSDOF 9
ENDMDL
