MODEL 1
REMARK VINA RESULT:      -9.6      0.000      0.000
REMARK  6 active torsions:
REMARK  status: ('A' for Active; 'I' for Inactive)
REMARK    1  A    between atoms: N_2  and  C_4 
REMARK    2  A    between atoms: N_2  and  C_23 
REMARK    3  A    between atoms: C_4  and  C_5 
REMARK       I    between atoms: C_5  and  N_6 
REMARK    4  A    between atoms: N_6  and  C_7 
REMARK    5  A    between atoms: C_8  and  O_9 
REMARK    6  A    between atoms: C_23  and  C_24 
ROOT
HETATM    1  C   UNL     1      45.260 -13.244   7.729  1.00  0.00     0.248 C 
HETATM    2  N   UNL     1      44.253 -14.181   7.782  1.00  0.00    -0.323 N 
HETATM    3  O   UNL     1      46.216 -13.271   6.955  1.00  0.00    -0.271 OA
HETATM    4  H   UNL     1      43.716 -14.313   8.637  1.00  0.00     0.169 HD
ENDROOT
BRANCH   2   5
HETATM    5  C   UNL     1      43.992 -15.166   6.799  1.00  0.00     0.071 A 
HETATM    6  C   UNL     1      43.174 -14.795   5.716  1.00  0.00     0.096 A 
HETATM    7  C   UNL     1      42.934 -15.663   4.639  1.00  0.00     0.054 A 
HETATM    8  C   UNL     1      43.512 -16.946   4.675  1.00  0.00     0.014 A 
HETATM    9  C   UNL     1      44.290 -17.288   5.774  1.00  0.00     0.089 A 
HETATM   10  C   UNL     1      43.530 -18.085   3.816  1.00  0.00     0.011 A 
HETATM   11  O   UNL     1      44.780 -18.550   5.642  1.00  0.00    -0.309 OA
HETATM   12  C   UNL     1      44.552 -16.447   6.854  1.00  0.00     0.070 A 
HETATM   13  C   UNL     1      44.323 -19.033   4.455  1.00  0.00     0.087 A 
HETATM   14  C   UNL     1      44.604 -20.297   3.940  1.00  0.00     0.038 A 
HETATM   15  C   UNL     1      44.039 -20.605   2.701  1.00  0.00     0.003 A 
HETATM   16  C   UNL     1      43.234 -19.684   2.025  1.00  0.00     0.001 A 
HETATM   17  C   UNL     1      42.969 -18.418   2.568  1.00  0.00     0.015 A 
BRANCH   6  18
HETATM   18  O   UNL     1      42.638 -13.525   5.744  1.00  0.00    -0.354 OA
HETATM   19  C   UNL     1      42.465 -13.003   4.423  1.00  0.00     0.210 C 
ENDBRANCH   6  18
ENDBRANCH   2   5
BRANCH   1  20
HETATM   20  C   UNL     1      45.132 -12.117   8.757  1.00  0.00     0.337 C 
BRANCH  20  21
HETATM   21  N   UNL     1      43.824 -12.154   9.560  1.00  0.00    -0.063 N 
HETATM   22  C   UNL     1      42.935 -11.001   9.212  1.00  0.00     0.270 C 
HETATM   23  H   UNL     1      43.354 -13.016   9.252  1.00  0.00     0.280 HD
BRANCH  21  24
HETATM   24  C   UNL     1      43.968 -12.355  11.061  1.00  0.00     0.273 C 
BRANCH  24  25
HETATM   25  C   UNL     1      43.250 -11.368  11.941  1.00  0.00    -0.032 A 
HETATM   26  C   UNL     1      41.944 -11.631  12.391  1.00  0.00     0.012 A 
HETATM   27  C   UNL     1      41.291 -10.729  13.234  1.00  0.00     0.043 A 
HETATM   28  C   UNL     1      41.937  -9.564  13.627  1.00  0.00     0.116 A 
HETATM   29  F   UNL     1      41.311  -8.705  14.439  1.00  0.00    -0.206 F 
HETATM   30  C   UNL     1      43.229  -9.285  13.198  1.00  0.00     0.043 A 
HETATM   31  C   UNL     1      43.888 -10.188  12.361  1.00  0.00     0.012 A 
ENDBRANCH  24  25
ENDBRANCH  21  24
ENDBRANCH  20  21
ENDBRANCH   1  20
TORSDOF 6
ENDMDL
MODEL 2
REMARK VINA RESULT:      -9.4      5.244      7.223
REMARK  6 active torsions:
REMARK  status: ('A' for Active; 'I' for Inactive)
REMARK    1  A    between atoms: N_2  and  C_4 
REMARK    2  A    between atoms: N_2  and  C_23 
REMARK    3  A    between atoms: C_4  and  C_5 
REMARK       I    between atoms: C_5  and  N_6 
REMARK    4  A    between atoms: N_6  and  C_7 
REMARK    5  A    between atoms: C_8  and  O_9 
REMARK    6  A    between atoms: C_23  and  C_24 
ROOT
HETATM    1  C   UNL     1      43.051 -13.700   5.026  1.00  0.00     0.248 C 
HETATM    2  N   UNL     1      42.602 -14.897   5.536  1.00  0.00    -0.323 N 
HETATM    3  O   UNL     1      44.080 -13.548   4.370  1.00  0.00    -0.271 OA
HETATM    4  H   UNL     1      41.981 -14.914   6.342  1.00  0.00     0.169 HD
ENDROOT
BRANCH   2   5
HETATM    5  C   UNL     1      43.081 -16.179   5.172  1.00  0.00     0.071 A 
HETATM    6  C   UNL     1      43.663 -16.962   6.186  1.00  0.00     0.096 A 
HETATM    7  C   UNL     1      44.077 -18.282   5.955  1.00  0.00     0.054 A 
HETATM    8  C   UNL     1      43.926 -18.812   4.659  1.00  0.00     0.014 A 
HETATM    9  C   UNL     1      43.374 -18.001   3.676  1.00  0.00     0.089 A 
HETATM   10  C   UNL     1      44.196 -20.062   4.025  1.00  0.00     0.011 A 
HETATM   11  O   UNL     1      43.286 -18.669   2.494  1.00  0.00    -0.309 OA
HETATM   12  C   UNL     1      42.946 -16.689   3.876  1.00  0.00     0.070 A 
HETATM   13  C   UNL     1      43.781 -19.918   2.706  1.00  0.00     0.087 A 
HETATM   14  C   UNL     1      43.864 -20.922   1.743  1.00  0.00     0.038 A 
HETATM   15  C   UNL     1      44.404 -22.141   2.159  1.00  0.00     0.003 A 
HETATM   16  C   UNL     1      44.835 -22.329   3.475  1.00  0.00     0.001 A 
HETATM   17  C   UNL     1      44.738 -21.299   4.423  1.00  0.00     0.015 A 
BRANCH   6  18
HETATM   18  O   UNL     1      43.783 -16.382   7.431  1.00  0.00    -0.354 OA
HETATM   19  C   UNL     1      43.492 -17.320   8.472  1.00  0.00     0.210 C 
ENDBRANCH   6  18
ENDBRANCH   2   5
BRANCH   1  20
HETATM   20  C   UNL     1      42.163 -12.497   5.359  1.00  0.00     0.337 C 
BRANCH  20  21
HETATM   21  N   UNL     1      41.408 -11.928   4.149  1.00  0.00    -0.063 N 
HETATM   22  C   UNL     1      41.117 -10.470   4.323  1.00  0.00     0.270 C 
HETATM   23  H   UNL     1      42.066 -12.025   3.364  1.00  0.00     0.280 HD
BRANCH  21  24
HETATM   24  C   UNL     1      40.196 -12.721   3.685  1.00  0.00     0.273 C 
BRANCH  24  25
HETATM   25  C   UNL     1      40.455 -13.821   2.691  1.00  0.00    -0.032 A 
HETATM   26  C   UNL     1      41.464 -13.683   1.721  1.00  0.00     0.012 A 
HETATM   27  C   UNL     1      41.725 -14.718   0.821  1.00  0.00     0.043 A 
HETATM   28  C   UNL     1      40.980 -15.888   0.884  1.00  0.00     0.116 A 
HETATM   29  F   UNL     1      41.237 -16.880   0.023  1.00  0.00    -0.206 F 
HETATM   30  C   UNL     1      39.981 -16.048   1.836  1.00  0.00     0.043 A 
HETATM   31  C   UNL     1      39.721 -15.019   2.743  1.00  0.00     0.012 A 
ENDBRANCH  24  25
ENDBRANCH  21  24
ENDBRANCH  20  21
ENDBRANCH   1  20
TORSDOF 6
ENDMDL
MODEL 3
REMARK VINA RESULT:      -9.3      6.435      9.375
REMARK  6 active torsions:
REMARK  status: ('A' for Active; 'I' for Inactive)
REMARK    1  A    between atoms: N_2  and  C_4 
REMARK    2  A    between atoms: N_2  and  C_23 
REMARK    3  A    between atoms: C_4  and  C_5 
REMARK       I    between atoms: C_5  and  N_6 
REMARK    4  A    between atoms: N_6  and  C_7 
REMARK    5  A    between atoms: C_8  and  O_9 
REMARK    6  A    between atoms: C_23  and  C_24 
ROOT
HETATM    1  C   UNL     1      41.758 -17.130   5.189  1.00  0.00     0.248 C 
HETATM    2  N   UNL     1      41.918 -15.952   4.495  1.00  0.00    -0.323 N 
HETATM    3  O   UNL     1      40.925 -17.998   4.933  1.00  0.00    -0.271 OA
HETATM    4  H   UNL     1      42.342 -15.142   4.944  1.00  0.00     0.169 HD
ENDROOT
BRANCH   2   5
HETATM    5  C   UNL     1      41.358 -15.659   3.228  1.00  0.00     0.071 A 
HETATM    6  C   UNL     1      40.247 -14.795   3.198  1.00  0.00     0.096 A 
HETATM    7  C   UNL     1      39.680 -14.362   1.990  1.00  0.00     0.054 A 
HETATM    8  C   UNL     1      40.231 -14.838   0.785  1.00  0.00     0.014 A 
HETATM    9  C   UNL     1      41.308 -15.712   0.854  1.00  0.00     0.089 A 
HETATM   10  C   UNL     1      39.974 -14.646  -0.605  1.00  0.00     0.011 A 
HETATM   11  O   UNL     1      41.725 -16.061  -0.393  1.00  0.00    -0.309 OA
HETATM   12  C   UNL     1      41.898 -16.155   2.038  1.00  0.00     0.070 A 
HETATM   13  C   UNL     1      40.918 -15.414  -1.277  1.00  0.00     0.087 A 
HETATM   14  C   UNL     1      41.018 -15.498  -2.664  1.00  0.00     0.038 A 
HETATM   15  C   UNL     1      40.094 -14.753  -3.402  1.00  0.00     0.003 A 
HETATM   16  C   UNL     1      39.127 -13.971  -2.768  1.00  0.00     0.001 A 
HETATM   17  C   UNL     1      39.052 -13.904  -1.368  1.00  0.00     0.015 A 
BRANCH   6  18
HETATM   18  O   UNL     1      39.756 -14.367   4.414  1.00  0.00    -0.354 OA
HETATM   19  C   UNL     1      39.792 -12.940   4.517  1.00  0.00     0.210 C 
ENDBRANCH   6  18
ENDBRANCH   2   5
BRANCH   1  20
HETATM   20  C   UNL     1      42.710 -17.300   6.376  1.00  0.00     0.337 C 
BRANCH  20  21
HETATM   21  N   UNL     1      43.513 -18.608   6.348  1.00  0.00    -0.063 N 
HETATM   22  C   UNL     1      43.986 -18.989   7.716  1.00  0.00     0.270 C 
HETATM   23  H   UNL     1      42.837 -19.321   6.041  1.00  0.00     0.280 HD
BRANCH  21  24
HETATM   24  C   UNL     1      44.610 -18.696   5.298  1.00  0.00     0.273 C 
BRANCH  24  25
HETATM   25  C   UNL     1      44.386 -19.672   4.175  1.00  0.00    -0.032 A 
HETATM   26  C   UNL     1      43.812 -19.246   2.963  1.00  0.00     0.012 A 
HETATM   27  C   UNL     1      43.635 -20.145   1.910  1.00  0.00     0.043 A 
HETATM   28  C   UNL     1      44.026 -21.469   2.064  1.00  0.00     0.116 A 
HETATM   29  F   UNL     1      43.859 -22.327   1.050  1.00  0.00    -0.206 F 
HETATM   30  C   UNL     1      44.597 -21.912   3.250  1.00  0.00     0.043 A 
HETATM   31  C   UNL     1      44.784 -21.014   4.303  1.00  0.00     0.012 A 
ENDBRANCH  24  25
ENDBRANCH  21  24
ENDBRANCH  20  21
ENDBRANCH   1  20
TORSDOF 6
ENDMDL
MODEL 4
REMARK VINA RESULT:      -9.3      2.170      2.910
REMARK  6 active torsions:
REMARK  status: ('A' for Active; 'I' for Inactive)
REMARK    1  A    between atoms: N_2  and  C_4 
REMARK    2  A    between atoms: N_2  and  C_23 
REMARK    3  A    between atoms: C_4  and  C_5 
REMARK       I    between atoms: C_5  and  N_6 
REMARK    4  A    between atoms: N_6  and  C_7 
REMARK    5  A    between atoms: C_8  and  O_9 
REMARK    6  A    between atoms: C_23  and  C_24 
ROOT
HETATM    1  C   UNL     1      41.271 -12.866   6.017  1.00  0.00     0.248 C 
HETATM    2  N   UNL     1      40.730 -14.130   6.093  1.00  0.00    -0.323 N 
HETATM    3  O   UNL     1      42.372 -12.592   5.541  1.00  0.00    -0.271 OA
HETATM    4  H   UNL     1      40.021 -14.346   6.792  1.00  0.00     0.169 HD
ENDROOT
BRANCH   2   5
HETATM    5  C   UNL     1      41.205 -15.273   5.406  1.00  0.00     0.071 A 
HETATM    6  C   UNL     1      40.688 -15.514   4.120  1.00  0.00     0.096 A 
HETATM    7  C   UNL     1      41.164 -16.560   3.316  1.00  0.00     0.054 A 
HETATM    8  C   UNL     1      42.167 -17.400   3.838  1.00  0.00     0.014 A 
HETATM    9  C   UNL     1      42.633 -17.150   5.122  1.00  0.00     0.089 A 
HETATM   10  C   UNL     1      42.906 -18.526   3.368  1.00  0.00     0.011 A 
HETATM   11  O   UNL     1      43.603 -18.040   5.464  1.00  0.00    -0.309 OA
HETATM   12  C   UNL     1      42.185 -16.115   5.942  1.00  0.00     0.070 A 
HETATM   13  C   UNL     1      43.771 -18.873   4.401  1.00  0.00     0.087 A 
HETATM   14  C   UNL     1      44.681 -19.926   4.343  1.00  0.00     0.038 A 
HETATM   15  C   UNL     1      44.703 -20.666   3.158  1.00  0.00     0.003 A 
HETATM   16  C   UNL     1      43.851 -20.355   2.096  1.00  0.00     0.001 A 
HETATM   17  C   UNL     1      42.944 -19.286   2.184  1.00  0.00     0.015 A 
BRANCH   6  18
HETATM   18  O   UNL     1      39.708 -14.654   3.670  1.00  0.00    -0.354 OA
HETATM   19  C   UNL     1      39.458 -14.836   2.273  1.00  0.00     0.210 C 
ENDBRANCH   6  18
ENDBRANCH   2   5
BRANCH   1  20
HETATM   20  C   UNL     1      40.390 -11.763   6.609  1.00  0.00     0.337 C 
BRANCH  20  21
HETATM   21  N   UNL     1      40.730 -11.411   8.065  1.00  0.00    -0.063 N 
HETATM   22  C   UNL     1      39.492 -11.268   8.895  1.00  0.00     0.270 C 
HETATM   23  H   UNL     1      41.250 -12.226   8.414  1.00  0.00     0.280 HD
BRANCH  21  24
HETATM   24  C   UNL     1      41.709 -10.264   8.263  1.00  0.00     0.273 C 
BRANCH  24  25
HETATM   25  C   UNL     1      42.290 -10.110   9.643  1.00  0.00    -0.032 A 
HETATM   26  C   UNL     1      43.374 -10.907  10.053  1.00  0.00     0.012 A 
HETATM   27  C   UNL     1      43.933 -10.741  11.322  1.00  0.00     0.043 A 
HETATM   28  C   UNL     1      43.411  -9.785  12.184  1.00  0.00     0.116 A 
HETATM   29  F   UNL     1      43.953  -9.625  13.397  1.00  0.00    -0.206 F 
HETATM   30  C   UNL     1      42.343  -8.984  11.799  1.00  0.00     0.043 A 
HETATM   31  C   UNL     1      41.785  -9.141  10.528  1.00  0.00     0.012 A 
ENDBRANCH  24  25
ENDBRANCH  21  24
ENDBRANCH  20  21
ENDBRANCH   1  20
TORSDOF 6
ENDMDL
MODEL 5
REMARK VINA RESULT:      -9.2      1.955      3.163
REMARK  6 active torsions:
REMARK  status: ('A' for Active; 'I' for Inactive)
REMARK    1  A    between atoms: N_2  and  C_4 
REMARK    2  A    between atoms: N_2  and  C_23 
REMARK    3  A    between atoms: C_4  and  C_5 
REMARK       I    between atoms: C_5  and  N_6 
REMARK    4  A    between atoms: N_6  and  C_7 
REMARK    5  A    between atoms: C_8  and  O_9 
REMARK    6  A    between atoms: C_23  and  C_24 
ROOT
HETATM    1  C   UNL     1      41.627 -13.109   5.495  1.00  0.00     0.248 C 
HETATM    2  N   UNL     1      41.493 -14.401   5.952  1.00  0.00    -0.323 N 
HETATM    3  O   UNL     1      42.515 -12.711   4.742  1.00  0.00    -0.271 OA
HETATM    4  H   UNL     1      40.994 -14.592   6.819  1.00  0.00     0.169 HD
ENDROOT
BRANCH   2   5
HETATM    5  C   UNL     1      42.167 -15.533   5.433  1.00  0.00     0.071 A 
HETATM    6  C   UNL     1      43.234 -16.051   6.190  1.00  0.00     0.096 A 
HETATM    7  C   UNL     1      43.902 -17.228   5.818  1.00  0.00     0.054 A 
HETATM    8  C   UNL     1      43.500 -17.878   4.635  1.00  0.00     0.014 A 
HETATM    9  C   UNL     1      42.462 -17.322   3.898  1.00  0.00     0.089 A 
HETATM   10  C   UNL     1      43.889 -19.056   3.931  1.00  0.00     0.011 A 
HETATM   11  O   UNL     1      42.192 -18.079   2.800  1.00  0.00    -0.309 OA
HETATM   12  C   UNL     1      41.774 -16.160   4.246  1.00  0.00     0.070 A 
HETATM   13  C   UNL     1      43.055 -19.131   2.821  1.00  0.00     0.087 A 
HETATM   14  C   UNL     1      43.102 -20.148   1.870  1.00  0.00     0.038 A 
HETATM   15  C   UNL     1      44.062 -21.144   2.070  1.00  0.00     0.003 A 
HETATM   16  C   UNL     1      44.923 -21.107   3.170  1.00  0.00     0.001 A 
HETATM   17  C   UNL     1      44.850 -20.069   4.112  1.00  0.00     0.015 A 
BRANCH   6  18
HETATM   18  O   UNL     1      43.577 -15.365   7.336  1.00  0.00    -0.354 OA
HETATM   19  C   UNL     1      44.720 -14.532   7.121  1.00  0.00     0.210 C 
ENDBRANCH   6  18
ENDBRANCH   2   5
BRANCH   1  20
HETATM   20  C   UNL     1      40.568 -12.138   6.021  1.00  0.00     0.337 C 
BRANCH  20  21
HETATM   21  N   UNL     1      40.812 -11.673   7.464  1.00  0.00    -0.063 N 
HETATM   22  C   UNL     1      39.525 -11.507   8.210  1.00  0.00     0.270 C 
HETATM   23  H   UNL     1      41.331 -12.447   7.901  1.00  0.00     0.280 HD
BRANCH  21  24
HETATM   24  C   UNL     1      41.750 -10.488   7.634  1.00  0.00     0.273 C 
BRANCH  24  25
HETATM   25  C   UNL     1      42.393 -10.331   8.987  1.00  0.00    -0.032 A 
HETATM   26  C   UNL     1      41.856  -9.440   9.933  1.00  0.00     0.012 A 
HETATM   27  C   UNL     1      42.433  -9.320  11.198  1.00  0.00     0.043 A 
HETATM   28  C   UNL     1      43.547 -10.083  11.521  1.00  0.00     0.116 A 
HETATM   29  F   UNL     1      44.095  -9.969  12.736  1.00  0.00    -0.206 F 
HETATM   30  C   UNL     1      44.094 -10.972  10.603  1.00  0.00     0.043 A 
HETATM   31  C   UNL     1      43.515 -11.101   9.339  1.00  0.00     0.012 A 
ENDBRANCH  24  25
ENDBRANCH  21  24
ENDBRANCH  20  21
ENDBRANCH   1  20
TORSDOF 6
ENDMDL
MODEL 6
REMARK VINA RESULT:      -9.2      6.462     10.008
REMARK  6 active torsions:
REMARK  status: ('A' for Active; 'I' for Inactive)
REMARK    1  A    between atoms: N_2  and  C_4 
REMARK    2  A    between atoms: N_2  and  C_23 
REMARK    3  A    between atoms: C_4  and  C_5 
REMARK       I    between atoms: C_5  and  N_6 
REMARK    4  A    between atoms: N_6  and  C_7 
REMARK    5  A    between atoms: C_8  and  O_9 
REMARK    6  A    between atoms: C_23  and  C_24 
ROOT
HETATM    1  C   UNL     1      41.096 -14.645   1.725  1.00  0.00     0.248 C 
HETATM    2  N   UNL     1      42.429 -14.942   1.899  1.00  0.00    -0.323 N 
HETATM    3  O   UNL     1      40.177 -15.462   1.754  1.00  0.00    -0.271 OA
HETATM    4  H   UNL     1      43.148 -14.330   1.517  1.00  0.00     0.169 HD
ENDROOT
BRANCH   2   5
HETATM    5  C   UNL     1      42.944 -16.160   2.405  1.00  0.00     0.071 A 
HETATM    6  C   UNL     1      43.271 -16.202   3.773  1.00  0.00     0.096 A 
HETATM    7  C   UNL     1      43.693 -17.387   4.396  1.00  0.00     0.054 A 
HETATM    8  C   UNL     1      43.815 -18.548   3.609  1.00  0.00     0.014 A 
HETATM    9  C   UNL     1      43.510 -18.462   2.256  1.00  0.00     0.089 A 
HETATM   10  C   UNL     1      44.185 -19.907   3.838  1.00  0.00     0.011 A 
HETATM   11  O   UNL     1      43.666 -19.670   1.650  1.00  0.00    -0.309 OA
HETATM   12  C   UNL     1      43.082 -17.302   1.611  1.00  0.00     0.070 A 
HETATM   13  C   UNL     1      44.072 -20.546   2.608  1.00  0.00     0.087 A 
HETATM   14  C   UNL     1      44.337 -21.898   2.399  1.00  0.00     0.038 A 
HETATM   15  C   UNL     1      44.743 -22.633   3.515  1.00  0.00     0.003 A 
HETATM   16  C   UNL     1      44.872 -22.031   4.769  1.00  0.00     0.001 A 
HETATM   17  C   UNL     1      44.596 -20.667   4.950  1.00  0.00     0.015 A 
BRANCH   6  18
HETATM   18  O   UNL     1      43.131 -15.030   4.485  1.00  0.00    -0.354 OA
HETATM   19  C   UNL     1      42.081 -15.131   5.453  1.00  0.00     0.210 C 
ENDBRANCH   6  18
ENDBRANCH   2   5
BRANCH   1  20
HETATM   20  C   UNL     1      40.806 -13.166   1.456  1.00  0.00     0.337 C 
BRANCH  20  21
HETATM   21  N   UNL     1      40.608 -12.831  -0.029  1.00  0.00    -0.063 N 
HETATM   22  C   UNL     1      41.093 -11.452  -0.349  1.00  0.00     0.270 C 
HETATM   23  H   UNL     1      41.210 -13.499  -0.529  1.00  0.00     0.280 HD
BRANCH  21  24
HETATM   24  C   UNL     1      39.227 -13.118  -0.599  1.00  0.00     0.273 C 
BRANCH  24  25
HETATM   25  C   UNL     1      39.172 -14.024  -1.800  1.00  0.00    -0.032 A 
HETATM   26  C   UNL     1      40.303 -14.765  -2.186  1.00  0.00     0.012 A 
HETATM   27  C   UNL     1      40.242 -15.630  -3.280  1.00  0.00     0.043 A 
HETATM   28  C   UNL     1      39.056 -15.754  -3.993  1.00  0.00     0.116 A 
HETATM   29  F   UNL     1      38.999 -16.588  -5.038  1.00  0.00    -0.206 F 
HETATM   30  C   UNL     1      37.925 -15.034  -3.628  1.00  0.00     0.043 A 
HETATM   31  C   UNL     1      37.980 -14.174  -2.529  1.00  0.00     0.012 A 
ENDBRANCH  24  25
ENDBRANCH  21  24
ENDBRANCH  20  21
ENDBRANCH   1  20
TORSDOF 6
ENDMDL
MODEL 7
REMARK VINA RESULT:      -8.6      4.939      5.945
REMARK  6 active torsions:
REMARK  status: ('A' for Active; 'I' for Inactive)
REMARK    1  A    between atoms: N_2  and  C_4 
REMARK    2  A    between atoms: N_2  and  C_23 
REMARK    3  A    between atoms: C_4  and  C_5 
REMARK       I    between atoms: C_5  and  N_6 
REMARK    4  A    between atoms: N_6  and  C_7 
REMARK    5  A    between atoms: C_8  and  O_9 
REMARK    6  A    between atoms: C_23  and  C_24 
ROOT
HETATM    1  C   UNL     1      41.781 -14.054   2.525  1.00  0.00     0.248 C 
HETATM    2  N   UNL     1      42.985 -14.706   2.385  1.00  0.00    -0.323 N 
HETATM    3  O   UNL     1      40.674 -14.588   2.476  1.00  0.00    -0.271 OA
HETATM    4  H   UNL     1      43.813 -14.200   2.075  1.00  0.00     0.169 HD
ENDROOT
BRANCH   2   5
HETATM    5  C   UNL     1      43.174 -16.108   2.439  1.00  0.00     0.071 A 
HETATM    6  C   UNL     1      43.016 -16.826   1.239  1.00  0.00     0.096 A 
HETATM    7  C   UNL     1      43.278 -18.203   1.161  1.00  0.00     0.054 A 
HETATM    8  C   UNL     1      43.681 -18.873   2.332  1.00  0.00     0.014 A 
HETATM    9  C   UNL     1      43.799 -18.137   3.505  1.00  0.00     0.089 A 
HETATM   10  C   UNL     1      44.043 -20.209   2.674  1.00  0.00     0.011 A 
HETATM   11  O   UNL     1      44.209 -18.930   4.531  1.00  0.00    -0.309 OA
HETATM   12  C   UNL     1      43.553 -16.769   3.612  1.00  0.00     0.070 A 
HETATM   13  C   UNL     1      44.360 -20.185   4.028  1.00  0.00     0.087 A 
HETATM   14  C   UNL     1      44.776 -21.297   4.757  1.00  0.00     0.038 A 
HETATM   15  C   UNL     1      44.870 -22.502   4.057  1.00  0.00     0.003 A 
HETATM   16  C   UNL     1      44.559 -22.573   2.697  1.00  0.00     0.001 A 
HETATM   17  C   UNL     1      44.144 -21.435   1.988  1.00  0.00     0.015 A 
BRANCH   6  18
HETATM   18  O   UNL     1      42.618 -16.110   0.130  1.00  0.00    -0.354 OA
HETATM   19  C   UNL     1      41.303 -16.487  -0.290  1.00  0.00     0.210 C 
ENDBRANCH   6  18
ENDBRANCH   2   5
BRANCH   1  20
HETATM   20  C   UNL     1      41.899 -12.542   2.731  1.00  0.00     0.337 C 
BRANCH  20  21
HETATM   21  N   UNL     1      41.083 -12.010   3.919  1.00  0.00    -0.063 N 
HETATM   22  C   UNL     1      40.626 -10.604   3.682  1.00  0.00     0.270 C 
HETATM   23  H   UNL     1      40.248 -12.610   3.949  1.00  0.00     0.280 HD
BRANCH  21  24
HETATM   24  C   UNL     1      41.702 -12.206   5.294  1.00  0.00     0.273 C 
BRANCH  24  25
HETATM   25  C   UNL     1      41.822 -13.626   5.778  1.00  0.00    -0.032 A 
HETATM   26  C   UNL     1      40.694 -14.465   5.817  1.00  0.00     0.012 A 
HETATM   27  C   UNL     1      40.813 -15.792   6.235  1.00  0.00     0.043 A 
HETATM   28  C   UNL     1      42.054 -16.283   6.618  1.00  0.00     0.116 A 
HETATM   29  F   UNL     1      42.165 -17.557   7.012  1.00  0.00    -0.206 F 
HETATM   30  C   UNL     1      43.183 -15.474   6.585  1.00  0.00     0.043 A 
HETATM   31  C   UNL     1      43.070 -14.149   6.160  1.00  0.00     0.012 A 
ENDBRANCH  24  25
ENDBRANCH  21  24
ENDBRANCH  20  21
ENDBRANCH   1  20
TORSDOF 6
ENDMDL
MODEL 8
REMARK VINA RESULT:      -8.5      6.494      8.646
REMARK  6 active torsions:
REMARK  status: ('A' for Active; 'I' for Inactive)
REMARK    1  A    between atoms: N_2  and  C_4 
REMARK    2  A    between atoms: N_2  and  C_23 
REMARK    3  A    between atoms: C_4  and  C_5 
REMARK       I    between atoms: C_5  and  N_6 
REMARK    4  A    between atoms: N_6  and  C_7 
REMARK    5  A    between atoms: C_8  and  O_9 
REMARK    6  A    between atoms: C_23  and  C_24 
ROOT
HETATM    1  C   UNL     1      42.315 -13.465   3.360  1.00  0.00     0.248 C 
HETATM    2  N   UNL     1      41.575 -14.587   3.658  1.00  0.00    -0.323 N 
HETATM    3  O   UNL     1      43.506 -13.460   3.054  1.00  0.00    -0.271 OA
HETATM    4  H   UNL     1      40.741 -14.516   4.237  1.00  0.00     0.169 HD
ENDROOT
BRANCH   2   5
HETATM    5  C   UNL     1      41.966 -15.924   3.402  1.00  0.00     0.071 A 
HETATM    6  C   UNL     1      41.608 -16.473   2.157  1.00  0.00     0.096 A 
HETATM    7  C   UNL     1      42.031 -17.752   1.763  1.00  0.00     0.054 A 
HETATM    8  C   UNL     1      42.810 -18.504   2.664  1.00  0.00     0.014 A 
HETATM    9  C   UNL     1      43.120 -17.941   3.895  1.00  0.00     0.089 A 
HETATM   10  C   UNL     1      43.431 -19.788   2.656  1.00  0.00     0.011 A 
HETATM   11  O   UNL     1      43.887 -18.789   4.633  1.00  0.00    -0.309 OA
HETATM   12  C   UNL     1      42.721 -16.671   4.311  1.00  0.00     0.070 A 
HETATM   13  C   UNL     1      44.077 -19.907   3.881  1.00  0.00     0.087 A 
HETATM   14  C   UNL     1      44.817 -21.021   4.273  1.00  0.00     0.038 A 
HETATM   15  C   UNL     1      44.896 -22.071   3.355  1.00  0.00     0.003 A 
HETATM   16  C   UNL     1      44.260 -21.995   2.114  1.00  0.00     0.001 A 
HETATM   17  C   UNL     1      43.522 -20.859   1.746  1.00  0.00     0.015 A 
BRANCH   6  18
HETATM   18  O   UNL     1      40.843 -15.684   1.324  1.00  0.00    -0.354 OA
HETATM   19  C   UNL     1      41.278 -15.788  -0.036  1.00  0.00     0.210 C 
ENDBRANCH   6  18
ENDBRANCH   2   5
BRANCH   1  20
HETATM   20  C   UNL     1      41.538 -12.150   3.459  1.00  0.00     0.337 C 
BRANCH  20  21
HETATM   21  N   UNL     1      41.359 -11.430   2.114  1.00  0.00    -0.063 N 
HETATM   22  C   UNL     1      40.790 -10.058   2.300  1.00  0.00     0.270 C 
HETATM   23  H   UNL     1      42.315 -11.326   1.747  1.00  0.00     0.280 HD
BRANCH  21  24
HETATM   24  C   UNL     1      40.652 -12.220   1.023  1.00  0.00     0.273 C 
BRANCH  24  25
HETATM   25  C   UNL     1      41.197 -12.070  -0.372  1.00  0.00    -0.032 A 
HETATM   26  C   UNL     1      42.507 -11.603  -0.580  1.00  0.00     0.012 A 
HETATM   27  C   UNL     1      43.022 -11.495  -1.873  1.00  0.00     0.043 A 
HETATM   28  C   UNL     1      42.233 -11.849  -2.959  1.00  0.00     0.116 A 
HETATM   29  F   UNL     1      42.732 -11.750  -4.197  1.00  0.00    -0.206 F 
HETATM   30  C   UNL     1      40.937 -12.317  -2.778  1.00  0.00     0.043 A 
HETATM   31  C   UNL     1      40.420 -12.433  -1.486  1.00  0.00     0.012 A 
ENDBRANCH  24  25
ENDBRANCH  21  24
ENDBRANCH  20  21
ENDBRANCH   1  20
TORSDOF 6
ENDMDL
MODEL 9
REMARK VINA RESULT:      -8.4      6.210      9.526
REMARK  6 active torsions:
REMARK  status: ('A' for Active; 'I' for Inactive)
REMARK    1  A    between atoms: N_2  and  C_4 
REMARK    2  A    between atoms: N_2  and  C_23 
REMARK    3  A    between atoms: C_4  and  C_5 
REMARK       I    between atoms: C_5  and  N_6 
REMARK    4  A    between atoms: N_6  and  C_7 
REMARK    5  A    between atoms: C_8  and  O_9 
REMARK    6  A    between atoms: C_23  and  C_24 
ROOT
HETATM    1  C   UNL     1      41.119 -13.492   1.933  1.00  0.00     0.248 C 
HETATM    2  N   UNL     1      40.740 -14.632   2.606  1.00  0.00    -0.323 N 
HETATM    3  O   UNL     1      42.274 -13.196   1.631  1.00  0.00    -0.271 OA
HETATM    4  H   UNL     1      39.870 -14.654   3.133  1.00  0.00     0.169 HD
ENDROOT
BRANCH   2   5
HETATM    5  C   UNL     1      41.553 -15.771   2.820  1.00  0.00     0.071 A 
HETATM    6  C   UNL     1      42.281 -15.826   4.023  1.00  0.00     0.096 A 
HETATM    7  C   UNL     1      43.038 -16.954   4.378  1.00  0.00     0.054 A 
HETATM    8  C   UNL     1      43.081 -18.038   3.481  1.00  0.00     0.014 A 
HETATM    9  C   UNL     1      42.372 -17.937   2.290  1.00  0.00     0.089 A 
HETATM   10  C   UNL     1      43.694 -19.326   3.460  1.00  0.00     0.011 A 
HETATM   11  O   UNL     1      42.509 -19.071   1.551  1.00  0.00    -0.309 OA
HETATM   12  C   UNL     1      41.608 -16.834   1.913  1.00  0.00     0.070 A 
HETATM   13  C   UNL     1      43.307 -19.914   2.261  1.00  0.00     0.087 A 
HETATM   14  C   UNL     1      43.688 -21.191   1.853  1.00  0.00     0.038 A 
HETATM   15  C   UNL     1      44.514 -21.903   2.727  1.00  0.00     0.003 A 
HETATM   16  C   UNL     1      44.928 -21.351   3.941  1.00  0.00     0.001 A 
HETATM   17  C   UNL     1      44.527 -20.062   4.325  1.00  0.00     0.015 A 
BRANCH   6  18
HETATM   18  O   UNL     1      42.196 -14.730   4.855  1.00  0.00    -0.354 OA
HETATM   19  C   UNL     1      43.460 -14.071   4.978  1.00  0.00     0.210 C 
ENDBRANCH   6  18
ENDBRANCH   2   5
BRANCH   1  20
HETATM   20  C   UNL     1      39.965 -12.550   1.582  1.00  0.00     0.337 C 
BRANCH  20  21
HETATM   21  N   UNL     1      39.127 -13.013   0.380  1.00  0.00    -0.063 N 
HETATM   22  C   UNL     1      37.793 -13.535   0.812  1.00  0.00     0.270 C 
HETATM   23  H   UNL     1      38.967 -12.158  -0.169  1.00  0.00     0.280 HD
BRANCH  21  24
HETATM   24  C   UNL     1      39.829 -13.932  -0.608  1.00  0.00     0.273 C 
BRANCH  24  25
HETATM   25  C   UNL     1      40.585 -13.264  -1.725  1.00  0.00    -0.032 A 
HETATM   26  C   UNL     1      41.989 -13.335  -1.778  1.00  0.00     0.012 A 
HETATM   27  C   UNL     1      42.687 -12.742  -2.833  1.00  0.00     0.043 A 
HETATM   28  C   UNL     1      41.988 -12.076  -3.831  1.00  0.00     0.116 A 
HETATM   29  F   UNL     1      42.660 -11.513  -4.842  1.00  0.00    -0.206 F 
HETATM   30  C   UNL     1      40.602 -11.995  -3.800  1.00  0.00     0.043 A 
HETATM   31  C   UNL     1      39.899 -12.593  -2.752  1.00  0.00     0.012 A 
ENDBRANCH  24  25
ENDBRANCH  21  24
ENDBRANCH  20  21
ENDBRANCH   1  20
TORSDOF 6
ENDMDL
MODEL 10
REMARK VINA RESULT:      -8.4      6.173      9.040
REMARK  6 active torsions:
REMARK  status: ('A' for Active; 'I' for Inactive)
REMARK    1  A    between atoms: N_2  and  C_4 
REMARK    2  A    between atoms: N_2  and  C_23 
REMARK    3  A    between atoms: C_4  and  C_5 
REMARK       I    between atoms: C_5  and  N_6 
REMARK    4  A    between atoms: N_6  and  C_7 
REMARK    5  A    between atoms: C_8  and  O_9 
REMARK    6  A    between atoms: C_23  and  C_24 
ROOT
HETATM    1  C   UNL     1      41.577 -15.406   0.385  1.00  0.00     0.248 C 
HETATM    2  N   UNL     1      42.880 -15.701   0.716  1.00  0.00    -0.323 N 
HETATM    3  O   UNL     1      40.612 -16.147   0.567  1.00  0.00    -0.271 OA
HETATM    4  H   UNL     1      43.651 -15.242   0.235  1.00  0.00     0.169 HD
ENDROOT
BRANCH   2   5
HETATM    5  C   UNL     1      43.297 -16.761   1.557  1.00  0.00     0.071 A 
HETATM    6  C   UNL     1      43.499 -16.465   2.917  1.00  0.00     0.096 A 
HETATM    7  C   UNL     1      43.816 -17.462   3.853  1.00  0.00     0.054 A 
HETATM    8  C   UNL     1      43.959 -18.785   3.394  1.00  0.00     0.014 A 
HETATM    9  C   UNL     1      43.780 -19.036   2.039  1.00  0.00     0.089 A 
HETATM   10  C   UNL     1      44.252 -20.049   3.988  1.00  0.00     0.011 A 
HETATM   11  O   UNL     1      43.940 -20.360   1.770  1.00  0.00    -0.309 OA
HETATM   12  C   UNL     1      43.459 -18.069   1.088  1.00  0.00     0.070 A 
HETATM   13  C   UNL     1      44.223 -20.975   2.951  1.00  0.00     0.087 A 
HETATM   14  C   UNL     1      44.451 -22.340   3.110  1.00  0.00     0.038 A 
HETATM   15  C   UNL     1      44.725 -22.778   4.408  1.00  0.00     0.003 A 
HETATM   16  C   UNL     1      44.766 -21.883   5.479  1.00  0.00     0.001 A 
HETATM   17  C   UNL     1      44.531 -20.512   5.288  1.00  0.00     0.015 A 
BRANCH   6  18
HETATM   18  O   UNL     1      43.344 -15.149   3.299  1.00  0.00    -0.354 OA
HETATM   19  C   UNL     1      42.814 -15.050   4.624  1.00  0.00     0.210 C 
ENDBRANCH   6  18
ENDBRANCH   2   5
BRANCH   1  20
HETATM   20  C   UNL     1      41.385 -14.041  -0.280  1.00  0.00     0.337 C 
BRANCH  20  21
HETATM   21  N   UNL     1      41.119 -14.117  -1.791  1.00  0.00    -0.063 N 
HETATM   22  C   UNL     1      42.084 -13.270  -2.560  1.00  0.00     0.270 C 
HETATM   23  H   UNL     1      41.298 -15.099  -2.037  1.00  0.00     0.280 HD
BRANCH  21  24
HETATM   24  C   UNL     1      39.676 -13.909  -2.225  1.00  0.00     0.273 C 
BRANCH  24  25
HETATM   25  C   UNL     1      38.785 -13.174  -1.259  1.00  0.00    -0.032 A 
HETATM   26  C   UNL     1      38.015 -13.883  -0.319  1.00  0.00     0.012 A 
HETATM   27  C   UNL     1      37.214 -13.199   0.598  1.00  0.00     0.043 A 
HETATM   28  C   UNL     1      37.176 -11.811   0.577  1.00  0.00     0.116 A 
HETATM   29  F   UNL     1      36.412 -11.158   1.460  1.00  0.00    -0.206 F 
HETATM   30  C   UNL     1      37.931 -11.090  -0.341  1.00  0.00     0.043 A 
HETATM   31  C   UNL     1      38.739 -11.770  -1.255  1.00  0.00     0.012 A 
ENDBRANCH  24  25
ENDBRANCH  21  24
ENDBRANCH  20  21
ENDBRANCH   1  20
TORSDOF 6
ENDMDL
