MODEL 1
REMARK VINA RESULT:     -10.1      0.000      0.000
REMARK  7 active torsions:
REMARK  status: ('A' for Active; 'I' for Inactive)
REMARK    1  A    between atoms: C_2  and  C_3 
REMARK    2  A    between atoms: C_6  and  C_7 
REMARK    3  A    between atoms: N_8  and  N_9 
REMARK    4  A    between atoms: C_20  and  C_21 
REMARK       I    between atoms: C_21  and  N_22 
REMARK    5  A    between atoms: N_22  and  C_23 
REMARK    6  A    between atoms: C_23  and  C_24 
REMARK    7  A    between atoms: C_30  and  N_31 
ROOT
HETATM    1  N   UNL     1      41.594 -15.454   4.141  1.00  0.00    -0.202 N 
HETATM    2  C   UNL     1      42.258 -16.655   3.985  1.00  0.00     0.183 A 
HETATM    3  C   UNL     1      43.051 -16.833   5.120  1.00  0.00     0.124 A 
HETATM    4  N   UNL     1      43.902 -17.886   5.215  1.00  0.00    -0.242 NA
HETATM    5  C   UNL     1      43.859 -18.750   4.192  1.00  0.00     0.086 A 
HETATM    6  C   UNL     1      43.017 -18.563   3.064  1.00  0.00     0.088 A 
HETATM    7  N   UNL     1      42.215 -17.494   2.922  1.00  0.00    -0.225 NA
HETATM    8  C   UNL     1      44.673 -19.874   4.247  1.00  0.00     0.034 A 
HETATM    9  C   UNL     1      44.671 -20.829   3.230  1.00  0.00     0.002 A 
HETATM   10  C   UNL     1      43.838 -20.656   2.134  1.00  0.00     0.002 A 
HETATM   11  C   UNL     1      43.023 -19.525   2.060  1.00  0.00     0.034 A 
HETATM   12  C   UNL     1      42.827 -15.737   5.999  1.00  0.00     0.104 C 
HETATM   13  C   UNL     1      41.759 -15.037   5.456  1.00  0.00     0.123 C 
ENDROOT
BRANCH   1  14
HETATM   14  N   UNL     1      40.981 -14.606   3.259  1.00  0.00    -0.176 NA
HETATM   15  C   UNL     1      39.942 -15.068   2.645  1.00  0.00     0.150 C 
BRANCH  15  16
HETATM   16  C   UNL     1      39.506 -14.423   1.384  1.00  0.00    -0.017 A 
HETATM   17  C   UNL     1      40.446 -14.139   0.390  1.00  0.00     0.013 A 
HETATM   18  C   UNL     1      40.029 -13.803  -0.899  1.00  0.00     0.009 A 
HETATM   19  C   UNL     1      38.665 -13.744  -1.228  1.00  0.00    -0.051 A 
HETATM   20  C   UNL     1      37.737 -13.957  -0.187  1.00  0.00     0.009 A 
HETATM   21  C   UNL     1      38.148 -14.306   1.106  1.00  0.00     0.013 A 
BRANCH  19  22
HETATM   22  C   UNL     1      38.183 -13.483  -2.667  1.00  0.00    -0.024 C 
HETATM   23  C   UNL     1      37.524 -14.714  -3.334  1.00  0.00     0.019 C 
HETATM   24  C   UNL     1      39.386 -13.064  -3.531  1.00  0.00     0.019 C 
HETATM   25  C   UNL     1      37.123 -12.357  -2.683  1.00  0.00     0.019 C 
ENDBRANCH  19  22
ENDBRANCH  15  16
ENDBRANCH   1  14
BRANCH  13  26
HETATM   26  N   UNL     1      41.043 -13.973   5.938  1.00  0.00    -0.286 NA
HETATM   27  H   UNL     1      40.480 -13.490   5.229  1.00  0.00     0.125 HD
HETATM   28  H   UNL     1      40.485 -14.136   6.777  1.00  0.00     0.125 HD
ENDBRANCH  13  26
BRANCH  12  29
HETATM   29  C   UNL     1      43.595 -15.344   7.177  1.00  0.00     0.257 C 
HETATM   30  N   UNL     1      43.892 -13.995   7.186  1.00  0.00    -0.354 N 
HETATM   31  H   UNL     1      43.547 -13.458   6.394  1.00  0.00     0.162 HD
HETATM   32  O   UNL     1      44.003 -16.133   8.017  1.00  0.00    -0.267 OA
BRANCH  30  33
HETATM   33  C   UNL     1      44.905 -13.378   8.018  1.00  0.00     0.155 C 
BRANCH  33  34
HETATM   34  C   UNL     1      44.424 -12.162   8.831  1.00  0.00     0.139 C 
HETATM   35  O   UNL     1      45.429 -11.132   8.796  1.00  0.00    -0.384 OA
HETATM   36  C   UNL     1      45.840 -10.833  10.133  1.00  0.00     0.168 C 
HETATM   37  C   UNL     1      45.379 -11.983  10.998  1.00  0.00     0.029 C 
HETATM   38  C   UNL     1      44.113 -12.420  10.301  1.00  0.00     0.035 C 
ENDBRANCH  33  34
ENDBRANCH  30  33
ENDBRANCH  12  29
TORSDOF 7
ENDMDL
MODEL 2
REMARK VINA RESULT:      -9.5      1.960      2.464
REMARK  7 active torsions:
REMARK  status: ('A' for Active; 'I' for Inactive)
REMARK    1  A    between atoms: C_2  and  C_3 
REMARK    2  A    between atoms: C_6  and  C_7 
REMARK    3  A    between atoms: N_8  and  N_9 
REMARK    4  A    between atoms: C_20  and  C_21 
REMARK       I    between atoms: C_21  and  N_22 
REMARK    5  A    between atoms: N_22  and  C_23 
REMARK    6  A    between atoms: C_23  and  C_24 
REMARK    7  A    between atoms: C_30  and  N_31 
ROOT
HETATM    1  N   UNL     1      41.893 -15.484   3.875  1.00  0.00    -0.202 N 
HETATM    2  C   UNL     1      42.509 -16.720   3.829  1.00  0.00     0.183 A 
HETATM    3  C   UNL     1      43.204 -16.874   5.028  1.00  0.00     0.124 A 
HETATM    4  N   UNL     1      43.994 -17.958   5.240  1.00  0.00    -0.242 NA
HETATM    5  C   UNL     1      43.987 -18.870   4.258  1.00  0.00     0.086 A 
HETATM    6  C   UNL     1      43.243 -18.704   3.061  1.00  0.00     0.088 A 
HETATM    7  N   UNL     1      42.505 -17.609   2.806  1.00  0.00    -0.225 NA
HETATM    8  C   UNL     1      44.740 -20.024   4.430  1.00  0.00     0.034 A 
HETATM    9  C   UNL     1      44.769 -21.029   3.462  1.00  0.00     0.002 A 
HETATM   10  C   UNL     1      44.030 -20.876   2.298  1.00  0.00     0.002 A 
HETATM   11  C   UNL     1      43.278 -19.715   2.108  1.00  0.00     0.034 A 
HETATM   12  C   UNL     1      42.968 -15.726   5.834  1.00  0.00     0.104 C 
HETATM   13  C   UNL     1      41.979 -15.008   5.178  1.00  0.00     0.123 C 
ENDROOT
BRANCH   1  14
HETATM   14  N   UNL     1      41.389 -14.656   2.908  1.00  0.00    -0.176 NA
HETATM   15  C   UNL     1      41.945 -14.727   1.744  1.00  0.00     0.150 C 
BRANCH  15  16
HETATM   16  C   UNL     1      41.791 -13.592   0.804  1.00  0.00    -0.017 A 
HETATM   17  C   UNL     1      41.922 -12.282   1.271  1.00  0.00     0.013 A 
HETATM   18  C   UNL     1      42.065 -11.224   0.371  1.00  0.00     0.009 A 
HETATM   19  C   UNL     1      42.082 -11.448  -1.015  1.00  0.00    -0.051 A 
HETATM   20  C   UNL     1      41.867 -12.769  -1.462  1.00  0.00     0.009 A 
HETATM   21  C   UNL     1      41.734 -13.837  -0.565  1.00  0.00     0.013 A 
BRANCH  19  22
HETATM   22  C   UNL     1      42.347 -10.313  -2.022  1.00  0.00    -0.024 C 
HETATM   23  C   UNL     1      42.487 -10.801  -3.484  1.00  0.00     0.019 C 
HETATM   24  C   UNL     1      43.653  -9.596  -1.637  1.00  0.00     0.019 C 
HETATM   25  C   UNL     1      41.181  -9.299  -2.008  1.00  0.00     0.019 C 
ENDBRANCH  19  22
ENDBRANCH  15  16
ENDBRANCH   1  14
BRANCH  13  26
HETATM   26  N   UNL     1      41.280 -13.890   5.551  1.00  0.00    -0.286 NA
HETATM   27  H   UNL     1      40.559 -14.062   6.259  1.00  0.00     0.125 HD
HETATM   28  H   UNL     1      41.829 -13.066   5.803  1.00  0.00     0.125 HD
ENDBRANCH  13  26
BRANCH  12  29
HETATM   29  C   UNL     1      43.663 -15.307   7.048  1.00  0.00     0.257 C 
HETATM   30  N   UNL     1      44.012 -13.971   7.021  1.00  0.00    -0.354 N 
HETATM   31  H   UNL     1      43.747 -13.459   6.184  1.00  0.00     0.162 HD
HETATM   32  O   UNL     1      43.977 -16.071   7.950  1.00  0.00    -0.267 OA
BRANCH  30  33
HETATM   33  C   UNL     1      44.985 -13.353   7.899  1.00  0.00     0.155 C 
BRANCH  33  34
HETATM   34  C   UNL     1      44.453 -12.170   8.727  1.00  0.00     0.139 C 
HETATM   35  O   UNL     1      45.429 -11.112   8.737  1.00  0.00    -0.384 OA
HETATM   36  C   UNL     1      45.803 -10.832  10.089  1.00  0.00     0.168 C 
HETATM   37  C   UNL     1      45.356 -12.013  10.918  1.00  0.00     0.029 C 
HETATM   38  C   UNL     1      44.118 -12.469  10.184  1.00  0.00     0.035 C 
ENDBRANCH  33  34
ENDBRANCH  30  33
ENDBRANCH  12  29
TORSDOF 7
ENDMDL
MODEL 3
REMARK VINA RESULT:      -9.3      2.792      8.589
REMARK  7 active torsions:
REMARK  status: ('A' for Active; 'I' for Inactive)
REMARK    1  A    between atoms: C_2  and  C_3 
REMARK    2  A    between atoms: C_6  and  C_7 
REMARK    3  A    between atoms: N_8  and  N_9 
REMARK    4  A    between atoms: C_20  and  C_21 
REMARK       I    between atoms: C_21  and  N_22 
REMARK    5  A    between atoms: N_22  and  C_23 
REMARK    6  A    between atoms: C_23  and  C_24 
REMARK    7  A    between atoms: C_30  and  N_31 
ROOT
HETATM    1  N   UNL     1      42.979 -15.348   3.400  1.00  0.00    -0.202 N 
HETATM    2  C   UNL     1      43.309 -16.678   3.224  1.00  0.00     0.183 A 
HETATM    3  C   UNL     1      42.945 -17.021   1.922  1.00  0.00     0.124 A 
HETATM    4  N   UNL     1      43.059 -18.300   1.482  1.00  0.00    -0.242 NA
HETATM    5  C   UNL     1      43.601 -19.159   2.355  1.00  0.00     0.086 A 
HETATM    6  C   UNL     1      43.995 -18.776   3.665  1.00  0.00     0.088 A 
HETATM    7  N   UNL     1      43.832 -17.529   4.140  1.00  0.00    -0.225 NA
HETATM    8  C   UNL     1      43.786 -20.475   1.953  1.00  0.00     0.034 A 
HETATM    9  C   UNL     1      44.362 -21.424   2.799  1.00  0.00     0.002 A 
HETATM   10  C   UNL     1      44.761 -21.048   4.073  1.00  0.00     0.002 A 
HETATM   11  C   UNL     1      44.571 -19.731   4.494  1.00  0.00     0.034 A 
HETATM   12  C   UNL     1      42.426 -15.861   1.282  1.00  0.00     0.104 C 
HETATM   13  C   UNL     1      42.676 -14.812   2.154  1.00  0.00     0.123 C 
ENDROOT
BRANCH   1  14
HETATM   14  N   UNL     1      42.773 -14.576   4.511  1.00  0.00    -0.176 NA
HETATM   15  C   UNL     1      43.802 -13.943   4.969  1.00  0.00     0.150 C 
BRANCH  15  16
HETATM   16  C   UNL     1      43.790 -13.476   6.376  1.00  0.00    -0.017 A 
HETATM   17  C   UNL     1      44.834 -13.829   7.233  1.00  0.00     0.013 A 
HETATM   18  C   UNL     1      44.993 -13.177   8.457  1.00  0.00     0.009 A 
HETATM   19  C   UNL     1      44.115 -12.157   8.854  1.00  0.00    -0.051 A 
HETATM   20  C   UNL     1      43.022 -11.874   8.007  1.00  0.00     0.009 A 
HETATM   21  C   UNL     1      42.863 -12.516   6.772  1.00  0.00     0.013 A 
BRANCH  19  22
HETATM   22  C   UNL     1      44.333 -11.350  10.148  1.00  0.00    -0.024 C 
HETATM   23  C   UNL     1      43.301 -10.215  10.353  1.00  0.00     0.019 C 
HETATM   24  C   UNL     1      45.734 -10.713  10.112  1.00  0.00     0.019 C 
HETATM   25  C   UNL     1      44.220 -12.273  11.383  1.00  0.00     0.019 C 
ENDBRANCH  19  22
ENDBRANCH  15  16
ENDBRANCH   1  14
BRANCH  13  26
HETATM   26  N   UNL     1      42.504 -13.460   2.008  1.00  0.00    -0.286 NA
HETATM   27  H   UNL     1      42.244 -13.169   1.060  1.00  0.00     0.125 HD
HETATM   28  H   UNL     1      41.905 -12.996   2.693  1.00  0.00     0.125 HD
ENDBRANCH  13  26
BRANCH  12  29
HETATM   29  C   UNL     1      41.692 -15.768   0.023  1.00  0.00     0.257 C 
HETATM   30  N   UNL     1      41.876 -14.552  -0.605  1.00  0.00    -0.354 N 
HETATM   31  H   UNL     1      42.484 -13.892  -0.128  1.00  0.00     0.162 HD
HETATM   32  O   UNL     1      40.932 -16.634  -0.387  1.00  0.00    -0.267 OA
BRANCH  30  33
HETATM   33  C   UNL     1      41.037 -14.034  -1.667  1.00  0.00     0.155 C 
BRANCH  33  34
HETATM   34  C   UNL     1      39.919 -13.082  -1.204  1.00  0.00     0.139 C 
HETATM   35  O   UNL     1      40.200 -12.624   0.132  1.00  0.00    -0.384 OA
HETATM   36  C   UNL     1      39.119 -12.996   0.991  1.00  0.00     0.168 C 
HETATM   37  C   UNL     1      38.333 -14.063   0.266  1.00  0.00     0.029 C 
HETATM   38  C   UNL     1      38.510 -13.664  -1.179  1.00  0.00     0.035 C 
ENDBRANCH  33  34
ENDBRANCH  30  33
ENDBRANCH  12  29
TORSDOF 7
ENDMDL
MODEL 4
REMARK VINA RESULT:      -9.0      1.595      2.320
REMARK  7 active torsions:
REMARK  status: ('A' for Active; 'I' for Inactive)
REMARK    1  A    between atoms: C_2  and  C_3 
REMARK    2  A    between atoms: C_6  and  C_7 
REMARK    3  A    between atoms: N_8  and  N_9 
REMARK    4  A    between atoms: C_20  and  C_21 
REMARK       I    between atoms: C_21  and  N_22 
REMARK    5  A    between atoms: N_22  and  C_23 
REMARK    6  A    between atoms: C_23  and  C_24 
REMARK    7  A    between atoms: C_30  and  N_31 
ROOT
HETATM    1  N   UNL     1      40.983 -16.456   2.494  1.00  0.00    -0.202 N 
HETATM    2  C   UNL     1      41.877 -17.466   2.794  1.00  0.00     0.183 A 
HETATM    3  C   UNL     1      42.495 -17.121   3.996  1.00  0.00     0.124 A 
HETATM    4  N   UNL     1      43.501 -17.877   4.504  1.00  0.00    -0.242 NA
HETATM    5  C   UNL     1      43.787 -18.988   3.810  1.00  0.00     0.086 A 
HETATM    6  C   UNL     1      43.119 -19.334   2.606  1.00  0.00     0.088 A 
HETATM    7  N   UNL     1      42.164 -18.565   2.055  1.00  0.00    -0.225 NA
HETATM    8  C   UNL     1      44.777 -19.830   4.299  1.00  0.00     0.034 A 
HETATM    9  C   UNL     1      45.119 -21.014   3.644  1.00  0.00     0.002 A 
HETATM   10  C   UNL     1      44.457 -21.362   2.476  1.00  0.00     0.002 A 
HETATM   11  C   UNL     1      43.467 -20.518   1.967  1.00  0.00     0.034 A 
HETATM   12  C   UNL     1      41.930 -15.898   4.455  1.00  0.00     0.104 C 
HETATM   13  C   UNL     1      40.853 -15.649   3.617  1.00  0.00     0.123 C 
ENDROOT
BRANCH   1  14
HETATM   14  N   UNL     1      40.373 -16.065   1.333  1.00  0.00    -0.176 NA
HETATM   15  C   UNL     1      41.133 -15.527   0.438  1.00  0.00     0.150 C 
BRANCH  15  16
HETATM   16  C   UNL     1      40.519 -14.683  -0.614  1.00  0.00    -0.017 A 
HETATM   17  C   UNL     1      39.335 -13.993  -0.345  1.00  0.00     0.013 A 
HETATM   18  C   UNL     1      38.897 -12.983  -1.204  1.00  0.00     0.009 A 
HETATM   19  C   UNL     1      39.631 -12.637  -2.350  1.00  0.00    -0.051 A 
HETATM   20  C   UNL     1      40.779 -13.404  -2.642  1.00  0.00     0.009 A 
HETATM   21  C   UNL     1      41.230 -14.410  -1.779  1.00  0.00     0.013 A 
BRANCH  19  22
HETATM   22  C   UNL     1      39.227 -11.456  -3.252  1.00  0.00    -0.024 C 
HETATM   23  C   UNL     1      39.133 -10.105  -2.502  1.00  0.00     0.019 C 
HETATM   24  C   UNL     1      37.849 -11.747  -3.874  1.00  0.00     0.019 C 
HETATM   25  C   UNL     1      40.267 -11.260  -4.379  1.00  0.00     0.019 C 
ENDBRANCH  19  22
ENDBRANCH  15  16
ENDBRANCH   1  14
BRANCH  13  26
HETATM   26  N   UNL     1      39.881 -14.683   3.663  1.00  0.00    -0.286 NA
HETATM   27  H   UNL     1      40.243 -13.725   3.713  1.00  0.00     0.125 HD
HETATM   28  H   UNL     1      39.140 -14.742   2.963  1.00  0.00     0.125 HD
ENDBRANCH  13  26
BRANCH  12  29
HETATM   29  C   UNL     1      42.410 -15.014   5.514  1.00  0.00     0.257 C 
HETATM   30  N   UNL     1      43.734 -15.245   5.833  1.00  0.00    -0.354 N 
HETATM   31  H   UNL     1      44.197 -15.980   5.304  1.00  0.00     0.162 HD
HETATM   32  O   UNL     1      41.698 -14.220   6.111  1.00  0.00    -0.267 OA
BRANCH  30  33
HETATM   33  C   UNL     1      44.385 -14.784   7.042  1.00  0.00     0.155 C 
BRANCH  33  34
HETATM   34  C   UNL     1      44.718 -13.281   7.067  1.00  0.00     0.139 C 
HETATM   35  O   UNL     1      46.119 -13.095   6.792  1.00  0.00    -0.384 OA
HETATM   36  C   UNL     1      46.725 -12.414   7.894  1.00  0.00     0.168 C 
HETATM   37  C   UNL     1      45.772 -12.536   9.060  1.00  0.00     0.029 C 
HETATM   38  C   UNL     1      44.428 -12.552   8.374  1.00  0.00     0.035 C 
ENDBRANCH  33  34
ENDBRANCH  30  33
ENDBRANCH  12  29
TORSDOF 7
ENDMDL
MODEL 5
REMARK VINA RESULT:      -9.0      3.734      8.390
REMARK  7 active torsions:
REMARK  status: ('A' for Active; 'I' for Inactive)
REMARK    1  A    between atoms: C_2  and  C_3 
REMARK    2  A    between atoms: C_6  and  C_7 
REMARK    3  A    between atoms: N_8  and  N_9 
REMARK    4  A    between atoms: C_20  and  C_21 
REMARK       I    between atoms: C_21  and  N_22 
REMARK    5  A    between atoms: N_22  and  C_23 
REMARK    6  A    between atoms: C_23  and  C_24 
REMARK    7  A    between atoms: C_30  and  N_31 
ROOT
HETATM    1  N   UNL     1      42.572 -14.179   3.200  1.00  0.00    -0.202 N 
HETATM    2  C   UNL     1      42.873 -15.510   2.983  1.00  0.00     0.183 A 
HETATM    3  C   UNL     1      42.401 -15.833   1.711  1.00  0.00     0.124 A 
HETATM    4  N   UNL     1      42.464 -17.108   1.249  1.00  0.00    -0.242 NA
HETATM    5  C   UNL     1      43.068 -17.982   2.065  1.00  0.00     0.086 A 
HETATM    6  C   UNL     1      43.571 -17.619   3.343  1.00  0.00     0.088 A 
HETATM    7  N   UNL     1      43.460 -16.376   3.843  1.00  0.00    -0.225 NA
HETATM    8  C   UNL     1      43.206 -19.295   1.634  1.00  0.00     0.034 A 
HETATM    9  C   UNL     1      43.840 -20.259   2.420  1.00  0.00     0.002 A 
HETATM   10  C   UNL     1      44.345 -19.903   3.661  1.00  0.00     0.002 A 
HETATM   11  C   UNL     1      44.203 -18.589   4.111  1.00  0.00     0.034 A 
HETATM   12  C   UNL     1      41.842 -14.661   1.129  1.00  0.00     0.104 C 
HETATM   13  C   UNL     1      42.174 -13.625   1.989  1.00  0.00     0.123 C 
ENDROOT
BRANCH   1  14
HETATM   14  N   UNL     1      42.465 -13.419   4.333  1.00  0.00    -0.176 NA
HETATM   15  C   UNL     1      41.412 -13.611   5.056  1.00  0.00     0.150 C 
BRANCH  15  16
HETATM   16  C   UNL     1      40.993 -12.556   6.009  1.00  0.00    -0.017 A 
HETATM   17  C   UNL     1      39.692 -12.556   6.515  1.00  0.00     0.013 A 
HETATM   18  C   UNL     1      39.362 -11.760   7.614  1.00  0.00     0.009 A 
HETATM   19  C   UNL     1      40.323 -10.947   8.234  1.00  0.00    -0.051 A 
HETATM   20  C   UNL     1      41.609 -10.903   7.654  1.00  0.00     0.009 A 
HETATM   21  C   UNL     1      41.950 -11.708   6.559  1.00  0.00     0.013 A 
BRANCH  19  22
HETATM   22  C   UNL     1      40.012 -10.144   9.511  1.00  0.00    -0.024 C 
HETATM   23  C   UNL     1      40.798  -8.815   9.617  1.00  0.00     0.019 C 
HETATM   24  C   UNL     1      40.365 -11.001  10.740  1.00  0.00     0.019 C 
HETATM   25  C   UNL     1      38.513  -9.771   9.560  1.00  0.00     0.019 C 
ENDBRANCH  19  22
ENDBRANCH  15  16
ENDBRANCH   1  14
BRANCH  13  26
HETATM   26  N   UNL     1      42.004 -12.270   1.873  1.00  0.00    -0.286 NA
HETATM   27  H   UNL     1      41.787 -11.953   0.922  1.00  0.00     0.125 HD
HETATM   28  H   UNL     1      41.372 -11.826   2.542  1.00  0.00     0.125 HD
ENDBRANCH  13  26
BRANCH  12  29
HETATM   29  C   UNL     1      41.009 -14.546  -0.065  1.00  0.00     0.257 C 
HETATM   30  N   UNL     1      41.607 -15.102  -1.180  1.00  0.00    -0.354 N 
HETATM   31  H   UNL     1      42.525 -15.513  -1.034  1.00  0.00     0.162 HD
HETATM   32  O   UNL     1      39.943 -13.949  -0.095  1.00  0.00    -0.267 OA
BRANCH  30  33
HETATM   33  C   UNL     1      41.199 -14.851  -2.547  1.00  0.00     0.155 C 
BRANCH  33  34
HETATM   34  C   UNL     1      41.862 -13.628  -3.207  1.00  0.00     0.139 C 
HETATM   35  O   UNL     1      42.900 -13.122  -2.347  1.00  0.00    -0.384 OA
HETATM   36  C   UNL     1      42.610 -11.761  -2.013  1.00  0.00     0.168 C 
HETATM   37  C   UNL     1      41.153 -11.534  -2.338  1.00  0.00     0.029 C 
HETATM   38  C   UNL     1      40.940 -12.453  -3.517  1.00  0.00     0.035 C 
ENDBRANCH  33  34
ENDBRANCH  30  33
ENDBRANCH  12  29
TORSDOF 7
ENDMDL
MODEL 6
REMARK VINA RESULT:      -8.9      1.715      2.110
REMARK  7 active torsions:
REMARK  status: ('A' for Active; 'I' for Inactive)
REMARK    1  A    between atoms: C_2  and  C_3 
REMARK    2  A    between atoms: C_6  and  C_7 
REMARK    3  A    between atoms: N_8  and  N_9 
REMARK    4  A    between atoms: C_20  and  C_21 
REMARK       I    between atoms: C_21  and  N_22 
REMARK    5  A    between atoms: N_22  and  C_23 
REMARK    6  A    between atoms: C_23  and  C_24 
REMARK    7  A    between atoms: C_30  and  N_31 
ROOT
HETATM    1  N   UNL     1      42.389 -14.140   4.520  1.00  0.00    -0.202 N 
HETATM    2  C   UNL     1      42.917 -15.391   4.775  1.00  0.00     0.183 A 
HETATM    3  C   UNL     1      43.683 -15.282   5.936  1.00  0.00     0.124 A 
HETATM    4  N   UNL     1      44.412 -16.333   6.390  1.00  0.00    -0.242 NA
HETATM    5  C   UNL     1      44.276 -17.467   5.689  1.00  0.00     0.086 A 
HETATM    6  C   UNL     1      43.463 -17.561   4.529  1.00  0.00     0.088 A 
HETATM    7  N   UNL     1      42.783 -16.514   4.029  1.00  0.00    -0.225 NA
HETATM    8  C   UNL     1      44.961 -18.594   6.125  1.00  0.00     0.034 A 
HETATM    9  C   UNL     1      44.856 -19.816   5.460  1.00  0.00     0.002 A 
HETATM   10  C   UNL     1      44.049 -19.913   4.336  1.00  0.00     0.002 A 
HETATM   11  C   UNL     1      43.364 -18.786   3.880  1.00  0.00     0.034 A 
HETATM   12  C   UNL     1      43.579 -13.947   6.417  1.00  0.00     0.104 C 
HETATM   13  C   UNL     1      42.597 -13.348   5.643  1.00  0.00     0.123 C 
ENDROOT
BRANCH   1  14
HETATM   14  N   UNL     1      41.874 -13.556   3.394  1.00  0.00    -0.176 NA
HETATM   15  C   UNL     1      40.799 -14.086   2.913  1.00  0.00     0.150 C 
BRANCH  15  16
HETATM   16  C   UNL     1      40.444 -13.830   1.497  1.00  0.00    -0.017 A 
HETATM   17  C   UNL     1      41.452 -13.734   0.536  1.00  0.00     0.013 A 
HETATM   18  C   UNL     1      41.137 -13.780  -0.824  1.00  0.00     0.009 A 
HETATM   19  C   UNL     1      39.810 -13.924  -1.256  1.00  0.00    -0.051 A 
HETATM   20  C   UNL     1      38.803 -13.938  -0.267  1.00  0.00     0.009 A 
HETATM   21  C   UNL     1      39.112 -13.904   1.099  1.00  0.00     0.013 A 
BRANCH  19  22
HETATM   22  C   UNL     1      39.449 -14.087  -2.744  1.00  0.00    -0.024 C 
HETATM   23  C   UNL     1      39.952 -15.413  -3.364  1.00  0.00     0.019 C 
HETATM   24  C   UNL     1      40.071 -12.927  -3.541  1.00  0.00     0.019 C 
HETATM   25  C   UNL     1      37.914 -14.072  -2.930  1.00  0.00     0.019 C 
ENDBRANCH  19  22
ENDBRANCH  15  16
ENDBRANCH   1  14
BRANCH  13  26
HETATM   26  N   UNL     1      42.001 -12.117   5.739  1.00  0.00    -0.286 NA
HETATM   27  H   UNL     1      41.022 -12.099   5.434  1.00  0.00     0.125 HD
HETATM   28  H   UNL     1      42.100 -11.625   6.629  1.00  0.00     0.125 HD
ENDBRANCH  13  26
BRANCH  12  29
HETATM   29  C   UNL     1      44.384 -13.283   7.439  1.00  0.00     0.257 C 
HETATM   30  N   UNL     1      43.618 -12.517   8.297  1.00  0.00    -0.354 N 
HETATM   31  H   UNL     1      42.618 -12.512   8.116  1.00  0.00     0.162 HD
HETATM   32  O   UNL     1      45.605 -13.329   7.480  1.00  0.00    -0.267 OA
BRANCH  30  33
HETATM   33  C   UNL     1      44.140 -11.491   9.178  1.00  0.00     0.155 C 
BRANCH  33  34
HETATM   34  C   UNL     1      43.576 -11.519  10.610  1.00  0.00     0.139 C 
HETATM   35  O   UNL     1      42.167 -11.223  10.578  1.00  0.00    -0.384 OA
HETATM   36  C   UNL     1      41.914 -10.062  11.374  1.00  0.00     0.168 C 
HETATM   37  C   UNL     1      43.245  -9.377  11.581  1.00  0.00     0.029 C 
HETATM   38  C   UNL     1      44.206 -10.542  11.597  1.00  0.00     0.035 C 
ENDBRANCH  33  34
ENDBRANCH  30  33
ENDBRANCH  12  29
TORSDOF 7
ENDMDL
MODEL 7
REMARK VINA RESULT:      -8.9      3.127      4.093
REMARK  7 active torsions:
REMARK  status: ('A' for Active; 'I' for Inactive)
REMARK    1  A    between atoms: C_2  and  C_3 
REMARK    2  A    between atoms: C_6  and  C_7 
REMARK    3  A    between atoms: N_8  and  N_9 
REMARK    4  A    between atoms: C_20  and  C_21 
REMARK       I    between atoms: C_21  and  N_22 
REMARK    5  A    between atoms: N_22  and  C_23 
REMARK    6  A    between atoms: C_23  and  C_24 
REMARK    7  A    between atoms: C_30  and  N_31 
ROOT
HETATM    1  N   UNL     1      40.791 -15.915   1.684  1.00  0.00    -0.202 N 
HETATM    2  C   UNL     1      41.591 -16.902   2.227  1.00  0.00     0.183 A 
HETATM    3  C   UNL     1      41.694 -16.638   3.593  1.00  0.00     0.124 A 
HETATM    4  N   UNL     1      42.501 -17.387   4.387  1.00  0.00    -0.242 NA
HETATM    5  C   UNL     1      43.111 -18.413   3.777  1.00  0.00     0.086 A 
HETATM    6  C   UNL     1      42.962 -18.680   2.391  1.00  0.00     0.088 A 
HETATM    7  N   UNL     1      42.217 -17.912   1.576  1.00  0.00    -0.225 NA
HETATM    8  C   UNL     1      43.917 -19.245   4.542  1.00  0.00     0.034 A 
HETATM    9  C   UNL     1      44.570 -20.345   3.983  1.00  0.00     0.002 A 
HETATM   10  C   UNL     1      44.414 -20.617   2.632  1.00  0.00     0.002 A 
HETATM   11  C   UNL     1      43.615 -19.781   1.849  1.00  0.00     0.034 A 
HETATM   12  C   UNL     1      40.903 -15.493   3.889  1.00  0.00     0.104 C 
HETATM   13  C   UNL     1      40.192 -15.222   2.729  1.00  0.00     0.123 C 
ENDROOT
BRANCH   1  14
HETATM   14  N   UNL     1      40.619 -15.450   0.409  1.00  0.00    -0.176 NA
HETATM   15  C   UNL     1      41.613 -14.804  -0.105  1.00  0.00     0.150 C 
BRANCH  15  16
HETATM   16  C   UNL     1      41.366 -13.897  -1.251  1.00  0.00    -0.017 A 
HETATM   17  C   UNL     1      40.137 -13.244  -1.366  1.00  0.00     0.013 A 
HETATM   18  C   UNL     1      39.982 -12.183  -2.260  1.00  0.00     0.009 A 
HETATM   19  C   UNL     1      41.051 -11.748  -3.060  1.00  0.00    -0.051 A 
HETATM   20  C   UNL     1      42.258 -12.476  -2.983  1.00  0.00     0.009 A 
HETATM   21  C   UNL     1      42.423 -13.534  -2.080  1.00  0.00     0.013 A 
BRANCH  19  22
HETATM   22  C   UNL     1      40.937 -10.513  -3.972  1.00  0.00    -0.024 C 
HETATM   23  C   UNL     1      39.751 -10.580  -4.963  1.00  0.00     0.019 C 
HETATM   24  C   UNL     1      42.232 -10.375  -4.794  1.00  0.00     0.019 C 
HETATM   25  C   UNL     1      40.729  -9.236  -3.126  1.00  0.00     0.019 C 
ENDBRANCH  19  22
ENDBRANCH  15  16
ENDBRANCH   1  14
BRANCH  13  26
HETATM   26  N   UNL     1      39.197 -14.315   2.475  1.00  0.00    -0.286 NA
HETATM   27  H   UNL     1      38.747 -14.431   1.561  1.00  0.00     0.125 HD
HETATM   28  H   UNL     1      38.488 -14.193   3.201  1.00  0.00     0.125 HD
ENDBRANCH  13  26
BRANCH  12  29
HETATM   29  C   UNL     1      40.887 -14.688   5.108  1.00  0.00     0.257 C 
HETATM   30  N   UNL     1      39.627 -14.210   5.406  1.00  0.00    -0.354 N 
HETATM   31  H   UNL     1      38.887 -14.472   4.761  1.00  0.00     0.162 HD
HETATM   32  O   UNL     1      41.891 -14.398   5.744  1.00  0.00    -0.267 OA
BRANCH  30  33
HETATM   33  C   UNL     1      39.351 -13.129   6.331  1.00  0.00     0.155 C 
BRANCH  33  34
HETATM   34  C   UNL     1      39.308 -11.727   5.696  1.00  0.00     0.139 C 
HETATM   35  O   UNL     1      39.269 -11.850   4.261  1.00  0.00    -0.384 OA
HETATM   36  C   UNL     1      40.400 -11.176   3.703  1.00  0.00     0.168 C 
HETATM   37  C   UNL     1      41.386 -10.973   4.828  1.00  0.00     0.029 C 
HETATM   38  C   UNL     1      40.479 -10.807   6.023  1.00  0.00     0.035 C 
ENDBRANCH  33  34
ENDBRANCH  30  33
ENDBRANCH  12  29
TORSDOF 7
ENDMDL
MODEL 8
REMARK VINA RESULT:      -8.8      2.301      2.848
REMARK  7 active torsions:
REMARK  status: ('A' for Active; 'I' for Inactive)
REMARK    1  A    between atoms: C_2  and  C_3 
REMARK    2  A    between atoms: C_6  and  C_7 
REMARK    3  A    between atoms: N_8  and  N_9 
REMARK    4  A    between atoms: C_20  and  C_21 
REMARK       I    between atoms: C_21  and  N_22 
REMARK    5  A    between atoms: N_22  and  C_23 
REMARK    6  A    between atoms: C_23  and  C_24 
REMARK    7  A    between atoms: C_30  and  N_31 
ROOT
HETATM    1  N   UNL     1      41.255 -15.710   4.393  1.00  0.00    -0.202 N 
HETATM    2  C   UNL     1      42.022 -16.832   4.144  1.00  0.00     0.183 A 
HETATM    3  C   UNL     1      42.924 -16.953   5.202  1.00  0.00     0.124 A 
HETATM    4  N   UNL     1      43.882 -17.915   5.192  1.00  0.00    -0.242 NA
HETATM    5  C   UNL     1      43.839 -18.754   4.148  1.00  0.00     0.086 A 
HETATM    6  C   UNL     1      42.888 -18.629   3.101  1.00  0.00     0.088 A 
HETATM    7  N   UNL     1      41.972 -17.645   3.062  1.00  0.00    -0.225 NA
HETATM    8  C   UNL     1      44.764 -19.788   4.099  1.00  0.00     0.034 A 
HETATM    9  C   UNL     1      44.771 -20.714   3.054  1.00  0.00     0.002 A 
HETATM   10  C   UNL     1      43.833 -20.603   2.039  1.00  0.00     0.002 A 
HETATM   11  C   UNL     1      42.904 -19.561   2.070  1.00  0.00     0.034 A 
HETATM   12  C   UNL     1      42.667 -15.908   6.132  1.00  0.00     0.104 C 
HETATM   13  C   UNL     1      41.492 -15.309   5.703  1.00  0.00     0.123 C 
ENDROOT
BRANCH   1  14
HETATM   14  N   UNL     1      40.485 -14.909   3.594  1.00  0.00    -0.176 NA
HETATM   15  C   UNL     1      41.119 -14.097   2.815  1.00  0.00     0.150 C 
BRANCH  15  16
HETATM   16  C   UNL     1      40.405 -12.914   2.276  1.00  0.00    -0.017 A 
HETATM   17  C   UNL     1      39.168 -12.548   2.812  1.00  0.00     0.013 A 
HETATM   18  C   UNL     1      38.619 -11.296   2.526  1.00  0.00     0.009 A 
HETATM   19  C   UNL     1      39.292 -10.381   1.701  1.00  0.00    -0.051 A 
HETATM   20  C   UNL     1      40.499 -10.806   1.109  1.00  0.00     0.009 A 
HETATM   21  C   UNL     1      41.062 -12.056   1.400  1.00  0.00     0.013 A 
BRANCH  19  22
HETATM   22  C   UNL     1      38.760  -8.956   1.460  1.00  0.00    -0.024 C 
HETATM   23  C   UNL     1      38.486  -8.166   2.763  1.00  0.00     0.019 C 
HETATM   24  C   UNL     1      37.440  -9.039   0.673  1.00  0.00     0.019 C 
HETATM   25  C   UNL     1      39.786  -8.128   0.654  1.00  0.00     0.019 C 
ENDBRANCH  19  22
ENDBRANCH  15  16
ENDBRANCH   1  14
BRANCH  13  26
HETATM   26  N   UNL     1      40.715 -14.337   6.277  1.00  0.00    -0.286 NA
HETATM   27  H   UNL     1      40.663 -14.389   7.300  1.00  0.00     0.125 HD
HETATM   28  H   UNL     1      40.892 -13.374   5.984  1.00  0.00     0.125 HD
ENDBRANCH  13  26
BRANCH  12  29
HETATM   29  C   UNL     1      43.491 -15.465   7.253  1.00  0.00     0.257 C 
HETATM   30  N   UNL     1      43.790 -14.118   7.187  1.00  0.00    -0.354 N 
HETATM   31  H   UNL     1      43.410 -13.616   6.389  1.00  0.00     0.162 HD
HETATM   32  O   UNL     1      43.937 -16.217   8.108  1.00  0.00    -0.267 OA
BRANCH  30  33
HETATM   33  C   UNL     1      44.843 -13.467   7.941  1.00  0.00     0.155 C 
BRANCH  33  34
HETATM   34  C   UNL     1      44.400 -12.223   8.732  1.00  0.00     0.139 C 
HETATM   35  O   UNL     1      45.424 -11.214   8.655  1.00  0.00    -0.384 OA
HETATM   36  C   UNL     1      45.864 -10.892   9.977  1.00  0.00     0.168 C 
HETATM   37  C   UNL     1      45.395 -12.010  10.878  1.00  0.00     0.029 C 
HETATM   38  C   UNL     1      44.109 -12.439  10.213  1.00  0.00     0.035 C 
ENDBRANCH  33  34
ENDBRANCH  30  33
ENDBRANCH  12  29
TORSDOF 7
ENDMDL
MODEL 9
REMARK VINA RESULT:      -8.8      2.286      7.047
REMARK  7 active torsions:
REMARK  status: ('A' for Active; 'I' for Inactive)
REMARK    1  A    between atoms: C_2  and  C_3 
REMARK    2  A    between atoms: C_6  and  C_7 
REMARK    3  A    between atoms: N_8  and  N_9 
REMARK    4  A    between atoms: C_20  and  C_21 
REMARK       I    between atoms: C_21  and  N_22 
REMARK    5  A    between atoms: N_22  and  C_23 
REMARK    6  A    between atoms: C_23  and  C_24 
REMARK    7  A    between atoms: C_30  and  N_31 
ROOT
HETATM    1  N   UNL     1      41.748 -14.086   5.041  1.00  0.00    -0.202 N 
HETATM    2  C   UNL     1      40.812 -13.453   4.247  1.00  0.00     0.183 A 
HETATM    3  C   UNL     1      40.462 -12.267   4.893  1.00  0.00     0.124 A 
HETATM    4  N   UNL     1      39.481 -11.469   4.399  1.00  0.00    -0.242 NA
HETATM    5  C   UNL     1      38.951 -11.869   3.235  1.00  0.00     0.086 A 
HETATM    6  C   UNL     1      39.350 -13.064   2.580  1.00  0.00     0.088 A 
HETATM    7  N   UNL     1      40.274 -13.899   3.086  1.00  0.00    -0.225 NA
HETATM    8  C   UNL     1      37.973 -11.074   2.652  1.00  0.00     0.034 A 
HETATM    9  C   UNL     1      37.387 -11.413   1.432  1.00  0.00     0.002 A 
HETATM   10  C   UNL     1      37.786 -12.572   0.783  1.00  0.00     0.002 A 
HETATM   11  C   UNL     1      38.760 -13.386   1.364  1.00  0.00     0.034 A 
HETATM   12  C   UNL     1      41.236 -12.160   6.082  1.00  0.00     0.104 C 
HETATM   13  C   UNL     1      42.168 -13.184   6.012  1.00  0.00     0.123 C 
ENDROOT
BRANCH   1  14
HETATM   14  N   UNL     1      42.183 -15.381   5.119  1.00  0.00    -0.176 NA
HETATM   15  C   UNL     1      42.963 -15.783   4.171  1.00  0.00     0.150 C 
BRANCH  15  16
HETATM   16  C   UNL     1      43.104 -17.238   3.925  1.00  0.00    -0.017 A 
HETATM   17  C   UNL     1      42.564 -17.801   2.766  1.00  0.00     0.013 A 
HETATM   18  C   UNL     1      42.924 -19.092   2.376  1.00  0.00     0.009 A 
HETATM   19  C   UNL     1      43.833 -19.851   3.131  1.00  0.00    -0.051 A 
HETATM   20  C   UNL     1      44.301 -19.290   4.338  1.00  0.00     0.009 A 
HETATM   21  C   UNL     1      43.952 -17.991   4.730  1.00  0.00     0.013 A 
BRANCH  19  22
HETATM   22  C   UNL     1      44.329 -21.232   2.663  1.00  0.00    -0.024 C 
HETATM   23  C   UNL     1      45.720 -21.195   1.985  1.00  0.00     0.019 C 
HETATM   24  C   UNL     1      43.324 -21.810   1.650  1.00  0.00     0.019 C 
HETATM   25  C   UNL     1      44.454 -22.193   3.867  1.00  0.00     0.019 C 
ENDBRANCH  19  22
ENDBRANCH  15  16
ENDBRANCH   1  14
BRANCH  13  26
HETATM   26  N   UNL     1      43.237 -13.485   6.816  1.00  0.00    -0.286 NA
HETATM   27  H   UNL     1      43.373 -14.489   6.977  1.00  0.00     0.125 HD
HETATM   28  H   UNL     1      44.128 -13.044   6.581  1.00  0.00     0.125 HD
ENDBRANCH  13  26
BRANCH  12  29
HETATM   29  C   UNL     1      41.056 -11.244   7.205  1.00  0.00     0.257 C 
HETATM   30  N   UNL     1      42.247 -10.952   7.841  1.00  0.00    -0.354 N 
HETATM   31  H   UNL     1      43.077 -11.396   7.458  1.00  0.00     0.162 HD
HETATM   32  O   UNL     1      39.966 -10.849   7.593  1.00  0.00    -0.267 OA
BRANCH  30  33
HETATM   33  C   UNL     1      42.356 -10.365   9.162  1.00  0.00     0.155 C 
BRANCH  33  34
HETATM   34  C   UNL     1      43.713 -10.578   9.856  1.00  0.00     0.139 C 
HETATM   35  O   UNL     1      44.177 -11.918   9.605  1.00  0.00    -0.384 OA
HETATM   36  C   UNL     1      44.355 -12.594  10.853  1.00  0.00     0.168 C 
HETATM   37  C   UNL     1      43.600 -11.797  11.891  1.00  0.00     0.029 C 
HETATM   38  C   UNL     1      43.730 -10.387  11.369  1.00  0.00     0.035 C 
ENDBRANCH  33  34
ENDBRANCH  30  33
ENDBRANCH  12  29
TORSDOF 7
ENDMDL
MODEL 10
REMARK VINA RESULT:      -8.7      3.581      9.163
REMARK  7 active torsions:
REMARK  status: ('A' for Active; 'I' for Inactive)
REMARK    1  A    between atoms: C_2  and  C_3 
REMARK    2  A    between atoms: C_6  and  C_7 
REMARK    3  A    between atoms: N_8  and  N_9 
REMARK    4  A    between atoms: C_20  and  C_21 
REMARK       I    between atoms: C_21  and  N_22 
REMARK    5  A    between atoms: N_22  and  C_23 
REMARK    6  A    between atoms: C_23  and  C_24 
REMARK    7  A    between atoms: C_30  and  N_31 
ROOT
HETATM    1  N   UNL     1      41.146 -13.745   4.853  1.00  0.00    -0.202 N 
HETATM    2  C   UNL     1      42.000 -14.827   4.946  1.00  0.00     0.183 A 
HETATM    3  C   UNL     1      41.879 -15.547   3.757  1.00  0.00     0.124 A 
HETATM    4  N   UNL     1      42.529 -16.727   3.588  1.00  0.00    -0.242 NA
HETATM    5  C   UNL     1      43.328 -17.088   4.600  1.00  0.00     0.086 A 
HETATM    6  C   UNL     1      43.460 -16.320   5.787  1.00  0.00     0.088 A 
HETATM    7  N   UNL     1      42.777 -15.181   5.998  1.00  0.00    -0.225 NA
HETATM    8  C   UNL     1      44.057 -18.264   4.474  1.00  0.00     0.034 A 
HETATM    9  C   UNL     1      44.925 -18.697   5.476  1.00  0.00     0.002 A 
HETATM   10  C   UNL     1      45.067 -17.940   6.630  1.00  0.00     0.002 A 
HETATM   11  C   UNL     1      44.332 -16.762   6.775  1.00  0.00     0.034 A 
HETATM   12  C   UNL     1      40.965 -14.861   2.909  1.00  0.00     0.104 C 
HETATM   13  C   UNL     1      40.717 -13.648   3.535  1.00  0.00     0.123 C 
ENDROOT
BRANCH   1  14
HETATM   14  N   UNL     1      40.584 -12.918   5.787  1.00  0.00    -0.176 NA
HETATM   15  C   UNL     1      41.298 -11.911   6.166  1.00  0.00     0.150 C 
BRANCH  15  16
HETATM   16  C   UNL     1      40.984 -11.252   7.456  1.00  0.00    -0.017 A 
HETATM   17  C   UNL     1      39.711 -11.392   8.014  1.00  0.00     0.013 A 
HETATM   18  C   UNL     1      39.479 -11.029   9.342  1.00  0.00     0.009 A 
HETATM   19  C   UNL     1      40.512 -10.521  10.146  1.00  0.00    -0.051 A 
HETATM   20  C   UNL     1      41.768 -10.316   9.536  1.00  0.00     0.009 A 
HETATM   21  C   UNL     1      42.010 -10.687   8.207  1.00  0.00     0.013 A 
BRANCH  19  22
HETATM   22  C   UNL     1      40.308 -10.218  11.642  1.00  0.00    -0.024 C 
HETATM   23  C   UNL     1      40.293 -11.481  12.535  1.00  0.00     0.019 C 
HETATM   24  C   UNL     1      38.964  -9.492  11.828  1.00  0.00     0.019 C 
HETATM   25  C   UNL     1      41.453  -9.322  12.169  1.00  0.00     0.019 C 
ENDBRANCH  19  22
ENDBRANCH  15  16
ENDBRANCH   1  14
BRANCH  13  26
HETATM   26  N   UNL     1      40.014 -12.547   3.118  1.00  0.00    -0.286 NA
HETATM   27  H   UNL     1      39.697 -12.595   2.144  1.00  0.00     0.125 HD
HETATM   28  H   UNL     1      39.251 -12.233   3.721  1.00  0.00     0.125 HD
ENDBRANCH  13  26
BRANCH  12  29
HETATM   29  C   UNL     1      40.325 -15.336   1.686  1.00  0.00     0.257 C 
HETATM   30  N   UNL     1      41.241 -15.771   0.748  1.00  0.00    -0.354 N 
HETATM   31  H   UNL     1      42.219 -15.710   1.019  1.00  0.00     0.162 HD
HETATM   32  O   UNL     1      39.122 -15.276   1.480  1.00  0.00    -0.267 OA
BRANCH  30  33
HETATM   33  C   UNL     1      40.952 -15.973  -0.658  1.00  0.00     0.155 C 
BRANCH  33  34
HETATM   34  C   UNL     1      41.041 -14.706  -1.527  1.00  0.00     0.139 C 
HETATM   35  O   UNL     1      39.799 -13.981  -1.449  1.00  0.00    -0.384 OA
HETATM   36  C   UNL     1      39.247 -13.856  -2.762  1.00  0.00     0.168 C 
HETATM   37  C   UNL     1      39.949 -14.873  -3.630  1.00  0.00     0.029 C 
HETATM   38  C   UNL     1      41.324 -14.928  -3.009  1.00  0.00     0.035 C 
ENDBRANCH  33  34
ENDBRANCH  30  33
ENDBRANCH  12  29
TORSDOF 7
ENDMDL
