MODEL 1
REMARK VINA RESULT:      -9.0      0.000      0.000
REMARK  8 active torsions:
REMARK  status: ('A' for Active; 'I' for Inactive)
REMARK    1  A    between atoms: O_2  and  C_3 
REMARK    2  A    between atoms: C_11  and  C_12 
REMARK       I    between atoms: C_12  and  N_13 
REMARK    3  A    between atoms: N_13  and  C_14 
REMARK    4  A    between atoms: C_14  and  C_15 
REMARK    5  A    between atoms: C_15  and  C_16 
REMARK    6  A    between atoms: C_16  and  C_17 
REMARK    7  A    between atoms: C_17  and  O_18 
REMARK    8  A    between atoms: O_18  and  C_19 
ROOT
HETATM    1  C   UNL     1      45.900 -12.461   8.053  1.00  0.00     0.268 C 
HETATM    2  N   UNL     1      45.499 -13.559   7.338  1.00  0.00    -0.345 N 
HETATM    3  O   UNL     1      47.066 -12.102   7.890  1.00  0.00    -0.266 OA
HETATM    4  H   UNL     1      46.265 -13.925   6.789  1.00  0.00     0.163 HD
ENDROOT
BRANCH   2   5
HETATM    5  C   UNL     1      44.244 -14.264   7.253  1.00  0.00     0.217 C 
BRANCH   5   6
HETATM    6  C   UNL     1      44.436 -15.750   6.995  1.00  0.00    -0.085 C 
BRANCH   6   7
HETATM    7  C   UNL     1      44.600 -17.024   6.773  1.00  0.00    -0.078 C 
BRANCH   7   8
HETATM    8  C   UNL     1      44.792 -18.510   6.514  1.00  0.00     0.269 C 
BRANCH   8   9
HETATM    9  O   UNL     1      43.625 -19.020   5.887  1.00  0.00    -0.337 OA
BRANCH   9  10
HETATM   10  C   UNL     1      43.672 -19.252   4.528  1.00  0.00     0.099 A 
HETATM   11  C   UNL     1      42.777 -18.490   3.752  1.00  0.00     0.100 A 
HETATM   12  C   UNL     1      42.773 -18.697   2.353  1.00  0.00    -0.005 A 
HETATM   13  N   UNL     1      41.943 -17.584   4.316  1.00  0.00    -0.257 NA
HETATM   14  C   UNL     1      41.891 -17.945   1.564  1.00  0.00     0.015 A 
HETATM   15  C   UNL     1      43.634 -19.636   1.764  1.00  0.00     0.014 A 
HETATM   16  C   UNL     1      41.047 -17.017   2.157  1.00  0.00     0.020 A 
HETATM   17  C   UNL     1      41.111 -16.874   3.527  1.00  0.00     0.117 A 
HETATM   18  C   UNL     1      44.508 -20.377   2.550  1.00  0.00     0.004 A 
HETATM   19  C   UNL     1      44.529 -20.188   3.928  1.00  0.00     0.039 A 
ENDBRANCH   9  10
ENDBRANCH   8   9
ENDBRANCH   7   8
ENDBRANCH   6   7
ENDBRANCH   5   6
ENDBRANCH   2   5
BRANCH   1  20
HETATM   20  C   UNL     1      45.016 -11.799   8.987  1.00  0.00     0.102 A 
HETATM   21  N   UNL     1      43.667 -11.561   8.861  1.00  0.00    -0.351 N 
HETATM   22  C   UNL     1      43.142 -11.024  10.014  1.00  0.00     0.045 A 
HETATM   23  H   UNL     1      43.109 -11.801   8.058  1.00  0.00     0.166 HD
HETATM   24  C   UNL     1      41.812 -10.735  10.356  1.00  0.00     0.067 A 
HETATM   25  C   UNL     1      44.211 -10.790  10.873  1.00  0.00    -0.007 A 
HETATM   26  C   UNL     1      41.572 -10.200  11.628  1.00  0.00     0.070 A 
HETATM   27  C   UNL     1      42.634  -9.935  12.494  1.00  0.00     0.038 A 
HETATM   28  C   UNL     1      43.957 -10.223  12.133  1.00  0.00     0.016 A 
HETATM   29  C   UNL     1      45.380 -11.241  10.206  1.00  0.00     0.049 A 
BRANCH  26  30
HETATM   30  O   UNL     1      40.337  -9.885  12.132  1.00  0.00    -0.356 OA
HETATM   31  C   UNL     1      40.313  -9.009  13.251  1.00  0.00     0.210 C 
ENDBRANCH  26  30
ENDBRANCH   1  20
TORSDOF 8
ENDMDL
MODEL 2
REMARK VINA RESULT:      -9.0      1.966     10.267
REMARK  8 active torsions:
REMARK  status: ('A' for Active; 'I' for Inactive)
REMARK    1  A    between atoms: O_2  and  C_3 
REMARK    2  A    between atoms: C_11  and  C_12 
REMARK       I    between atoms: C_12  and  N_13 
REMARK    3  A    between atoms: N_13  and  C_14 
REMARK    4  A    between atoms: C_14  and  C_15 
REMARK    5  A    between atoms: C_15  and  C_16 
REMARK    6  A    between atoms: C_16  and  C_17 
REMARK    7  A    between atoms: C_17  and  O_18 
REMARK    8  A    between atoms: O_18  and  C_19 
ROOT
HETATM    1  C   UNL     1      42.435 -15.141   5.893  1.00  0.00     0.268 C 
HETATM    2  N   UNL     1      43.287 -14.391   6.661  1.00  0.00    -0.345 N 
HETATM    3  O   UNL     1      41.235 -14.883   6.002  1.00  0.00    -0.266 OA
HETATM    4  H   UNL     1      42.769 -13.738   7.233  1.00  0.00     0.163 HD
ENDROOT
BRANCH   2   5
HETATM    5  C   UNL     1      44.722 -14.386   6.806  1.00  0.00     0.217 C 
BRANCH   5   6
HETATM    6  C   UNL     1      45.200 -13.293   7.747  1.00  0.00    -0.085 C 
BRANCH   6   7
HETATM    7  C   UNL     1      45.611 -12.356   8.555  1.00  0.00    -0.078 C 
BRANCH   7   8
HETATM    8  C   UNL     1      46.091 -11.263   9.497  1.00  0.00     0.269 C 
BRANCH   8   9
HETATM    9  O   UNL     1      45.089 -10.260   9.583  1.00  0.00    -0.337 OA
BRANCH   9  10
HETATM   10  C   UNL     1      44.023 -10.484  10.429  1.00  0.00     0.099 A 
HETATM   11  C   UNL     1      42.761 -10.560   9.807  1.00  0.00     0.100 A 
HETATM   12  C   UNL     1      41.631 -10.775  10.629  1.00  0.00    -0.005 A 
HETATM   13  N   UNL     1      42.624 -10.435   8.465  1.00  0.00    -0.257 NA
HETATM   14  C   UNL     1      40.367 -10.856  10.027  1.00  0.00     0.015 A 
HETATM   15  C   UNL     1      41.768 -10.903  12.019  1.00  0.00     0.014 A 
HETATM   16  C   UNL     1      40.244 -10.731   8.650  1.00  0.00     0.020 A 
HETATM   17  C   UNL     1      41.394 -10.523   7.918  1.00  0.00     0.117 A 
HETATM   18  C   UNL     1      43.023 -10.824  12.611  1.00  0.00     0.004 A 
HETATM   19  C   UNL     1      44.149 -10.615  11.821  1.00  0.00     0.039 A 
ENDBRANCH   9  10
ENDBRANCH   8   9
ENDBRANCH   7   8
ENDBRANCH   6   7
ENDBRANCH   5   6
ENDBRANCH   2   5
BRANCH   1  20
HETATM   20  C   UNL     1      42.917 -16.210   5.047  1.00  0.00     0.102 A 
HETATM   21  N   UNL     1      43.481 -17.407   5.424  1.00  0.00    -0.351 N 
HETATM   22  C   UNL     1      43.692 -18.226   4.339  1.00  0.00     0.045 A 
HETATM   23  H   UNL     1      43.665 -17.687   6.373  1.00  0.00     0.166 HD
HETATM   24  C   UNL     1      44.139 -19.556   4.280  1.00  0.00     0.067 A 
HETATM   25  C   UNL     1      43.368 -17.487   3.206  1.00  0.00    -0.007 A 
HETATM   26  C   UNL     1      44.242 -20.149   3.015  1.00  0.00     0.070 A 
HETATM   27  C   UNL     1      43.945 -19.414   1.866  1.00  0.00     0.038 A 
HETATM   28  C   UNL     1      43.509 -18.085   1.943  1.00  0.00     0.016 A 
HETATM   29  C   UNL     1      42.923 -16.217   3.658  1.00  0.00     0.049 A 
BRANCH  26  30
HETATM   30  O   UNL     1      44.634 -21.440   2.778  1.00  0.00    -0.356 OA
HETATM   31  C   UNL     1      44.223 -22.012   1.543  1.00  0.00     0.210 C 
ENDBRANCH  26  30
ENDBRANCH   1  20
TORSDOF 8
ENDMDL
MODEL 3
REMARK VINA RESULT:      -8.9      1.563      2.505
REMARK  8 active torsions:
REMARK  status: ('A' for Active; 'I' for Inactive)
REMARK    1  A    between atoms: O_2  and  C_3 
REMARK    2  A    between atoms: C_11  and  C_12 
REMARK       I    between atoms: C_12  and  N_13 
REMARK    3  A    between atoms: N_13  and  C_14 
REMARK    4  A    between atoms: C_14  and  C_15 
REMARK    5  A    between atoms: C_15  and  C_16 
REMARK    6  A    between atoms: C_16  and  C_17 
REMARK    7  A    between atoms: C_17  and  O_18 
REMARK    8  A    between atoms: O_18  and  C_19 
ROOT
HETATM    1  C   UNL     1      45.819 -11.624   8.656  1.00  0.00     0.268 C 
HETATM    2  N   UNL     1      45.756 -12.780   7.924  1.00  0.00    -0.345 N 
HETATM    3  O   UNL     1      46.846 -10.956   8.530  1.00  0.00    -0.266 OA
HETATM    4  H   UNL     1      46.608 -12.914   7.396  1.00  0.00     0.163 HD
ENDROOT
BRANCH   2   5
HETATM    5  C   UNL     1      44.746 -13.801   7.797  1.00  0.00     0.217 C 
BRANCH   5   6
HETATM    6  C   UNL     1      44.255 -13.950   6.366  1.00  0.00    -0.085 C 
BRANCH   6   7
HETATM    7  C   UNL     1      43.834 -14.076   5.139  1.00  0.00    -0.078 C 
BRANCH   7   8
HETATM    8  C   UNL     1      43.342 -14.224   3.708  1.00  0.00     0.269 C 
BRANCH   8   9
HETATM    9  O   UNL     1      42.512 -15.373   3.625  1.00  0.00    -0.337 OA
BRANCH   9  10
HETATM   10  C   UNL     1      43.011 -16.484   2.978  1.00  0.00     0.099 A 
HETATM   11  C   UNL     1      43.371 -17.560   3.813  1.00  0.00     0.100 A 
HETATM   12  C   UNL     1      43.901 -18.721   3.204  1.00  0.00    -0.005 A 
HETATM   13  N   UNL     1      43.217 -17.497   5.157  1.00  0.00    -0.257 NA
HETATM   14  C   UNL     1      44.262 -19.803   4.019  1.00  0.00     0.015 A 
HETATM   15  C   UNL     1      44.063 -18.791   1.812  1.00  0.00     0.014 A 
HETATM   16  C   UNL     1      44.094 -19.724   5.394  1.00  0.00     0.020 A 
HETATM   17  C   UNL     1      43.570 -18.558   5.911  1.00  0.00     0.117 A 
HETATM   18  C   UNL     1      43.702 -17.716   1.008  1.00  0.00     0.004 A 
HETATM   19  C   UNL     1      43.177 -16.565   1.587  1.00  0.00     0.039 A 
ENDBRANCH   9  10
ENDBRANCH   8   9
ENDBRANCH   7   8
ENDBRANCH   6   7
ENDBRANCH   5   6
ENDBRANCH   2   5
BRANCH   1  20
HETATM   20  C   UNL     1      44.762 -11.242   9.566  1.00  0.00     0.102 A 
HETATM   21  N   UNL     1      43.429 -11.045   9.287  1.00  0.00    -0.351 N 
HETATM   22  C   UNL     1      42.705 -10.819  10.436  1.00  0.00     0.045 A 
HETATM   23  H   UNL     1      43.011 -11.115   8.374  1.00  0.00     0.166 HD
HETATM   24  C   UNL     1      41.320 -10.681  10.622  1.00  0.00     0.067 A 
HETATM   25  C   UNL     1      43.619 -10.744  11.481  1.00  0.00    -0.007 A 
HETATM   26  C   UNL     1      40.860 -10.472  11.928  1.00  0.00     0.070 A 
HETATM   27  C   UNL     1      41.764 -10.369  12.986  1.00  0.00     0.038 A 
HETATM   28  C   UNL     1      43.144 -10.502  12.781  1.00  0.00     0.016 A 
HETATM   29  C   UNL     1      44.903 -10.971  10.920  1.00  0.00     0.049 A 
BRANCH  26  30
HETATM   30  O   UNL     1      39.545 -10.343  12.291  1.00  0.00    -0.356 OA
HETATM   31  C   UNL     1      39.070  -9.020  12.499  1.00  0.00     0.210 C 
ENDBRANCH  26  30
ENDBRANCH   1  20
TORSDOF 8
ENDMDL
MODEL 4
REMARK VINA RESULT:      -8.7      2.113      9.890
REMARK  8 active torsions:
REMARK  status: ('A' for Active; 'I' for Inactive)
REMARK    1  A    between atoms: O_2  and  C_3 
REMARK    2  A    between atoms: C_11  and  C_12 
REMARK       I    between atoms: C_12  and  N_13 
REMARK    3  A    between atoms: N_13  and  C_14 
REMARK    4  A    between atoms: C_14  and  C_15 
REMARK    5  A    between atoms: C_15  and  C_16 
REMARK    6  A    between atoms: C_16  and  C_17 
REMARK    7  A    between atoms: C_17  and  O_18 
REMARK    8  A    between atoms: O_18  and  C_19 
ROOT
HETATM    1  C   UNL     1      43.056 -16.559   6.893  1.00  0.00     0.268 C 
HETATM    2  N   UNL     1      43.827 -15.534   7.375  1.00  0.00    -0.345 N 
HETATM    3  O   UNL     1      42.533 -17.289   7.736  1.00  0.00    -0.266 OA
HETATM    4  H   UNL     1      43.861 -15.559   8.385  1.00  0.00     0.163 HD
ENDROOT
BRANCH   2   5
HETATM    5  C   UNL     1      44.579 -14.489   6.725  1.00  0.00     0.217 C 
BRANCH   5   6
HETATM    6  C   UNL     1      45.048 -13.425   7.704  1.00  0.00    -0.085 C 
BRANCH   6   7
HETATM    7  C   UNL     1      45.451 -12.513   8.544  1.00  0.00    -0.078 C 
BRANCH   7   8
HETATM    8  C   UNL     1      45.920 -11.449   9.523  1.00  0.00     0.269 C 
BRANCH   8   9
HETATM    9  O   UNL     1      44.952 -10.412   9.572  1.00  0.00    -0.337 OA
BRANCH   9  10
HETATM   10  C   UNL     1      43.859 -10.587  10.395  1.00  0.00     0.099 A 
HETATM   11  C   UNL     1      42.612 -10.642   9.742  1.00  0.00     0.100 A 
HETATM   12  C   UNL     1      41.455 -10.807  10.538  1.00  0.00    -0.005 A 
HETATM   13  N   UNL     1      42.512 -10.542   8.395  1.00  0.00    -0.257 NA
HETATM   14  C   UNL     1      40.206 -10.867   9.906  1.00  0.00     0.015 A 
HETATM   15  C   UNL     1      41.554 -10.909  11.934  1.00  0.00     0.014 A 
HETATM   16  C   UNL     1      40.121 -10.769   8.524  1.00  0.00     0.020 A 
HETATM   17  C   UNL     1      41.294 -10.609   7.818  1.00  0.00     0.117 A 
HETATM   18  C   UNL     1      42.795 -10.851  12.557  1.00  0.00     0.004 A 
HETATM   19  C   UNL     1      43.946 -10.690  11.792  1.00  0.00     0.039 A 
ENDBRANCH   9  10
ENDBRANCH   8   9
ENDBRANCH   7   8
ENDBRANCH   6   7
ENDBRANCH   5   6
ENDBRANCH   2   5
BRANCH   1  20
HETATM   20  C   UNL     1      42.913 -16.800   5.474  1.00  0.00     0.102 A 
HETATM   21  N   UNL     1      41.885 -16.418   4.645  1.00  0.00    -0.351 N 
HETATM   22  C   UNL     1      42.165 -16.712   3.330  1.00  0.00     0.045 A 
HETATM   23  H   UNL     1      41.055 -15.929   4.938  1.00  0.00     0.166 HD
HETATM   24  C   UNL     1      41.454 -16.400   2.160  1.00  0.00     0.067 A 
HETATM   25  C   UNL     1      43.361 -17.420   3.321  1.00  0.00    -0.007 A 
HETATM   26  C   UNL     1      41.999 -16.820   0.940  1.00  0.00     0.070 A 
HETATM   27  C   UNL     1      43.186 -17.555   0.913  1.00  0.00     0.038 A 
HETATM   28  C   UNL     1      43.878 -17.863   2.091  1.00  0.00     0.016 A 
HETATM   29  C   UNL     1      43.799 -17.504   4.669  1.00  0.00     0.049 A 
BRANCH  26  30
HETATM   30  O   UNL     1      41.453 -16.580  -0.294  1.00  0.00    -0.356 OA
HETATM   31  C   UNL     1      41.197 -15.221  -0.622  1.00  0.00     0.210 C 
ENDBRANCH  26  30
ENDBRANCH   1  20
TORSDOF 8
ENDMDL
MODEL 5
REMARK VINA RESULT:      -8.5      4.192      7.663
REMARK  8 active torsions:
REMARK  status: ('A' for Active; 'I' for Inactive)
REMARK    1  A    between atoms: O_2  and  C_3 
REMARK    2  A    between atoms: C_11  and  C_12 
REMARK       I    between atoms: C_12  and  N_13 
REMARK    3  A    between atoms: N_13  and  C_14 
REMARK    4  A    between atoms: C_14  and  C_15 
REMARK    5  A    between atoms: C_15  and  C_16 
REMARK    6  A    between atoms: C_16  and  C_17 
REMARK    7  A    between atoms: C_17  and  O_18 
REMARK    8  A    between atoms: O_18  and  C_19 
ROOT
HETATM    1  C   UNL     1      40.761 -13.496   5.785  1.00  0.00     0.268 C 
HETATM    2  N   UNL     1      41.946 -13.198   6.403  1.00  0.00    -0.345 N 
HETATM    3  O   UNL     1      39.737 -13.227   6.414  1.00  0.00    -0.266 OA
HETATM    4  H   UNL     1      41.781 -12.812   7.323  1.00  0.00     0.163 HD
ENDROOT
BRANCH   2   5
HETATM    5  C   UNL     1      43.323 -13.352   6.001  1.00  0.00     0.217 C 
BRANCH   5   6
HETATM    6  C   UNL     1      43.836 -14.763   6.234  1.00  0.00    -0.085 C 
BRANCH   6   7
HETATM    7  C   UNL     1      44.276 -15.974   6.434  1.00  0.00    -0.078 C 
BRANCH   7   8
HETATM    8  C   UNL     1      44.790 -17.386   6.667  1.00  0.00     0.269 C 
BRANCH   8   9
HETATM    9  O   UNL     1      43.840 -18.309   6.155  1.00  0.00    -0.337 OA
BRANCH   9  10
HETATM   10  C   UNL     1      43.925 -18.648   4.821  1.00  0.00     0.099 A 
HETATM   11  C   UNL     1      44.216 -20.001   4.558  1.00  0.00     0.100 A 
HETATM   12  C   UNL     1      44.327 -20.403   3.206  1.00  0.00    -0.005 A 
HETATM   13  N   UNL     1      44.383 -20.898   5.558  1.00  0.00    -0.257 NA
HETATM   14  C   UNL     1      44.614 -21.746   2.925  1.00  0.00     0.015 A 
HETATM   15  C   UNL     1      44.157 -19.477   2.166  1.00  0.00     0.014 A 
HETATM   16  C   UNL     1      44.777 -22.654   3.962  1.00  0.00     0.020 A 
HETATM   17  C   UNL     1      44.652 -22.184   5.252  1.00  0.00     0.117 A 
HETATM   18  C   UNL     1      43.871 -18.146   2.450  1.00  0.00     0.004 A 
HETATM   19  C   UNL     1      43.755 -17.731   3.772  1.00  0.00     0.039 A 
ENDBRANCH   9  10
ENDBRANCH   8   9
ENDBRANCH   7   8
ENDBRANCH   6   7
ENDBRANCH   5   6
ENDBRANCH   2   5
BRANCH   1  20
HETATM   20  C   UNL     1      40.720 -14.142   4.491  1.00  0.00     0.102 A 
HETATM   21  N   UNL     1      40.821 -13.563   3.248  1.00  0.00    -0.351 N 
HETATM   22  C   UNL     1      40.873 -14.514   2.254  1.00  0.00     0.045 A 
HETATM   23  H   UNL     1      40.910 -12.575   3.073  1.00  0.00     0.166 HD
HETATM   24  C   UNL     1      41.083 -14.373   0.873  1.00  0.00     0.067 A 
HETATM   25  C   UNL     1      40.673 -15.747   2.866  1.00  0.00    -0.007 A 
HETATM   26  C   UNL     1      41.102 -15.539   0.099  1.00  0.00     0.070 A 
HETATM   27  C   UNL     1      40.879 -16.783   0.691  1.00  0.00     0.038 A 
HETATM   28  C   UNL     1      40.662 -16.905   2.070  1.00  0.00     0.016 A 
HETATM   29  C   UNL     1      40.539 -15.498   4.257  1.00  0.00     0.049 A 
BRANCH  26  30
HETATM   30  O   UNL     1      41.320 -15.586  -1.253  1.00  0.00    -0.356 OA
HETATM   31  C   UNL     1      40.701 -14.572  -2.033  1.00  0.00     0.210 C 
ENDBRANCH  26  30
ENDBRANCH   1  20
TORSDOF 8
ENDMDL
MODEL 6
REMARK VINA RESULT:      -8.3      4.660      6.838
REMARK  8 active torsions:
REMARK  status: ('A' for Active; 'I' for Inactive)
REMARK    1  A    between atoms: O_2  and  C_3 
REMARK    2  A    between atoms: C_11  and  C_12 
REMARK       I    between atoms: C_12  and  N_13 
REMARK    3  A    between atoms: N_13  and  C_14 
REMARK    4  A    between atoms: C_14  and  C_15 
REMARK    5  A    between atoms: C_15  and  C_16 
REMARK    6  A    between atoms: C_16  and  C_17 
REMARK    7  A    between atoms: C_17  and  O_18 
REMARK    8  A    between atoms: O_18  and  C_19 
ROOT
HETATM    1  C   UNL     1      39.368 -15.147   1.660  1.00  0.00     0.268 C 
HETATM    2  N   UNL     1      39.860 -15.046   0.385  1.00  0.00    -0.345 N 
HETATM    3  O   UNL     1      38.153 -15.319   1.763  1.00  0.00    -0.266 OA
HETATM    4  H   UNL     1      39.110 -15.108  -0.291  1.00  0.00     0.163 HD
ENDROOT
BRANCH   2   5
HETATM    5  C   UNL     1      41.191 -14.854  -0.136  1.00  0.00     0.217 C 
BRANCH   5   6
HETATM    6  C   UNL     1      42.192 -15.821   0.474  1.00  0.00    -0.085 C 
BRANCH   6   7
HETATM    7  C   UNL     1      43.051 -16.651   0.997  1.00  0.00    -0.078 C 
BRANCH   7   8
HETATM    8  C   UNL     1      44.053 -17.618   1.607  1.00  0.00     0.269 C 
BRANCH   8   9
HETATM    9  O   UNL     1      43.388 -18.413   2.578  1.00  0.00    -0.337 OA
BRANCH   9  10
HETATM   10  C   UNL     1      43.757 -19.738   2.690  1.00  0.00     0.099 A 
HETATM   11  C   UNL     1      43.948 -20.204   4.005  1.00  0.00     0.100 A 
HETATM   12  C   UNL     1      44.339 -21.552   4.178  1.00  0.00    -0.005 A 
HETATM   13  N   UNL     1      43.763 -19.398   5.077  1.00  0.00    -0.257 NA
HETATM   14  C   UNL     1      44.531 -22.035   5.480  1.00  0.00     0.015 A 
HETATM   15  C   UNL     1      44.534 -22.391   3.070  1.00  0.00     0.014 A 
HETATM   16  C   UNL     1      44.333 -21.198   6.568  1.00  0.00     0.020 A 
HETATM   17  C   UNL     1      43.951 -19.897   6.317  1.00  0.00     0.117 A 
HETATM   18  C   UNL     1      44.341 -21.908   1.781  1.00  0.00     0.004 A 
HETATM   19  C   UNL     1      43.954 -20.585   1.589  1.00  0.00     0.039 A 
ENDBRANCH   9  10
ENDBRANCH   8   9
ENDBRANCH   7   8
ENDBRANCH   6   7
ENDBRANCH   5   6
ENDBRANCH   2   5
BRANCH   1  20
HETATM   20  C   UNL     1      40.224 -15.003   2.817  1.00  0.00     0.102 A 
HETATM   21  N   UNL     1      40.558 -15.955   3.753  1.00  0.00    -0.351 N 
HETATM   22  C   UNL     1      41.503 -15.482   4.634  1.00  0.00     0.045 A 
HETATM   23  H   UNL     1      40.211 -16.900   3.767  1.00  0.00     0.166 HD
HETATM   24  C   UNL     1      42.195 -16.143   5.662  1.00  0.00     0.067 A 
HETATM   25  C   UNL     1      41.696 -14.138   4.335  1.00  0.00    -0.007 A 
HETATM   26  C   UNL     1      43.127 -15.399   6.396  1.00  0.00     0.070 A 
HETATM   27  C   UNL     1      43.317 -14.042   6.127  1.00  0.00     0.038 A 
HETATM   28  C   UNL     1      42.611 -13.397   5.103  1.00  0.00     0.016 A 
HETATM   29  C   UNL     1      40.864 -13.841   3.225  1.00  0.00     0.049 A 
BRANCH  26  30
HETATM   30  O   UNL     1      43.906 -15.890   7.411  1.00  0.00    -0.356 OA
HETATM   31  C   UNL     1      43.368 -16.972   8.159  1.00  0.00     0.210 C 
ENDBRANCH  26  30
ENDBRANCH   1  20
TORSDOF 8
ENDMDL
MODEL 7
REMARK VINA RESULT:      -8.3      6.608     10.209
REMARK  8 active torsions:
REMARK  status: ('A' for Active; 'I' for Inactive)
REMARK    1  A    between atoms: O_2  and  C_3 
REMARK    2  A    between atoms: C_11  and  C_12 
REMARK       I    between atoms: C_12  and  N_13 
REMARK    3  A    between atoms: N_13  and  C_14 
REMARK    4  A    between atoms: C_14  and  C_15 
REMARK    5  A    between atoms: C_15  and  C_16 
REMARK    6  A    between atoms: C_16  and  C_17 
REMARK    7  A    between atoms: C_17  and  O_18 
REMARK    8  A    between atoms: O_18  and  C_19 
ROOT
HETATM    1  C   UNL     1      41.969 -12.388   0.175  1.00  0.00     0.268 C 
HETATM    2  N   UNL     1      41.711 -12.326   1.519  1.00  0.00    -0.345 N 
HETATM    3  O   UNL     1      42.893 -11.685  -0.235  1.00  0.00    -0.266 OA
HETATM    4  H   UNL     1      42.332 -11.668   1.971  1.00  0.00     0.163 HD
ENDROOT
BRANCH   2   5
HETATM    5  C   UNL     1      40.742 -12.987   2.359  1.00  0.00     0.217 C 
BRANCH   5   6
HETATM    6  C   UNL     1      40.926 -14.495   2.373  1.00  0.00    -0.085 C 
BRANCH   6   7
HETATM    7  C   UNL     1      41.083 -15.789   2.384  1.00  0.00    -0.078 C 
BRANCH   7   8
HETATM    8  C   UNL     1      41.265 -17.299   2.397  1.00  0.00     0.269 C 
BRANCH   8   9
HETATM    9  O   UNL     1      42.638 -17.596   2.189  1.00  0.00    -0.337 OA
BRANCH   9  10
HETATM   10  C   UNL     1      43.339 -18.169   3.230  1.00  0.00     0.099 A 
HETATM   11  C   UNL     1      43.706 -19.516   3.044  1.00  0.00     0.100 A 
HETATM   12  C   UNL     1      44.415 -20.158   4.086  1.00  0.00    -0.005 A 
HETATM   13  N   UNL     1      43.396 -20.185   1.908  1.00  0.00    -0.257 NA
HETATM   14  C   UNL     1      44.791 -21.498   3.918  1.00  0.00     0.015 A 
HETATM   15  C   UNL     1      44.737 -19.470   5.266  1.00  0.00     0.014 A 
HETATM   16  C   UNL     1      44.470 -22.168   2.745  1.00  0.00     0.020 A 
HETATM   17  C   UNL     1      43.778 -21.472   1.777  1.00  0.00     0.117 A 
HETATM   18  C   UNL     1      44.364 -18.141   5.427  1.00  0.00     0.004 A 
HETATM   19  C   UNL     1      43.667 -17.490   4.414  1.00  0.00     0.039 A 
ENDBRANCH   9  10
ENDBRANCH   8   9
ENDBRANCH   7   8
ENDBRANCH   6   7
ENDBRANCH   5   6
ENDBRANCH   2   5
BRANCH   1  20
HETATM   20  C   UNL     1      41.163 -13.193  -0.717  1.00  0.00     0.102 A 
HETATM   21  N   UNL     1      39.863 -12.982  -1.113  1.00  0.00    -0.351 N 
HETATM   22  C   UNL     1      39.478 -13.889  -2.074  1.00  0.00     0.045 A 
HETATM   23  H   UNL     1      39.275 -12.228  -0.797  1.00  0.00     0.166 HD
HETATM   24  C   UNL     1      38.294 -13.969  -2.824  1.00  0.00     0.067 A 
HETATM   25  C   UNL     1      40.524 -14.795  -2.215  1.00  0.00    -0.007 A 
HETATM   26  C   UNL     1      38.187 -15.007  -3.757  1.00  0.00     0.070 A 
HETATM   27  C   UNL     1      39.215 -15.941  -3.895  1.00  0.00     0.038 A 
HETATM   28  C   UNL     1      40.388 -15.851  -3.133  1.00  0.00     0.016 A 
HETATM   29  C   UNL     1      41.554 -14.374  -1.334  1.00  0.00     0.049 A 
BRANCH  26  30
HETATM   30  O   UNL     1      37.117 -15.217  -4.587  1.00  0.00    -0.356 OA
HETATM   31  C   UNL     1      36.171 -14.161  -4.683  1.00  0.00     0.210 C 
ENDBRANCH  26  30
ENDBRANCH   1  20
TORSDOF 8
ENDMDL
MODEL 8
REMARK VINA RESULT:      -8.3      4.837      6.612
REMARK  8 active torsions:
REMARK  status: ('A' for Active; 'I' for Inactive)
REMARK    1  A    between atoms: O_2  and  C_3 
REMARK    2  A    between atoms: C_11  and  C_12 
REMARK       I    between atoms: C_12  and  N_13 
REMARK    3  A    between atoms: N_13  and  C_14 
REMARK    4  A    between atoms: C_14  and  C_15 
REMARK    5  A    between atoms: C_15  and  C_16 
REMARK    6  A    between atoms: C_16  and  C_17 
REMARK    7  A    between atoms: C_17  and  O_18 
REMARK    8  A    between atoms: O_18  and  C_19 
ROOT
HETATM    1  C   UNL     1      39.673 -13.346   3.213  1.00  0.00     0.268 C 
HETATM    2  N   UNL     1      39.121 -14.034   2.166  1.00  0.00    -0.345 N 
HETATM    3  O   UNL     1      39.507 -12.126   3.210  1.00  0.00    -0.266 OA
HETATM    4  H   UNL     1      38.668 -13.400   1.521  1.00  0.00     0.163 HD
ENDROOT
BRANCH   2   5
HETATM    5  C   UNL     1      39.092 -15.435   1.825  1.00  0.00     0.217 C 
BRANCH   5   6
HETATM    6  C   UNL     1      40.469 -15.968   1.466  1.00  0.00    -0.085 C 
BRANCH   6   7
HETATM    7  C   UNL     1      41.650 -16.426   1.157  1.00  0.00    -0.078 C 
BRANCH   7   8
HETATM    8  C   UNL     1      43.028 -16.959   0.798  1.00  0.00     0.269 C 
BRANCH   8   9
HETATM    9  O   UNL     1      43.108 -18.322   1.189  1.00  0.00    -0.337 OA
BRANCH   9  10
HETATM   10  C   UNL     1      43.623 -18.606   2.436  1.00  0.00     0.099 A 
HETATM   11  C   UNL     1      43.946 -19.958   2.664  1.00  0.00     0.100 A 
HETATM   12  C   UNL     1      44.466 -20.309   3.932  1.00  0.00    -0.005 A 
HETATM   13  N   UNL     1      43.772 -20.900   1.707  1.00  0.00    -0.257 NA
HETATM   14  C   UNL     1      44.796 -21.649   4.176  1.00  0.00     0.015 A 
HETATM   15  C   UNL     1      44.647 -19.337   4.927  1.00  0.00     0.014 A 
HETATM   16  C   UNL     1      44.616 -22.602   3.183  1.00  0.00     0.020 A 
HETATM   17  C   UNL     1      44.105 -22.180   1.974  1.00  0.00     0.117 A 
HETATM   18  C   UNL     1      44.320 -18.009   4.680  1.00  0.00     0.004 A 
HETATM   19  C   UNL     1      43.809 -17.642   3.439  1.00  0.00     0.039 A 
ENDBRANCH   9  10
ENDBRANCH   8   9
ENDBRANCH   7   8
ENDBRANCH   6   7
ENDBRANCH   5   6
ENDBRANCH   2   5
BRANCH   1  20
HETATM   20  C   UNL     1      40.454 -14.012   4.233  1.00  0.00     0.102 A 
HETATM   21  N   UNL     1      40.124 -15.130   4.963  1.00  0.00    -0.351 N 
HETATM   22  C   UNL     1      41.177 -15.547   5.745  1.00  0.00     0.045 A 
HETATM   23  H   UNL     1      39.251 -15.628   4.899  1.00  0.00     0.166 HD
HETATM   24  C   UNL     1      41.312 -16.689   6.550  1.00  0.00     0.067 A 
HETATM   25  C   UNL     1      42.181 -14.594   5.610  1.00  0.00    -0.007 A 
HETATM   26  C   UNL     1      42.524 -16.864   7.228  1.00  0.00     0.070 A 
HETATM   27  C   UNL     1      43.535 -15.906   7.125  1.00  0.00     0.038 A 
HETATM   28  C   UNL     1      43.380 -14.768   6.323  1.00  0.00     0.016 A 
HETATM   29  C   UNL     1      41.703 -13.621   4.695  1.00  0.00     0.049 A 
BRANCH  26  30
HETATM   30  O   UNL     1      42.834 -17.929   8.032  1.00  0.00    -0.356 OA
HETATM   31  C   UNL     1      44.210 -18.119   8.333  1.00  0.00     0.210 C 
ENDBRANCH  26  30
ENDBRANCH   1  20
TORSDOF 8
ENDMDL
MODEL 9
REMARK VINA RESULT:      -8.3      4.716      8.961
REMARK  8 active torsions:
REMARK  status: ('A' for Active; 'I' for Inactive)
REMARK    1  A    between atoms: O_2  and  C_3 
REMARK    2  A    between atoms: C_11  and  C_12 
REMARK       I    between atoms: C_12  and  N_13 
REMARK    3  A    between atoms: N_13  and  C_14 
REMARK    4  A    between atoms: C_14  and  C_15 
REMARK    5  A    between atoms: C_15  and  C_16 
REMARK    6  A    between atoms: C_16  and  C_17 
REMARK    7  A    between atoms: C_17  and  O_18 
REMARK    8  A    between atoms: O_18  and  C_19 
ROOT
HETATM    1  C   UNL     1      42.839 -14.598   5.837  1.00  0.00     0.268 C 
HETATM    2  N   UNL     1      41.556 -14.225   6.140  1.00  0.00    -0.345 N 
HETATM    3  O   UNL     1      43.736 -13.982   6.414  1.00  0.00    -0.266 OA
HETATM    4  H   UNL     1      41.555 -13.456   6.797  1.00  0.00     0.163 HD
ENDROOT
BRANCH   2   5
HETATM    5  C   UNL     1      40.269 -14.698   5.692  1.00  0.00     0.217 C 
BRANCH   5   6
HETATM    6  C   UNL     1      40.140 -14.663   4.178  1.00  0.00    -0.085 C 
BRANCH   6   7
HETATM    7  C   UNL     1      40.028 -14.634   2.879  1.00  0.00    -0.078 C 
BRANCH   7   8
HETATM    8  C   UNL     1      39.898 -14.599   1.365  1.00  0.00     0.269 C 
BRANCH   8   9
HETATM    9  O   UNL     1      41.196 -14.525   0.795  1.00  0.00    -0.337 OA
BRANCH   9  10
HETATM   10  C   UNL     1      41.299 -14.545  -0.580  1.00  0.00     0.099 A 
HETATM   11  C   UNL     1      41.811 -13.371  -1.167  1.00  0.00     0.100 A 
HETATM   12  C   UNL     1      41.926 -13.332  -2.576  1.00  0.00    -0.005 A 
HETATM   13  N   UNL     1      42.186 -12.309  -0.415  1.00  0.00    -0.257 NA
HETATM   14  C   UNL     1      42.436 -12.172  -3.177  1.00  0.00     0.015 A 
HETATM   15  C   UNL     1      41.537 -14.429  -3.359  1.00  0.00     0.014 A 
HETATM   16  C   UNL     1      42.821 -11.094  -2.392  1.00  0.00     0.020 A 
HETATM   17  C   UNL     1      42.678 -11.211  -1.026  1.00  0.00     0.117 A 
HETATM   18  C   UNL     1      41.034 -15.577  -2.758  1.00  0.00     0.004 A 
HETATM   19  C   UNL     1      40.914 -15.637  -1.373  1.00  0.00     0.039 A 
ENDBRANCH   9  10
ENDBRANCH   8   9
ENDBRANCH   7   8
ENDBRANCH   6   7
ENDBRANCH   5   6
ENDBRANCH   2   5
BRANCH   1  20
HETATM   20  C   UNL     1      43.120 -15.621   4.853  1.00  0.00     0.102 A 
HETATM   21  N   UNL     1      43.109 -16.987   5.018  1.00  0.00    -0.351 N 
HETATM   22  C   UNL     1      43.298 -17.637   3.819  1.00  0.00     0.045 A 
HETATM   23  H   UNL     1      42.927 -17.465   5.884  1.00  0.00     0.166 HD
HETATM   24  C   UNL     1      43.249 -19.007   3.514  1.00  0.00     0.067 A 
HETATM   25  C   UNL     1      43.563 -16.659   2.867  1.00  0.00    -0.007 A 
HETATM   26  C   UNL     1      43.467 -19.381   2.183  1.00  0.00     0.070 A 
HETATM   27  C   UNL     1      43.759 -18.417   1.217  1.00  0.00     0.038 A 
HETATM   28  C   UNL     1      43.812 -17.054   1.541  1.00  0.00     0.016 A 
HETATM   29  C   UNL     1      43.488 -15.408   3.531  1.00  0.00     0.049 A 
BRANCH  26  30
HETATM   30  O   UNL     1      43.429 -20.666   1.707  1.00  0.00    -0.356 OA
HETATM   31  C   UNL     1      44.265 -21.611   2.361  1.00  0.00     0.210 C 
ENDBRANCH  26  30
ENDBRANCH   1  20
TORSDOF 8
ENDMDL
MODEL 10
REMARK VINA RESULT:      -8.3      2.294     10.636
REMARK  8 active torsions:
REMARK  status: ('A' for Active; 'I' for Inactive)
REMARK    1  A    between atoms: O_2  and  C_3 
REMARK    2  A    between atoms: C_11  and  C_12 
REMARK       I    between atoms: C_12  and  N_13 
REMARK    3  A    between atoms: N_13  and  C_14 
REMARK    4  A    between atoms: C_14  and  C_15 
REMARK    5  A    between atoms: C_15  and  C_16 
REMARK    6  A    between atoms: C_16  and  C_17 
REMARK    7  A    between atoms: C_17  and  O_18 
REMARK    8  A    between atoms: O_18  and  C_19 
ROOT
HETATM    1  C   UNL     1      40.968 -16.323   6.179  1.00  0.00     0.268 C 
HETATM    2  N   UNL     1      41.157 -14.971   6.298  1.00  0.00    -0.345 N 
HETATM    3  O   UNL     1      40.165 -16.831   6.962  1.00  0.00    -0.266 OA
HETATM    4  H   UNL     1      40.600 -14.599   7.057  1.00  0.00     0.163 HD
ENDROOT
BRANCH   2   5
HETATM    5  C   UNL     1      41.986 -14.034   5.581  1.00  0.00     0.217 C 
BRANCH   5   6
HETATM    6  C   UNL     1      41.722 -12.596   5.999  1.00  0.00    -0.085 C 
BRANCH   6   7
HETATM    7  C   UNL     1      41.496 -11.363   6.356  1.00  0.00    -0.078 C 
BRANCH   7   8
HETATM    8  C   UNL     1      41.232  -9.925   6.774  1.00  0.00     0.269 C 
BRANCH   8   9
HETATM    9  O   UNL     1      42.159  -9.565   7.787  1.00  0.00    -0.337 OA
BRANCH   9  10
HETATM   10  C   UNL     1      41.964 -10.080   9.052  1.00  0.00     0.099 A 
HETATM   11  C   UNL     1      43.078 -10.729   9.620  1.00  0.00     0.100 A 
HETATM   12  C   UNL     1      42.930 -11.287  10.912  1.00  0.00    -0.005 A 
HETATM   13  N   UNL     1      44.257 -10.820   8.962  1.00  0.00    -0.257 NA
HETATM   14  C   UNL     1      44.028 -11.934  11.494  1.00  0.00     0.015 A 
HETATM   15  C   UNL     1      41.709 -11.196  11.597  1.00  0.00     0.014 A 
HETATM   16  C   UNL     1      45.232 -12.015  10.808  1.00  0.00     0.020 A 
HETATM   17  C   UNL     1      45.296 -11.445   9.554  1.00  0.00     0.117 A 
HETATM   18  C   UNL     1      40.623 -10.552  11.017  1.00  0.00     0.004 A 
HETATM   19  C   UNL     1      40.748  -9.994   9.748  1.00  0.00     0.039 A 
ENDBRANCH   9  10
ENDBRANCH   8   9
ENDBRANCH   7   8
ENDBRANCH   6   7
ENDBRANCH   5   6
ENDBRANCH   2   5
BRANCH   1  20
HETATM   20  C   UNL     1      41.714 -17.113   5.224  1.00  0.00     0.102 A 
HETATM   21  N   UNL     1      42.737 -18.000   5.467  1.00  0.00    -0.351 N 
HETATM   22  C   UNL     1      43.109 -18.662   4.319  1.00  0.00     0.045 A 
HETATM   23  H   UNL     1      43.131 -18.197   6.372  1.00  0.00     0.166 HD
HETATM   24  C   UNL     1      44.020 -19.714   4.134  1.00  0.00     0.067 A 
HETATM   25  C   UNL     1      42.388 -18.095   3.275  1.00  0.00    -0.007 A 
HETATM   26  C   UNL     1      44.185 -20.207   2.835  1.00  0.00     0.070 A 
HETATM   27  C   UNL     1      43.489 -19.634   1.769  1.00  0.00     0.038 A 
HETATM   28  C   UNL     1      42.589 -18.579   1.970  1.00  0.00     0.016 A 
HETATM   29  C   UNL     1      41.550 -17.102   3.846  1.00  0.00     0.049 A 
BRANCH  26  30
HETATM   30  O   UNL     1      45.010 -21.243   2.481  1.00  0.00    -0.356 OA
HETATM   31  C   UNL     1      44.694 -22.519   3.020  1.00  0.00     0.210 C 
ENDBRANCH  26  30
ENDBRANCH   1  20
TORSDOF 8
ENDMDL
