MODEL 1
REMARK VINA RESULT:      -9.3      0.000      0.000
REMARK  7 active torsions:
REMARK  status: ('A' for Active; 'I' for Inactive)
REMARK    1  A    between atoms: C_4  and  C_14 
REMARK    2  A    between atoms: C_7  and  C_8 
REMARK       I    between atoms: C_14  and  N_16 
REMARK    3  A    between atoms: N_16  and  C_17 
REMARK    4  A    between atoms: C_17  and  C_18 
REMARK    5  A    between atoms: C_22  and  C_24 
REMARK       I    between atoms: C_24  and  N_26 
REMARK    6  A    between atoms: N_26  and  C_27 
REMARK    7  A    between atoms: C_27  and  C_28 
ROOT
HETATM    1  C   UNL     1      40.911 -12.403   4.709  1.00  0.00    -0.040 A 
HETATM    2  C   UNL     1      39.578 -12.653   5.056  1.00  0.00     0.009 A 
HETATM    3  C   UNL     1      39.104 -12.316   6.324  1.00  0.00     0.002 A 
HETATM    4  C   UNL     1      39.952 -11.707   7.250  1.00  0.00     0.017 A 
HETATM    5  C   UNL     1      41.281 -11.429   6.912  1.00  0.00     0.032 A 
HETATM    6  C   UNL     1      41.760 -11.799   5.650  1.00  0.00     0.026 A 
ENDROOT
BRANCH   1   7
HETATM    7  C   UNL     1      41.428 -12.721   3.328  1.00  0.00     0.161 C 
BRANCH   7   8
HETATM    8  N   UNL     1      41.830 -14.106   3.241  1.00  0.00    -0.353 N 
HETATM    9  C   UNL     1      43.150 -14.492   3.299  1.00  0.00     0.251 C 
HETATM   10  O   UNL     1      44.091 -13.719   3.442  1.00  0.00    -0.268 OA
HETATM   11  H   UNL     1      41.104 -14.807   3.163  1.00  0.00     0.163 HD
BRANCH   9  12
HETATM   12  C   UNL     1      43.395 -15.950   3.180  1.00  0.00     0.032 A 
HETATM   13  C   UNL     1      43.287 -16.791   4.295  1.00  0.00     0.024 A 
HETATM   14  C   UNL     1      43.509 -18.175   4.172  1.00  0.00    -0.050 A 
HETATM   15  C   UNL     1      43.368 -19.042   5.397  1.00  0.00     0.049 C 
HETATM   16  C   UNL     1      43.828 -18.708   2.905  1.00  0.00    -0.017 A 
HETATM   17  C   UNL     1      43.927 -17.852   1.795  1.00  0.00     0.014 A 
HETATM   18  C   UNL     1      43.703 -16.480   1.928  1.00  0.00     0.018 A 
BRANCH  16  19
HETATM   19  C   UNL     1      44.038 -20.128   2.701  1.00  0.00     0.011 A 
HETATM   20  C   UNL     1      43.503 -21.018   1.745  1.00  0.00     0.152 A 
HETATM   21  N   UNL     1      43.954 -22.265   1.899  1.00  0.00    -0.187 NA
HETATM   22  N   UNL     1      44.787 -22.173   2.949  1.00  0.00    -0.289 N 
HETATM   23  H   UNL     1      45.262 -23.015   3.262  1.00  0.00     0.188 HD
HETATM   24  C   UNL     1      44.877 -20.912   3.463  1.00  0.00     0.123 A 
ENDBRANCH  16  19
ENDBRANCH   9  12
ENDBRANCH   7   8
ENDBRANCH   1   7
BRANCH   5  25
HETATM   25  C   UNL     1      42.143 -10.753   7.922  1.00  0.00     0.251 C 
HETATM   26  O   UNL     1      42.163  -9.527   8.027  1.00  0.00    -0.268 OA
HETATM   27  N   UNL     1      42.925 -11.544   8.739  1.00  0.00    -0.355 N 
HETATM   28  H   UNL     1      43.025 -12.524   8.483  1.00  0.00     0.162 HD
BRANCH  27  29
HETATM   29  C   UNL     1      43.969 -10.989   9.593  1.00  0.00     0.155 C 
BRANCH  29  30
HETATM   30  C   UNL     1      43.745 -11.203  11.112  1.00  0.00     0.203 C 
HETATM   31  C   UNL     1      43.651  -9.890  11.884  1.00  0.00     0.036 C 
HETATM   32  C   UNL     1      42.175  -9.535  11.823  1.00  0.00     0.029 C 
HETATM   33  C   UNL     1      41.488 -10.869  12.024  1.00  0.00     0.233 C 
HETATM   34  N   UNL     1      42.409 -11.852  11.387  1.00  0.00    -0.069 N 
HETATM   35  H   UNL     1      42.002 -12.201  10.490  1.00  0.00     0.277 HD
HETATM   36  H   UNL     1      42.513 -12.703  11.951  1.00  0.00     0.277 HD
ENDBRANCH  29  30
ENDBRANCH  27  29
ENDBRANCH   5  25
TORSDOF 7
ENDMDL
MODEL 2
REMARK VINA RESULT:      -9.0      4.330      8.312
REMARK  7 active torsions:
REMARK  status: ('A' for Active; 'I' for Inactive)
REMARK    1  A    between atoms: C_4  and  C_14 
REMARK    2  A    between atoms: C_7  and  C_8 
REMARK       I    between atoms: C_14  and  N_16 
REMARK    3  A    between atoms: N_16  and  C_17 
REMARK    4  A    between atoms: C_17  and  C_18 
REMARK    5  A    between atoms: C_22  and  C_24 
REMARK       I    between atoms: C_24  and  N_26 
REMARK    6  A    between atoms: N_26  and  C_27 
REMARK    7  A    between atoms: C_27  and  C_28 
ROOT
HETATM    1  C   UNL     1      44.026 -19.842   2.508  1.00  0.00    -0.040 A 
HETATM    2  C   UNL     1      44.360 -21.162   2.181  1.00  0.00     0.009 A 
HETATM    3  C   UNL     1      44.624 -22.093   3.186  1.00  0.00     0.002 A 
HETATM    4  C   UNL     1      44.535 -21.721   4.527  1.00  0.00     0.017 A 
HETATM    5  C   UNL     1      44.181 -20.412   4.873  1.00  0.00     0.032 A 
HETATM    6  C   UNL     1      43.949 -19.473   3.862  1.00  0.00     0.026 A 
ENDROOT
BRANCH   1   7
HETATM    7  C   UNL     1      43.695 -18.835   1.436  1.00  0.00     0.161 C 
BRANCH   7   8
HETATM    8  N   UNL     1      43.025 -17.688   2.003  1.00  0.00    -0.353 N 
HETATM    9  C   UNL     1      41.812 -17.239   1.531  1.00  0.00     0.251 C 
HETATM   10  O   UNL     1      41.190 -17.764   0.615  1.00  0.00    -0.268 OA
HETATM   11  H   UNL     1      43.459 -17.227   2.792  1.00  0.00     0.163 HD
BRANCH   9  12
HETATM   12  C   UNL     1      41.266 -16.041   2.213  1.00  0.00     0.032 A 
HETATM   13  C   UNL     1      42.116 -15.102   2.810  1.00  0.00     0.024 A 
HETATM   14  C   UNL     1      41.591 -13.961   3.445  1.00  0.00    -0.050 A 
HETATM   15  C   UNL     1      42.546 -12.972   4.060  1.00  0.00     0.049 C 
HETATM   16  C   UNL     1      40.193 -13.768   3.461  1.00  0.00    -0.017 A 
HETATM   17  C   UNL     1      39.353 -14.717   2.853  1.00  0.00     0.014 A 
HETATM   18  C   UNL     1      39.885 -15.845   2.224  1.00  0.00     0.018 A 
BRANCH  16  19
HETATM   19  C   UNL     1      39.586 -12.602   4.070  1.00  0.00     0.011 A 
HETATM   20  C   UNL     1      39.276 -12.313   5.417  1.00  0.00     0.152 A 
HETATM   21  N   UNL     1      38.713 -11.112   5.566  1.00  0.00    -0.187 NA
HETATM   22  N   UNL     1      38.671 -10.624   4.314  1.00  0.00    -0.289 N 
HETATM   23  H   UNL     1      38.275  -9.701   4.171  1.00  0.00     0.188 HD
HETATM   24  C   UNL     1      39.188 -11.477   3.382  1.00  0.00     0.123 A 
ENDBRANCH  16  19
ENDBRANCH   9  12
ENDBRANCH   7   8
ENDBRANCH   1   7
BRANCH   5  25
HETATM   25  C   UNL     1      44.072 -20.066   6.318  1.00  0.00     0.251 C 
HETATM   26  O   UNL     1      43.546 -20.835   7.122  1.00  0.00    -0.268 OA
HETATM   27  N   UNL     1      44.576 -18.849   6.732  1.00  0.00    -0.355 N 
HETATM   28  H   UNL     1      44.815 -18.173   6.011  1.00  0.00     0.162 HD
BRANCH  27  29
HETATM   29  C   UNL     1      44.318 -18.311   8.063  1.00  0.00     0.155 C 
BRANCH  29  30
HETATM   30  C   UNL     1      43.415 -17.051   8.088  1.00  0.00     0.203 C 
HETATM   31  C   UNL     1      44.012 -15.885   7.306  1.00  0.00     0.036 C 
HETATM   32  C   UNL     1      43.502 -16.094   5.891  1.00  0.00     0.029 C 
HETATM   33  C   UNL     1      42.068 -16.534   6.100  1.00  0.00     0.233 C 
HETATM   34  N   UNL     1      42.105 -17.297   7.379  1.00  0.00    -0.069 N 
HETATM   35  H   UNL     1      41.997 -18.320   7.194  1.00  0.00     0.277 HD
HETATM   36  H   UNL     1      41.304 -17.076   7.982  1.00  0.00     0.277 HD
ENDBRANCH  29  30
ENDBRANCH  27  29
ENDBRANCH   5  25
TORSDOF 7
ENDMDL
MODEL 3
REMARK VINA RESULT:      -9.0      3.871      7.853
REMARK  7 active torsions:
REMARK  status: ('A' for Active; 'I' for Inactive)
REMARK    1  A    between atoms: C_4  and  C_14 
REMARK    2  A    between atoms: C_7  and  C_8 
REMARK       I    between atoms: C_14  and  N_16 
REMARK    3  A    between atoms: N_16  and  C_17 
REMARK    4  A    between atoms: C_17  and  C_18 
REMARK    5  A    between atoms: C_22  and  C_24 
REMARK       I    between atoms: C_24  and  N_26 
REMARK    6  A    between atoms: N_26  and  C_27 
REMARK    7  A    between atoms: C_27  and  C_28 
ROOT
HETATM    1  C   UNL     1      43.975 -20.354   3.177  1.00  0.00    -0.040 A 
HETATM    2  C   UNL     1      44.414 -21.608   3.619  1.00  0.00     0.009 A 
HETATM    3  C   UNL     1      44.767 -21.802   4.955  1.00  0.00     0.002 A 
HETATM    4  C   UNL     1      44.664 -20.750   5.867  1.00  0.00     0.017 A 
HETATM    5  C   UNL     1      44.205 -19.496   5.447  1.00  0.00     0.032 A 
HETATM    6  C   UNL     1      43.883 -19.299   4.099  1.00  0.00     0.026 A 
ENDROOT
BRANCH   1   7
HETATM    7  C   UNL     1      43.548 -20.140   1.747  1.00  0.00     0.161 C 
BRANCH   7   8
HETATM    8  N   UNL     1      42.630 -19.028   1.650  1.00  0.00    -0.353 N 
HETATM    9  C   UNL     1      43.044 -17.763   1.298  1.00  0.00     0.251 C 
HETATM   10  O   UNL     1      44.201 -17.465   1.024  1.00  0.00    -0.268 OA
HETATM   11  H   UNL     1      41.650 -19.207   1.822  1.00  0.00     0.163 HD
BRANCH   9  12
HETATM   12  C   UNL     1      41.979 -16.732   1.258  1.00  0.00     0.032 A 
HETATM   13  C   UNL     1      42.068 -15.639   0.388  1.00  0.00     0.024 A 
HETATM   14  C   UNL     1      41.048 -14.670   0.347  1.00  0.00    -0.050 A 
HETATM   15  C   UNL     1      41.181 -13.520  -0.617  1.00  0.00     0.049 C 
HETATM   16  C   UNL     1      39.925 -14.822   1.188  1.00  0.00    -0.017 A 
HETATM   17  C   UNL     1      39.848 -15.928   2.053  1.00  0.00     0.014 A 
HETATM   18  C   UNL     1      40.865 -16.884   2.083  1.00  0.00     0.018 A 
BRANCH  16  19
HETATM   19  C   UNL     1      38.824 -13.879   1.176  1.00  0.00     0.011 A 
HETATM   20  C   UNL     1      38.690 -12.601   1.760  1.00  0.00     0.152 A 
HETATM   21  N   UNL     1      37.500 -12.049   1.514  1.00  0.00    -0.187 NA
HETATM   22  N   UNL     1      36.872 -12.970   0.764  1.00  0.00    -0.289 N 
HETATM   23  H   UNL     1      35.928 -12.771   0.447  1.00  0.00     0.188 HD
HETATM   24  C   UNL     1      37.626 -14.084   0.528  1.00  0.00     0.123 A 
ENDBRANCH  16  19
ENDBRANCH   9  12
ENDBRANCH   7   8
ENDBRANCH   1   7
BRANCH   5  25
HETATM   25  C   UNL     1      44.085 -18.411   6.460  1.00  0.00     0.251 C 
HETATM   26  O   UNL     1      43.866 -18.663   7.644  1.00  0.00    -0.268 OA
HETATM   27  N   UNL     1      44.222 -17.106   6.030  1.00  0.00    -0.355 N 
HETATM   28  H   UNL     1      44.200 -16.940   5.026  1.00  0.00     0.162 HD
BRANCH  27  29
HETATM   29  C   UNL     1      43.895 -15.967   6.881  1.00  0.00     0.155 C 
BRANCH  29  30
HETATM   30  C   UNL     1      43.926 -14.594   6.163  1.00  0.00     0.203 C 
HETATM   31  C   UNL     1      43.497 -14.684   4.701  1.00  0.00     0.036 C 
HETATM   32  C   UNL     1      41.989 -14.505   4.752  1.00  0.00     0.029 C 
HETATM   33  C   UNL     1      41.802 -13.416   5.788  1.00  0.00     0.233 C 
HETATM   34  N   UNL     1      42.916 -13.639   6.753  1.00  0.00    -0.069 N 
HETATM   35  H   UNL     1      42.547 -14.034   7.647  1.00  0.00     0.277 HD
HETATM   36  H   UNL     1      43.355 -12.758   7.043  1.00  0.00     0.277 HD
ENDBRANCH  29  30
ENDBRANCH  27  29
ENDBRANCH   5  25
TORSDOF 7
ENDMDL
MODEL 4
REMARK VINA RESULT:      -9.0      3.444     10.549
REMARK  7 active torsions:
REMARK  status: ('A' for Active; 'I' for Inactive)
REMARK    1  A    between atoms: C_4  and  C_14 
REMARK    2  A    between atoms: C_7  and  C_8 
REMARK       I    between atoms: C_14  and  N_16 
REMARK    3  A    between atoms: N_16  and  C_17 
REMARK    4  A    between atoms: C_17  and  C_18 
REMARK    5  A    between atoms: C_22  and  C_24 
REMARK       I    between atoms: C_24  and  N_26 
REMARK    6  A    between atoms: N_26  and  C_27 
REMARK    7  A    between atoms: C_27  and  C_28 
ROOT
HETATM    1  C   UNL     1      43.861 -15.500   6.660  1.00  0.00    -0.040 A 
HETATM    2  C   UNL     1      43.590 -16.371   7.723  1.00  0.00     0.009 A 
HETATM    3  C   UNL     1      42.744 -17.465   7.540  1.00  0.00     0.002 A 
HETATM    4  C   UNL     1      42.178 -17.712   6.289  1.00  0.00     0.017 A 
HETATM    5  C   UNL     1      42.456 -16.865   5.210  1.00  0.00     0.032 A 
HETATM    6  C   UNL     1      43.279 -15.750   5.407  1.00  0.00     0.026 A 
ENDROOT
BRANCH   1   7
HETATM    7  C   UNL     1      44.808 -14.338   6.829  1.00  0.00     0.161 C 
BRANCH   7   8
HETATM    8  N   UNL     1      44.280 -13.385   7.778  1.00  0.00    -0.353 N 
HETATM    9  C   UNL     1      45.092 -12.531   8.490  1.00  0.00     0.251 C 
HETATM   10  O   UNL     1      46.312 -12.485   8.380  1.00  0.00    -0.268 OA
HETATM   11  H   UNL     1      43.276 -13.336   7.893  1.00  0.00     0.163 HD
BRANCH   9  12
HETATM   12  C   UNL     1      44.394 -11.625   9.434  1.00  0.00     0.032 A 
HETATM   13  C   UNL     1      43.184 -11.012   9.083  1.00  0.00     0.024 A 
HETATM   14  C   UNL     1      42.521 -10.163   9.988  1.00  0.00    -0.050 A 
HETATM   15  C   UNL     1      41.215  -9.539   9.570  1.00  0.00     0.049 C 
HETATM   16  C   UNL     1      43.085  -9.948  11.264  1.00  0.00    -0.017 A 
HETATM   17  C   UNL     1      44.297 -10.574  11.604  1.00  0.00     0.014 A 
HETATM   18  C   UNL     1      44.946 -11.416  10.698  1.00  0.00     0.018 A 
BRANCH  16  19
HETATM   19  C   UNL     1      42.441  -9.111  12.256  1.00  0.00     0.011 A 
HETATM   20  C   UNL     1      42.435  -7.709  12.426  1.00  0.00     0.152 A 
HETATM   21  N   UNL     1      41.711  -7.325  13.479  1.00  0.00    -0.187 NA
HETATM   22  N   UNL     1      41.244  -8.481  13.982  1.00  0.00    -0.289 N 
HETATM   23  H   UNL     1      40.654  -8.443  14.807  1.00  0.00     0.188 HD
HETATM   24  C   UNL     1      41.649  -9.580  13.281  1.00  0.00     0.123 A 
ENDBRANCH  16  19
ENDBRANCH   9  12
ENDBRANCH   7   8
ENDBRANCH   1   7
BRANCH   5  25
HETATM   25  C   UNL     1      41.852 -17.183   3.886  1.00  0.00     0.251 C 
HETATM   26  O   UNL     1      42.374 -17.996   3.124  1.00  0.00    -0.268 OA
HETATM   27  N   UNL     1      40.686 -16.533   3.534  1.00  0.00    -0.355 N 
HETATM   28  H   UNL     1      40.407 -15.735   4.100  1.00  0.00     0.162 HD
BRANCH  27  29
HETATM   29  C   UNL     1      40.140 -16.590   2.182  1.00  0.00     0.155 C 
BRANCH  29  30
HETATM   30  C   UNL     1      39.812 -15.210   1.558  1.00  0.00     0.203 C 
HETATM   31  C   UNL     1      40.597 -14.071   2.203  1.00  0.00     0.036 C 
HETATM   32  C   UNL     1      41.883 -14.012   1.396  1.00  0.00     0.029 C 
HETATM   33  C   UNL     1      41.412 -14.228  -0.026  1.00  0.00     0.233 C 
HETATM   34  N   UNL     1      40.242 -15.141   0.113  1.00  0.00    -0.069 N 
HETATM   35  H   UNL     1      40.490 -16.100  -0.221  1.00  0.00     0.277 HD
HETATM   36  H   UNL     1      39.465 -14.866  -0.498  1.00  0.00     0.277 HD
ENDBRANCH  29  30
ENDBRANCH  27  29
ENDBRANCH   5  25
TORSDOF 7
ENDMDL
MODEL 5
REMARK VINA RESULT:      -8.7      3.811      6.521
REMARK  7 active torsions:
REMARK  status: ('A' for Active; 'I' for Inactive)
REMARK    1  A    between atoms: C_4  and  C_14 
REMARK    2  A    between atoms: C_7  and  C_8 
REMARK       I    between atoms: C_14  and  N_16 
REMARK    3  A    between atoms: N_16  and  C_17 
REMARK    4  A    between atoms: C_17  and  C_18 
REMARK    5  A    between atoms: C_22  and  C_24 
REMARK       I    between atoms: C_24  and  N_26 
REMARK    6  A    between atoms: N_26  and  C_27 
REMARK    7  A    between atoms: C_27  and  C_28 
ROOT
HETATM    1  C   UNL     1      43.357 -17.657   4.592  1.00  0.00    -0.040 A 
HETATM    2  C   UNL     1      44.211 -18.497   5.318  1.00  0.00     0.009 A 
HETATM    3  C   UNL     1      44.931 -18.002   6.405  1.00  0.00     0.002 A 
HETATM    4  C   UNL     1      44.789 -16.669   6.792  1.00  0.00     0.017 A 
HETATM    5  C   UNL     1      43.923 -15.821   6.092  1.00  0.00     0.032 A 
HETATM    6  C   UNL     1      43.228 -16.314   4.982  1.00  0.00     0.026 A 
ENDROOT
BRANCH   1   7
HETATM    7  C   UNL     1      42.539 -18.187   3.441  1.00  0.00     0.161 C 
BRANCH   7   8
HETATM    8  N   UNL     1      42.461 -17.210   2.379  1.00  0.00    -0.353 N 
HETATM    9  C   UNL     1      41.259 -16.773   1.871  1.00  0.00     0.251 C 
HETATM   10  O   UNL     1      40.162 -17.149   2.268  1.00  0.00    -0.268 OA
HETATM   11  H   UNL     1      43.327 -16.823   2.027  1.00  0.00     0.163 HD
BRANCH   9  12
HETATM   12  C   UNL     1      41.354 -15.780   0.773  1.00  0.00     0.032 A 
HETATM   13  C   UNL     1      41.108 -16.149  -0.555  1.00  0.00     0.024 A 
HETATM   14  C   UNL     1      41.189 -15.198  -1.590  1.00  0.00    -0.050 A 
HETATM   15  C   UNL     1      40.902 -15.640  -3.001  1.00  0.00     0.049 C 
HETATM   16  C   UNL     1      41.506 -13.861  -1.268  1.00  0.00    -0.017 A 
HETATM   17  C   UNL     1      41.745 -13.505   0.070  1.00  0.00     0.014 A 
HETATM   18  C   UNL     1      41.661 -14.457   1.089  1.00  0.00     0.018 A 
BRANCH  16  19
HETATM   19  C   UNL     1      41.576 -12.825  -2.280  1.00  0.00     0.011 A 
HETATM   20  C   UNL     1      40.576 -11.988  -2.822  1.00  0.00     0.152 A 
HETATM   21  N   UNL     1      41.055 -11.155  -3.748  1.00  0.00    -0.187 NA
HETATM   22  N   UNL     1      42.365 -11.451  -3.794  1.00  0.00    -0.289 N 
HETATM   23  H   UNL     1      42.952 -10.934  -4.442  1.00  0.00     0.188 HD
HETATM   24  C   UNL     1      42.728 -12.442  -2.929  1.00  0.00     0.123 A 
ENDBRANCH  16  19
ENDBRANCH   9  12
ENDBRANCH   7   8
ENDBRANCH   1   7
BRANCH   5  25
HETATM   25  C   UNL     1      43.782 -14.412   6.557  1.00  0.00     0.251 C 
HETATM   26  O   UNL     1      43.175 -13.577   5.887  1.00  0.00    -0.268 OA
HETATM   27  N   UNL     1      44.358 -14.068   7.763  1.00  0.00    -0.355 N 
HETATM   28  H   UNL     1      45.011 -14.731   8.175  1.00  0.00     0.162 HD
BRANCH  27  29
HETATM   29  C   UNL     1      44.483 -12.681   8.198  1.00  0.00     0.155 C 
BRANCH  29  30
HETATM   30  C   UNL     1      45.043 -12.502   9.632  1.00  0.00     0.203 C 
HETATM   31  C   UNL     1      45.493 -11.071   9.913  1.00  0.00     0.036 C 
HETATM   32  C   UNL     1      44.238 -10.389  10.432  1.00  0.00     0.029 C 
HETATM   33  C   UNL     1      43.615 -11.440  11.326  1.00  0.00     0.233 C 
HETATM   34  N   UNL     1      43.976 -12.731  10.675  1.00  0.00    -0.069 N 
HETATM   35  H   UNL     1      43.135 -13.156  10.223  1.00  0.00     0.277 HD
HETATM   36  H   UNL     1      44.264 -13.440  11.360  1.00  0.00     0.277 HD
ENDBRANCH  29  30
ENDBRANCH  27  29
ENDBRANCH   5  25
TORSDOF 7
ENDMDL
MODEL 6
REMARK VINA RESULT:      -8.7      3.667      7.206
REMARK  7 active torsions:
REMARK  status: ('A' for Active; 'I' for Inactive)
REMARK    1  A    between atoms: C_4  and  C_14 
REMARK    2  A    between atoms: C_7  and  C_8 
REMARK       I    between atoms: C_14  and  N_16 
REMARK    3  A    between atoms: N_16  and  C_17 
REMARK    4  A    between atoms: C_17  and  C_18 
REMARK    5  A    between atoms: C_22  and  C_24 
REMARK       I    between atoms: C_24  and  N_26 
REMARK    6  A    between atoms: N_26  and  C_27 
REMARK    7  A    between atoms: C_27  and  C_28 
ROOT
HETATM    1  C   UNL     1      39.983 -12.942   4.589  1.00  0.00    -0.040 A 
HETATM    2  C   UNL     1      39.430 -11.683   4.853  1.00  0.00     0.009 A 
HETATM    3  C   UNL     1      38.663 -11.033   3.887  1.00  0.00     0.002 A 
HETATM    4  C   UNL     1      38.422 -11.643   2.655  1.00  0.00     0.017 A 
HETATM    5  C   UNL     1      38.948 -12.911   2.383  1.00  0.00     0.032 A 
HETATM    6  C   UNL     1      39.744 -13.545   3.343  1.00  0.00     0.026 A 
ENDROOT
BRANCH   1   7
HETATM    7  C   UNL     1      40.778 -13.678   5.639  1.00  0.00     0.161 C 
BRANCH   7   8
HETATM    8  N   UNL     1      41.271 -14.932   5.119  1.00  0.00    -0.353 N 
HETATM    9  C   UNL     1      42.612 -15.245   5.105  1.00  0.00     0.251 C 
HETATM   10  O   UNL     1      43.497 -14.514   5.535  1.00  0.00    -0.268 OA
HETATM   11  H   UNL     1      40.594 -15.605   4.783  1.00  0.00     0.163 HD
BRANCH   9  12
HETATM   12  C   UNL     1      42.953 -16.566   4.524  1.00  0.00     0.032 A 
HETATM   13  C   UNL     1      43.201 -16.707   3.153  1.00  0.00     0.024 A 
HETATM   14  C   UNL     1      43.536 -17.962   2.610  1.00  0.00    -0.050 A 
HETATM   15  C   UNL     1      43.809 -18.061   1.132  1.00  0.00     0.049 C 
HETATM   16  C   UNL     1      43.633 -19.076   3.471  1.00  0.00    -0.017 A 
HETATM   17  C   UNL     1      43.385 -18.918   4.845  1.00  0.00     0.014 A 
HETATM   18  C   UNL     1      43.055 -17.668   5.373  1.00  0.00     0.018 A 
BRANCH  16  19
HETATM   19  C   UNL     1      44.002 -20.390   2.984  1.00  0.00     0.011 A 
HETATM   20  C   UNL     1      43.732 -21.038   1.759  1.00  0.00     0.152 A 
HETATM   21  N   UNL     1      44.256 -22.263   1.702  1.00  0.00    -0.187 NA
HETATM   22  N   UNL     1      44.872 -22.401   2.888  1.00  0.00    -0.289 N 
HETATM   23  H   UNL     1      45.355 -23.273   3.082  1.00  0.00     0.188 HD
HETATM   24  C   UNL     1      44.754 -21.303   3.691  1.00  0.00     0.123 A 
ENDBRANCH  16  19
ENDBRANCH   9  12
ENDBRANCH   7   8
ENDBRANCH   1   7
BRANCH   5  25
HETATM   25  C   UNL     1      38.643 -13.537   1.066  1.00  0.00     0.251 C 
HETATM   26  O   UNL     1      37.641 -14.233   0.906  1.00  0.00    -0.268 OA
HETATM   27  N   UNL     1      39.522 -13.316   0.025  1.00  0.00    -0.355 N 
HETATM   28  H   UNL     1      40.426 -12.908   0.256  1.00  0.00     0.162 HD
BRANCH  27  29
HETATM   29  C   UNL     1      39.450 -14.060  -1.228  1.00  0.00     0.155 C 
BRANCH  29  30
HETATM   30  C   UNL     1      40.803 -14.636  -1.718  1.00  0.00     0.203 C 
HETATM   31  C   UNL     1      40.958 -14.564  -3.234  1.00  0.00     0.036 C 
HETATM   32  C   UNL     1      41.574 -13.196  -3.474  1.00  0.00     0.029 C 
HETATM   33  C   UNL     1      42.584 -13.068  -2.354  1.00  0.00     0.233 C 
HETATM   34  N   UNL     1      41.966 -13.812  -1.220  1.00  0.00    -0.069 N 
HETATM   35  H   UNL     1      41.631 -13.145  -0.489  1.00  0.00     0.277 HD
HETATM   36  H   UNL     1      42.651 -14.391  -0.722  1.00  0.00     0.277 HD
ENDBRANCH  29  30
ENDBRANCH  27  29
ENDBRANCH   5  25
TORSDOF 7
ENDMDL
MODEL 7
REMARK VINA RESULT:      -8.6      3.590      7.501
REMARK  7 active torsions:
REMARK  status: ('A' for Active; 'I' for Inactive)
REMARK    1  A    between atoms: C_4  and  C_14 
REMARK    2  A    between atoms: C_7  and  C_8 
REMARK       I    between atoms: C_14  and  N_16 
REMARK    3  A    between atoms: N_16  and  C_17 
REMARK    4  A    between atoms: C_17  and  C_18 
REMARK    5  A    between atoms: C_22  and  C_24 
REMARK       I    between atoms: C_24  and  N_26 
REMARK    6  A    between atoms: N_26  and  C_27 
REMARK    7  A    between atoms: C_27  and  C_28 
ROOT
HETATM    1  C   UNL     1      40.929 -12.995   4.762  1.00  0.00    -0.040 A 
HETATM    2  C   UNL     1      40.184 -11.859   5.103  1.00  0.00     0.009 A 
HETATM    3  C   UNL     1      39.218 -11.360   4.229  1.00  0.00     0.002 A 
HETATM    4  C   UNL     1      38.971 -12.003   3.016  1.00  0.00     0.017 A 
HETATM    5  C   UNL     1      39.690 -13.153   2.669  1.00  0.00     0.032 A 
HETATM    6  C   UNL     1      40.681 -13.630   3.535  1.00  0.00     0.026 A 
ENDROOT
BRANCH   1   7
HETATM    7  C   UNL     1      41.946 -13.572   5.714  1.00  0.00     0.161 C 
BRANCH   7   8
HETATM    8  N   UNL     1      42.295 -14.920   5.331  1.00  0.00    -0.353 N 
HETATM    9  C   UNL     1      43.451 -15.530   5.763  1.00  0.00     0.251 C 
HETATM   10  O   UNL     1      44.271 -15.009   6.510  1.00  0.00    -0.268 OA
HETATM   11  H   UNL     1      41.645 -15.431   4.747  1.00  0.00     0.163 HD
BRANCH   9  12
HETATM   12  C   UNL     1      43.668 -16.911   5.266  1.00  0.00     0.032 A 
HETATM   13  C   UNL     1      43.164 -17.317   4.025  1.00  0.00     0.024 A 
HETATM   14  C   UNL     1      43.384 -18.625   3.554  1.00  0.00    -0.050 A 
HETATM   15  C   UNL     1      42.833 -19.011   2.206  1.00  0.00     0.049 C 
HETATM   16  C   UNL     1      44.134 -19.520   4.346  1.00  0.00    -0.017 A 
HETATM   17  C   UNL     1      44.639 -19.097   5.588  1.00  0.00     0.014 A 
HETATM   18  C   UNL     1      44.415 -17.796   6.044  1.00  0.00     0.018 A 
BRANCH  16  19
HETATM   19  C   UNL     1      44.424 -20.872   3.910  1.00  0.00     0.011 A 
HETATM   20  C   UNL     1      44.439 -21.449   2.622  1.00  0.00     0.152 A 
HETATM   21  N   UNL     1      44.759 -22.744   2.645  1.00  0.00    -0.187 NA
HETATM   22  N   UNL     1      44.959 -22.998   3.950  1.00  0.00    -0.289 N 
HETATM   23  H   UNL     1      45.219 -23.941   4.222  1.00  0.00     0.188 HD
HETATM   24  C   UNL     1      44.776 -21.906   4.749  1.00  0.00     0.123 A 
ENDBRANCH  16  19
ENDBRANCH   9  12
ENDBRANCH   7   8
ENDBRANCH   1   7
BRANCH   5  25
HETATM   25  C   UNL     1      39.374 -13.823   1.377  1.00  0.00     0.251 C 
HETATM   26  O   UNL     1      38.332 -14.461   1.226  1.00  0.00    -0.268 OA
HETATM   27  N   UNL     1      40.289 -13.712   0.349  1.00  0.00    -0.355 N 
HETATM   28  H   UNL     1      41.212 -13.352   0.582  1.00  0.00     0.162 HD
BRANCH  27  29
HETATM   29  C   UNL     1      40.196 -14.511  -0.867  1.00  0.00     0.155 C 
BRANCH  29  30
HETATM   30  C   UNL     1      39.380 -13.857  -2.011  1.00  0.00     0.203 C 
HETATM   31  C   UNL     1      39.968 -14.142  -3.390  1.00  0.00     0.036 C 
HETATM   32  C   UNL     1      39.306 -15.445  -3.807  1.00  0.00     0.029 C 
HETATM   33  C   UNL     1      37.876 -15.274  -3.340  1.00  0.00     0.233 C 
HETATM   34  N   UNL     1      37.993 -14.445  -2.107  1.00  0.00    -0.069 N 
HETATM   35  H   UNL     1      37.804 -15.027  -1.260  1.00  0.00     0.277 HD
HETATM   36  H   UNL     1      37.271 -13.716  -2.064  1.00  0.00     0.277 HD
ENDBRANCH  29  30
ENDBRANCH  27  29
ENDBRANCH   5  25
TORSDOF 7
ENDMDL
MODEL 8
REMARK VINA RESULT:      -8.4      6.770     10.742
REMARK  7 active torsions:
REMARK  status: ('A' for Active; 'I' for Inactive)
REMARK    1  A    between atoms: C_4  and  C_14 
REMARK    2  A    between atoms: C_7  and  C_8 
REMARK       I    between atoms: C_14  and  N_16 
REMARK    3  A    between atoms: N_16  and  C_17 
REMARK    4  A    between atoms: C_17  and  C_18 
REMARK    5  A    between atoms: C_22  and  C_24 
REMARK       I    between atoms: C_24  and  N_26 
REMARK    6  A    between atoms: N_26  and  C_27 
REMARK    7  A    between atoms: C_27  and  C_28 
ROOT
HETATM    1  C   UNL     1      40.647 -14.613  -1.782  1.00  0.00    -0.040 A 
HETATM    2  C   UNL     1      40.842 -15.779  -2.532  1.00  0.00     0.009 A 
HETATM    3  C   UNL     1      39.955 -16.117  -3.554  1.00  0.00     0.002 A 
HETATM    4  C   UNL     1      38.877 -15.283  -3.851  1.00  0.00     0.017 A 
HETATM    5  C   UNL     1      38.679 -14.102  -3.127  1.00  0.00     0.032 A 
HETATM    6  C   UNL     1      39.553 -13.784  -2.081  1.00  0.00     0.026 A 
ENDROOT
BRANCH   1   7
HETATM    7  C   UNL     1      41.621 -14.210  -0.703  1.00  0.00     0.161 C 
BRANCH   7   8
HETATM    8  N   UNL     1      42.107 -15.372   0.004  1.00  0.00    -0.353 N 
HETATM    9  C   UNL     1      42.144 -15.432   1.379  1.00  0.00     0.251 C 
HETATM   10  O   UNL     1      41.765 -14.534   2.121  1.00  0.00    -0.268 OA
HETATM   11  H   UNL     1      42.400 -16.172  -0.543  1.00  0.00     0.163 HD
BRANCH   9  12
HETATM   12  C   UNL     1      42.685 -16.691   1.948  1.00  0.00     0.032 A 
HETATM   13  C   UNL     1      42.516 -16.999   3.304  1.00  0.00     0.024 A 
HETATM   14  C   UNL     1      43.021 -18.200   3.834  1.00  0.00    -0.050 A 
HETATM   15  C   UNL     1      42.803 -18.494   5.296  1.00  0.00     0.049 C 
HETATM   16  C   UNL     1      43.689 -19.101   2.976  1.00  0.00    -0.017 A 
HETATM   17  C   UNL     1      43.845 -18.780   1.617  1.00  0.00     0.014 A 
HETATM   18  C   UNL     1      43.339 -17.585   1.101  1.00  0.00     0.018 A 
BRANCH  16  19
HETATM   19  C   UNL     1      44.207 -20.369   3.449  1.00  0.00     0.011 A 
HETATM   20  C   UNL     1      44.822 -20.724   4.669  1.00  0.00     0.152 A 
HETATM   21  N   UNL     1      45.162 -22.014   4.714  1.00  0.00    -0.187 NA
HETATM   22  N   UNL     1      44.757 -22.490   3.524  1.00  0.00    -0.289 N 
HETATM   23  H   UNL     1      44.912 -23.473   3.321  1.00  0.00     0.188 HD
HETATM   24  C   UNL     1      44.172 -21.544   2.732  1.00  0.00     0.123 A 
ENDBRANCH  16  19
ENDBRANCH   9  12
ENDBRANCH   7   8
ENDBRANCH   1   7
BRANCH   5  25
HETATM   25  C   UNL     1      37.531 -13.228  -3.496  1.00  0.00     0.251 C 
HETATM   26  O   UNL     1      37.147 -12.328  -2.749  1.00  0.00    -0.268 OA
HETATM   27  N   UNL     1      36.903 -13.460  -4.703  1.00  0.00    -0.355 N 
HETATM   28  H   UNL     1      37.122 -14.329  -5.185  1.00  0.00     0.162 HD
BRANCH  27  29
HETATM   29  C   UNL     1      35.637 -12.827  -5.057  1.00  0.00     0.155 C 
BRANCH  29  30
HETATM   30  C   UNL     1      35.007 -13.335  -6.379  1.00  0.00     0.203 C 
HETATM   31  C   UNL     1      34.113 -12.292  -7.043  1.00  0.00     0.036 C 
HETATM   32  C   UNL     1      35.066 -11.501  -7.924  1.00  0.00     0.029 C 
HETATM   33  C   UNL     1      35.968 -12.569  -8.507  1.00  0.00     0.233 C 
HETATM   34  N   UNL     1      36.061 -13.594  -7.429  1.00  0.00    -0.069 N 
HETATM   35  H   UNL     1      37.006 -13.568  -6.985  1.00  0.00     0.277 HD
HETATM   36  H   UNL     1      35.996 -14.548  -7.800  1.00  0.00     0.277 HD
ENDBRANCH  29  30
ENDBRANCH  27  29
ENDBRANCH   5  25
TORSDOF 7
ENDMDL
MODEL 9
REMARK VINA RESULT:      -8.4      1.916      2.950
REMARK  7 active torsions:
REMARK  status: ('A' for Active; 'I' for Inactive)
REMARK    1  A    between atoms: C_4  and  C_14 
REMARK    2  A    between atoms: C_7  and  C_8 
REMARK       I    between atoms: C_14  and  N_16 
REMARK    3  A    between atoms: N_16  and  C_17 
REMARK    4  A    between atoms: C_17  and  C_18 
REMARK    5  A    between atoms: C_22  and  C_24 
REMARK       I    between atoms: C_24  and  N_26 
REMARK    6  A    between atoms: N_26  and  C_27 
REMARK    7  A    between atoms: C_27  and  C_28 
ROOT
HETATM    1  C   UNL     1      39.797 -11.997   6.774  1.00  0.00    -0.040 A 
HETATM    2  C   UNL     1      40.821 -11.225   6.211  1.00  0.00     0.009 A 
HETATM    3  C   UNL     1      41.512 -10.295   6.987  1.00  0.00     0.002 A 
HETATM    4  C   UNL     1      41.202 -10.141   8.339  1.00  0.00     0.017 A 
HETATM    5  C   UNL     1      40.196 -10.920   8.924  1.00  0.00     0.032 A 
HETATM    6  C   UNL     1      39.484 -11.828   8.133  1.00  0.00     0.026 A 
ENDROOT
BRANCH   1   7
HETATM    7  C   UNL     1      39.070 -13.037   5.959  1.00  0.00     0.161 C 
BRANCH   7   8
HETATM    8  N   UNL     1      39.947 -14.140   5.643  1.00  0.00    -0.353 N 
HETATM    9  C   UNL     1      40.165 -14.557   4.349  1.00  0.00     0.251 C 
HETATM   10  O   UNL     1      39.660 -14.036   3.361  1.00  0.00    -0.268 OA
HETATM   11  H   UNL     1      40.432 -14.594   6.405  1.00  0.00     0.163 HD
BRANCH   9  12
HETATM   12  C   UNL     1      41.082 -15.712   4.196  1.00  0.00     0.032 A 
HETATM   13  C   UNL     1      42.034 -15.746   3.170  1.00  0.00     0.024 A 
HETATM   14  C   UNL     1      42.909 -16.840   3.039  1.00  0.00    -0.050 A 
HETATM   15  C   UNL     1      43.926 -16.824   1.927  1.00  0.00     0.049 C 
HETATM   16  C   UNL     1      42.823 -17.900   3.966  1.00  0.00    -0.017 A 
HETATM   17  C   UNL     1      41.866 -17.850   4.994  1.00  0.00     0.014 A 
HETATM   18  C   UNL     1      41.004 -16.759   5.116  1.00  0.00     0.018 A 
BRANCH  16  19
HETATM   19  C   UNL     1      43.713 -19.043   3.908  1.00  0.00     0.011 A 
HETATM   20  C   UNL     1      43.898 -20.026   2.913  1.00  0.00     0.152 A 
HETATM   21  N   UNL     1      44.827 -20.925   3.247  1.00  0.00    -0.187 NA
HETATM   22  N   UNL     1      45.245 -20.513   4.456  1.00  0.00    -0.289 N 
HETATM   23  H   UNL     1      45.967 -21.052   4.924  1.00  0.00     0.188 HD
HETATM   24  C   UNL     1      44.612 -19.386   4.894  1.00  0.00     0.123 A 
ENDBRANCH  16  19
ENDBRANCH   9  12
ENDBRANCH   7   8
ENDBRANCH   1   7
BRANCH   5  25
HETATM   25  C   UNL     1      39.917 -10.742  10.376  1.00  0.00     0.251 C 
HETATM   26  O   UNL     1      39.163  -9.856  10.778  1.00  0.00    -0.268 OA
HETATM   27  N   UNL     1      40.535 -11.599  11.264  1.00  0.00    -0.355 N 
HETATM   28  H   UNL     1      41.294 -12.175  10.906  1.00  0.00     0.162 HD
BRANCH  27  29
HETATM   29  C   UNL     1      40.520 -11.372  12.705  1.00  0.00     0.155 C 
BRANCH  29  30
HETATM   30  C   UNL     1      41.828 -10.769  13.278  1.00  0.00     0.203 C 
HETATM   31  C   UNL     1      43.077 -11.314  12.592  1.00  0.00     0.036 C 
HETATM   32  C   UNL     1      43.286 -10.376  11.415  1.00  0.00     0.029 C 
HETATM   33  C   UNL     1      42.972  -9.013  11.996  1.00  0.00     0.233 C 
HETATM   34  N   UNL     1      41.916  -9.286  13.011  1.00  0.00    -0.069 N 
HETATM   35  H   UNL     1      40.990  -8.939  12.672  1.00  0.00     0.277 HD
HETATM   36  H   UNL     1      42.068  -8.756  13.877  1.00  0.00     0.277 HD
ENDBRANCH  29  30
ENDBRANCH  27  29
ENDBRANCH   5  25
TORSDOF 7
ENDMDL
MODEL 10
REMARK VINA RESULT:      -8.2      2.446     11.028
REMARK  7 active torsions:
REMARK  status: ('A' for Active; 'I' for Inactive)
REMARK    1  A    between atoms: C_4  and  C_14 
REMARK    2  A    between atoms: C_7  and  C_8 
REMARK       I    between atoms: C_14  and  N_16 
REMARK    3  A    between atoms: N_16  and  C_17 
REMARK    4  A    between atoms: C_17  and  C_18 
REMARK    5  A    between atoms: C_22  and  C_24 
REMARK       I    between atoms: C_24  and  N_26 
REMARK    6  A    between atoms: N_26  and  C_27 
REMARK    7  A    between atoms: C_27  and  C_28 
ROOT
HETATM    1  C   UNL     1      40.575 -13.435   5.621  1.00  0.00    -0.040 A 
HETATM    2  C   UNL     1      41.576 -12.684   4.992  1.00  0.00     0.009 A 
HETATM    3  C   UNL     1      42.616 -13.322   4.314  1.00  0.00     0.002 A 
HETATM    4  C   UNL     1      42.653 -14.714   4.238  1.00  0.00     0.017 A 
HETATM    5  C   UNL     1      41.649 -15.480   4.841  1.00  0.00     0.032 A 
HETATM    6  C   UNL     1      40.626 -14.837   5.548  1.00  0.00     0.026 A 
ENDROOT
BRANCH   1   7
HETATM    7  C   UNL     1      39.422 -12.761   6.321  1.00  0.00     0.161 C 
BRANCH   7   8
HETATM    8  N   UNL     1      39.845 -12.217   7.591  1.00  0.00    -0.353 N 
HETATM    9  C   UNL     1      39.612 -10.906   7.941  1.00  0.00     0.251 C 
HETATM   10  O   UNL     1      39.026 -10.095   7.234  1.00  0.00    -0.268 OA
HETATM   11  H   UNL     1      40.300 -12.839   8.245  1.00  0.00     0.163 HD
BRANCH   9  12
HETATM   12  C   UNL     1      40.123 -10.502   9.274  1.00  0.00     0.032 A 
HETATM   13  C   UNL     1      39.268  -9.948  10.235  1.00  0.00     0.024 A 
HETATM   14  C   UNL     1      39.757  -9.578  11.501  1.00  0.00    -0.050 A 
HETATM   15  C   UNL     1      38.796  -9.000  12.507  1.00  0.00     0.049 C 
HETATM   16  C   UNL     1      41.121  -9.787  11.797  1.00  0.00    -0.017 A 
HETATM   17  C   UNL     1      41.966 -10.349  10.824  1.00  0.00     0.014 A 
HETATM   18  C   UNL     1      41.469 -10.713   9.571  1.00  0.00     0.018 A 
BRANCH  16  19
HETATM   19  C   UNL     1      41.684  -9.458  13.091  1.00  0.00     0.011 A 
HETATM   20  C   UNL     1      41.749 -10.198  14.291  1.00  0.00     0.152 A 
HETATM   21  N   UNL     1      42.358  -9.529  15.272  1.00  0.00    -0.187 NA
HETATM   22  N   UNL     1      42.693  -8.360  14.699  1.00  0.00    -0.289 N 
HETATM   23  H   UNL     1      43.178  -7.669  15.263  1.00  0.00     0.188 HD
HETATM   24  C   UNL     1      42.316  -8.271  13.390  1.00  0.00     0.123 A 
ENDBRANCH  16  19
ENDBRANCH   9  12
ENDBRANCH   7   8
ENDBRANCH   1   7
BRANCH   5  25
HETATM   25  C   UNL     1      41.714 -16.963   4.712  1.00  0.00     0.251 C 
HETATM   26  O   UNL     1      40.885 -17.689   5.260  1.00  0.00    -0.268 OA
HETATM   27  N   UNL     1      42.739 -17.502   3.961  1.00  0.00    -0.355 N 
HETATM   28  H   UNL     1      43.503 -16.883   3.700  1.00  0.00     0.162 HD
BRANCH  27  29
HETATM   29  C   UNL     1      43.035 -18.931   3.959  1.00  0.00     0.155 C 
BRANCH  29  30
HETATM   30  C   UNL     1      44.098 -19.370   2.921  1.00  0.00     0.203 C 
HETATM   31  C   UNL     1      45.074 -20.402   3.478  1.00  0.00     0.036 C 
HETATM   32  C   UNL     1      44.400 -21.733   3.195  1.00  0.00     0.029 C 
HETATM   33  C   UNL     1      43.824 -21.543   1.807  1.00  0.00     0.233 C 
HETATM   34  N   UNL     1      43.466 -20.097   1.758  1.00  0.00    -0.069 N 
HETATM   35  H   UNL     1      42.429 -19.979   1.797  1.00  0.00     0.277 HD
HETATM   36  H   UNL     1      43.723 -19.668   0.861  1.00  0.00     0.277 HD
ENDBRANCH  29  30
ENDBRANCH  27  29
ENDBRANCH   5  25
TORSDOF 7
ENDMDL
