MODEL 1
REMARK VINA RESULT:      -7.8      0.000      0.000
REMARK  5 active torsions:
REMARK  status: ('A' for Active; 'I' for Inactive)
REMARK    1  A    between atoms: C_8  and  N_9 
REMARK       I    between atoms: N_9  and  C_10 
REMARK       I    between atoms: C_10  and  N_11 
REMARK    2  A    between atoms: N_11  and  C_12 
REMARK    3  A    between atoms: C_13  and  O_14 
REMARK    4  A    between atoms: O_14  and  C_15 
REMARK    5  A    between atoms: C_15  and  C_16 
ROOT
HETATM    1  N   UNL     1      41.898 -15.604   0.227  1.00  0.00    -0.305 N 
HETATM    2  C   UNL     1      41.937 -16.827   0.870  1.00  0.00     0.325 C 
HETATM    3  N   UNL     1      43.215 -17.082   1.333  1.00  0.00    -0.306 N 
HETATM    4  O   UNL     1      40.983 -17.579   1.019  1.00  0.00    -0.247 OA
HETATM    5  H   UNL     1      42.614 -14.943   0.488  1.00  0.00     0.171 HD
HETATM    6  H   UNL     1      43.964 -16.548   0.911  1.00  0.00     0.171 HD
ENDROOT
BRANCH   3   7
HETATM    7  C   UNL     1      43.642 -18.151   2.153  1.00  0.00     0.071 A 
HETATM    8  C   UNL     1      43.785 -17.889   3.529  1.00  0.00     0.096 A 
HETATM    9  C   UNL     1      44.155 -18.900   4.418  1.00  0.00     0.041 A 
HETATM   10  C   UNL     1      44.418 -20.180   3.930  1.00  0.00     0.026 A 
HETATM   11  C   UNL     1      44.296 -20.440   2.566  1.00  0.00     0.036 A 
HETATM   12 CL   UNL     1      44.613 -22.027   1.978  1.00  0.00    -0.084 Cl
HETATM   13  C   UNL     1      43.906 -19.437   1.676  1.00  0.00     0.056 A 
BRANCH   8  14
HETATM   14  O   UNL     1      43.498 -16.618   3.968  1.00  0.00    -0.340 OA
BRANCH  14  15
HETATM   15  C   UNL     1      42.807 -16.624   5.233  1.00  0.00     0.293 C 
BRANCH  15  16
HETATM   16  C   UNL     1      41.306 -16.656   5.002  1.00  0.00     0.408 C 
HETATM   17  F   UNL     1      40.640 -16.067   6.022  1.00  0.00    -0.169 F 
HETATM   18  F   UNL     1      40.962 -16.018   3.862  1.00  0.00    -0.169 F 
HETATM   19  F   UNL     1      40.864 -17.930   4.906  1.00  0.00    -0.169 F 
ENDBRANCH  15  16
ENDBRANCH  14  15
ENDBRANCH   8  14
ENDBRANCH   3   7
BRANCH   1  20
HETATM   20  C   UNL     1      40.837 -15.089  -0.498  1.00  0.00     0.086 A 
HETATM   21  C   UNL     1      39.781 -14.436   0.110  1.00  0.00     0.052 A 
HETATM   22  C   UNL     1      39.471 -14.137   1.528  1.00  0.00     0.072 C 
HETATM   23  N   UNL     1      38.939 -14.066  -0.899  1.00  0.00    -0.280 N 
HETATM   24  H   UNL     1      38.054 -13.578  -0.830  1.00  0.00     0.189 HD
HETATM   25  N   UNL     1      39.376 -14.399  -2.117  1.00  0.00    -0.177 NA
HETATM   26  C   UNL     1      40.543 -15.023  -1.892  1.00  0.00     0.079 A 
HETATM   27  C   UNL     1      41.332 -15.479  -3.065  1.00  0.00     0.075 C 
ENDBRANCH   1  20
TORSDOF 5
ENDMDL
MODEL 2
REMARK VINA RESULT:      -7.6      0.360      1.693
REMARK  5 active torsions:
REMARK  status: ('A' for Active; 'I' for Inactive)
REMARK    1  A    between atoms: C_8  and  N_9 
REMARK       I    between atoms: N_9  and  C_10 
REMARK       I    between atoms: C_10  and  N_11 
REMARK    2  A    between atoms: N_11  and  C_12 
REMARK    3  A    between atoms: C_13  and  O_14 
REMARK    4  A    between atoms: O_14  and  C_15 
REMARK    5  A    between atoms: C_15  and  C_16 
ROOT
HETATM    1  N   UNL     1      41.617 -15.400   0.471  1.00  0.00    -0.305 N 
HETATM    2  C   UNL     1      41.694 -16.632   1.094  1.00  0.00     0.325 C 
HETATM    3  N   UNL     1      43.005 -16.912   1.438  1.00  0.00    -0.306 N 
HETATM    4  O   UNL     1      40.746 -17.371   1.320  1.00  0.00    -0.247 OA
HETATM    5  H   UNL     1      42.364 -14.753   0.674  1.00  0.00     0.171 HD
HETATM    6  H   UNL     1      43.721 -16.384   0.956  1.00  0.00     0.171 HD
ENDROOT
BRANCH   3   7
HETATM    7  C   UNL     1      43.486 -17.998   2.204  1.00  0.00     0.071 A 
HETATM    8  C   UNL     1      43.718 -17.765   3.573  1.00  0.00     0.096 A 
HETATM    9  C   UNL     1      44.147 -18.795   4.413  1.00  0.00     0.041 A 
HETATM   10  C   UNL     1      44.379 -20.063   3.881  1.00  0.00     0.026 A 
HETATM   11  C   UNL     1      44.169 -20.293   2.521  1.00  0.00     0.036 A 
HETATM   12 CL   UNL     1      44.451 -21.866   1.879  1.00  0.00    -0.084 Cl
HETATM   13  C   UNL     1      43.720 -19.271   1.682  1.00  0.00     0.056 A 
BRANCH   8  14
HETATM   14  O   UNL     1      43.458 -16.506   4.059  1.00  0.00    -0.340 OA
BRANCH  14  15
HETATM   15  C   UNL     1      42.754 -16.543   5.316  1.00  0.00     0.293 C 
BRANCH  15  16
HETATM   16  C   UNL     1      41.254 -16.544   5.069  1.00  0.00     0.408 C 
HETATM   17  F   UNL     1      40.574 -16.177   6.179  1.00  0.00    -0.169 F 
HETATM   18  F   UNL     1      40.912 -15.694   4.076  1.00  0.00    -0.169 F 
HETATM   19  F   UNL     1      40.828 -17.777   4.716  1.00  0.00    -0.169 F 
ENDBRANCH  15  16
ENDBRANCH  14  15
ENDBRANCH   8  14
ENDBRANCH   3   7
BRANCH   1  20
HETATM   20  C   UNL     1      40.504 -14.860  -0.150  1.00  0.00     0.086 A 
HETATM   21  C   UNL     1      40.310 -14.948  -1.515  1.00  0.00     0.052 A 
HETATM   22  C   UNL     1      41.119 -15.542  -2.606  1.00  0.00     0.072 C 
HETATM   23  N   UNL     1      39.124 -14.319  -1.765  1.00  0.00    -0.280 N 
HETATM   24  H   UNL     1      38.666 -14.177  -2.658  1.00  0.00     0.189 HD
HETATM   25  N   UNL     1      38.517 -13.855  -0.670  1.00  0.00    -0.177 NA
HETATM   26  C   UNL     1      39.346 -14.182   0.334  1.00  0.00     0.079 A 
HETATM   27  C   UNL     1      38.931 -13.853   1.722  1.00  0.00     0.075 C 
ENDBRANCH   1  20
TORSDOF 5
ENDMDL
MODEL 3
REMARK VINA RESULT:      -7.6      2.478      3.585
REMARK  5 active torsions:
REMARK  status: ('A' for Active; 'I' for Inactive)
REMARK    1  A    between atoms: C_8  and  N_9 
REMARK       I    between atoms: N_9  and  C_10 
REMARK       I    between atoms: C_10  and  N_11 
REMARK    2  A    between atoms: N_11  and  C_12 
REMARK    3  A    between atoms: C_13  and  O_14 
REMARK    4  A    between atoms: O_14  and  C_15 
REMARK    5  A    between atoms: C_15  and  C_16 
ROOT
HETATM    1  N   UNL     1      42.482 -15.380   3.584  1.00  0.00    -0.305 N 
HETATM    2  C   UNL     1      42.399 -16.759   3.541  1.00  0.00     0.325 C 
HETATM    3  N   UNL     1      43.666 -17.312   3.493  1.00  0.00    -0.306 N 
HETATM    4  O   UNL     1      41.361 -17.406   3.552  1.00  0.00    -0.247 OA
HETATM    5  H   UNL     1      43.347 -14.999   3.937  1.00  0.00     0.171 HD
HETATM    6  H   UNL     1      44.416 -16.699   3.199  1.00  0.00     0.171 HD
ENDROOT
BRANCH   3   7
HETATM    7  C   UNL     1      44.018 -18.679   3.575  1.00  0.00     0.071 A 
HETATM    8  C   UNL     1      44.471 -19.151   4.820  1.00  0.00     0.096 A 
HETATM    9  C   UNL     1      44.794 -20.498   5.003  1.00  0.00     0.041 A 
HETATM   10  C   UNL     1      44.696 -21.379   3.926  1.00  0.00     0.026 A 
HETATM   11  C   UNL     1      44.267 -20.911   2.685  1.00  0.00     0.036 A 
HETATM   12 CL   UNL     1      44.142 -22.011   1.366  1.00  0.00    -0.084 Cl
HETATM   13  C   UNL     1      43.923 -19.570   2.503  1.00  0.00     0.056 A 
BRANCH   8  14
HETATM   14  O   UNL     1      44.534 -18.253   5.859  1.00  0.00    -0.340 OA
BRANCH  14  15
HETATM   15  C   UNL     1      43.547 -18.524   6.873  1.00  0.00     0.293 C 
BRANCH  15  16
HETATM   16  C   UNL     1      42.912 -17.224   7.338  1.00  0.00     0.408 C 
HETATM   17  F   UNL     1      43.428 -16.163   6.677  1.00  0.00    -0.169 F 
HETATM   18  F   UNL     1      41.575 -17.224   7.139  1.00  0.00    -0.169 F 
HETATM   19  F   UNL     1      43.128 -17.030   8.657  1.00  0.00    -0.169 F 
ENDBRANCH  15  16
ENDBRANCH  14  15
ENDBRANCH   8  14
ENDBRANCH   3   7
BRANCH   1  20
HETATM   20  C   UNL     1      41.428 -14.488   3.480  1.00  0.00     0.086 A 
HETATM   21  C   UNL     1      41.072 -13.911   2.276  1.00  0.00     0.052 A 
HETATM   22  C   UNL     1      41.629 -14.021   0.907  1.00  0.00     0.072 C 
HETATM   23  N   UNL     1      40.004 -13.105   2.550  1.00  0.00    -0.280 N 
HETATM   24  H   UNL     1      39.485 -12.513   1.912  1.00  0.00     0.189 HD
HETATM   25  N   UNL     1      39.619 -13.134   3.829  1.00  0.00    -0.177 NA
HETATM   26  C   UNL     1      40.478 -13.982   4.415  1.00  0.00     0.079 A 
HETATM   27  C   UNL     1      40.288 -14.287   5.856  1.00  0.00     0.075 C 
ENDBRANCH   1  20
TORSDOF 5
ENDMDL
MODEL 4
REMARK VINA RESULT:      -7.5      2.441      2.904
REMARK  5 active torsions:
REMARK  status: ('A' for Active; 'I' for Inactive)
REMARK    1  A    between atoms: C_8  and  N_9 
REMARK       I    between atoms: N_9  and  C_10 
REMARK       I    between atoms: C_10  and  N_11 
REMARK    2  A    between atoms: N_11  and  C_12 
REMARK    3  A    between atoms: C_13  and  O_14 
REMARK    4  A    between atoms: O_14  and  C_15 
REMARK    5  A    between atoms: C_15  and  C_16 
ROOT
HETATM    1  N   UNL     1      41.880 -15.512   2.219  1.00  0.00    -0.305 N 
HETATM    2  C   UNL     1      42.974 -16.336   2.408  1.00  0.00     0.325 C 
HETATM    3  N   UNL     1      42.597 -17.478   3.091  1.00  0.00    -0.306 N 
HETATM    4  O   UNL     1      44.111 -16.102   2.024  1.00  0.00    -0.247 OA
HETATM    5  H   UNL     1      40.977 -15.961   2.240  1.00  0.00     0.171 HD
HETATM    6  H   UNL     1      41.724 -17.433   3.602  1.00  0.00     0.171 HD
ENDROOT
BRANCH   3   7
HETATM    7  C   UNL     1      43.381 -18.623   3.362  1.00  0.00     0.071 A 
HETATM    8  C   UNL     1      44.002 -18.692   4.623  1.00  0.00     0.096 A 
HETATM    9  C   UNL     1      44.754 -19.809   4.993  1.00  0.00     0.041 A 
HETATM   10  C   UNL     1      44.918 -20.856   4.086  1.00  0.00     0.026 A 
HETATM   11  C   UNL     1      44.320 -20.784   2.828  1.00  0.00     0.036 A 
HETATM   12 CL   UNL     1      44.522 -22.088   1.722  1.00  0.00    -0.084 Cl
HETATM   13  C   UNL     1      43.550 -19.678   2.463  1.00  0.00     0.056 A 
BRANCH   8  14
HETATM   14  O   UNL     1      43.799 -17.647   5.492  1.00  0.00    -0.340 OA
BRANCH  14  15
HETATM   15  C   UNL     1      44.460 -17.853   6.756  1.00  0.00     0.293 C 
BRANCH  15  16
HETATM   16  C   UNL     1      43.577 -17.356   7.889  1.00  0.00     0.408 C 
HETATM   17  F   UNL     1      43.869 -17.985   9.050  1.00  0.00    -0.169 F 
HETATM   18  F   UNL     1      43.726 -16.028   8.090  1.00  0.00    -0.169 F 
HETATM   19  F   UNL     1      42.274 -17.584   7.616  1.00  0.00    -0.169 F 
ENDBRANCH  15  16
ENDBRANCH  14  15
ENDBRANCH   8  14
ENDBRANCH   3   7
BRANCH   1  20
HETATM   20  C   UNL     1      41.899 -14.220   1.719  1.00  0.00     0.086 A 
HETATM   21  C   UNL     1      42.193 -13.130   2.516  1.00  0.00     0.052 A 
HETATM   22  C   UNL     1      42.514 -12.998   3.957  1.00  0.00     0.072 C 
HETATM   23  N   UNL     1      42.125 -12.040   1.697  1.00  0.00    -0.280 N 
HETATM   24  H   UNL     1      42.269 -11.065   1.936  1.00  0.00     0.189 HD
HETATM   25  N   UNL     1      41.839 -12.336   0.426  1.00  0.00    -0.177 NA
HETATM   26  C   UNL     1      41.703 -13.671   0.418  1.00  0.00     0.079 A 
HETATM   27  C   UNL     1      41.434 -14.341  -0.880  1.00  0.00     0.075 C 
ENDBRANCH   1  20
TORSDOF 5
ENDMDL
MODEL 5
REMARK VINA RESULT:      -7.2      3.920      7.048
REMARK  5 active torsions:
REMARK  status: ('A' for Active; 'I' for Inactive)
REMARK    1  A    between atoms: C_8  and  N_9 
REMARK       I    between atoms: N_9  and  C_10 
REMARK       I    between atoms: C_10  and  N_11 
REMARK    2  A    between atoms: N_11  and  C_12 
REMARK    3  A    between atoms: C_13  and  O_14 
REMARK    4  A    between atoms: O_14  and  C_15 
REMARK    5  A    between atoms: C_15  and  C_16 
ROOT
HETATM    1  N   UNL     1      42.138 -18.191   4.582  1.00  0.00    -0.305 N 
HETATM    2  C   UNL     1      42.091 -16.834   4.321  1.00  0.00     0.325 C 
HETATM    3  N   UNL     1      40.790 -16.375   4.418  1.00  0.00    -0.306 N 
HETATM    4  O   UNL     1      43.056 -16.132   4.052  1.00  0.00    -0.247 OA
HETATM    5  H   UNL     1      41.381 -18.563   5.136  1.00  0.00     0.171 HD
HETATM    6  H   UNL     1      40.058 -17.072   4.357  1.00  0.00     0.171 HD
ENDROOT
BRANCH   3   7
HETATM    7  C   UNL     1      40.337 -15.037   4.357  1.00  0.00     0.071 A 
HETATM    8  C   UNL     1      39.899 -14.563   3.107  1.00  0.00     0.096 A 
HETATM    9  C   UNL     1      39.390 -13.270   2.967  1.00  0.00     0.041 A 
HETATM   10  C   UNL     1      39.347 -12.427   4.077  1.00  0.00     0.026 A 
HETATM   11  C   UNL     1      39.799 -12.885   5.314  1.00  0.00     0.036 A 
HETATM   12 CL   UNL     1      39.732 -11.836   6.678  1.00  0.00    -0.084 Cl
HETATM   13  C   UNL     1      40.289 -14.185   5.462  1.00  0.00     0.056 A 
BRANCH   8  14
HETATM   14  O   UNL     1      39.941 -15.434   2.044  1.00  0.00    -0.340 OA
BRANCH  14  15
HETATM   15  C   UNL     1      40.975 -15.092   1.101  1.00  0.00     0.293 C 
BRANCH  15  16
HETATM   16  C   UNL     1      41.585 -16.357   0.519  1.00  0.00     0.408 C 
HETATM   17  F   UNL     1      41.001 -17.463   1.034  1.00  0.00    -0.169 F 
HETATM   18  F   UNL     1      41.448 -16.405  -0.824  1.00  0.00    -0.169 F 
HETATM   19  F   UNL     1      42.906 -16.423   0.798  1.00  0.00    -0.169 F 
ENDBRANCH  15  16
ENDBRANCH  14  15
ENDBRANCH   8  14
ENDBRANCH   3   7
BRANCH   1  20
HETATM   20  C   UNL     1      43.234 -19.022   4.426  1.00  0.00     0.086 A 
HETATM   21  C   UNL     1      43.953 -19.498   5.506  1.00  0.00     0.052 A 
HETATM   22  C   UNL     1      43.823 -19.290   6.967  1.00  0.00     0.072 C 
HETATM   23  N   UNL     1      44.943 -20.278   4.981  1.00  0.00    -0.280 N 
HETATM   24  H   UNL     1      45.672 -20.783   5.473  1.00  0.00     0.189 HD
HETATM   25  N   UNL     1      44.909 -20.372   3.649  1.00  0.00    -0.177 NA
HETATM   26  C   UNL     1      43.862 -19.612   3.289  1.00  0.00     0.079 A 
HETATM   27  C   UNL     1      43.506 -19.545   1.849  1.00  0.00     0.075 C 
ENDBRANCH   1  20
TORSDOF 5
ENDMDL
MODEL 6
REMARK VINA RESULT:      -7.1      3.869      7.177
REMARK  5 active torsions:
REMARK  status: ('A' for Active; 'I' for Inactive)
REMARK    1  A    between atoms: C_8  and  N_9 
REMARK       I    between atoms: N_9  and  C_10 
REMARK       I    between atoms: C_10  and  N_11 
REMARK    2  A    between atoms: N_11  and  C_12 
REMARK    3  A    between atoms: C_13  and  O_14 
REMARK    4  A    between atoms: O_14  and  C_15 
REMARK    5  A    between atoms: C_15  and  C_16 
ROOT
HETATM    1  N   UNL     1      42.208 -18.106   4.370  1.00  0.00    -0.305 N 
HETATM    2  C   UNL     1      42.154 -16.737   4.186  1.00  0.00     0.325 C 
HETATM    3  N   UNL     1      40.838 -16.312   4.150  1.00  0.00    -0.306 N 
HETATM    4  O   UNL     1      43.123 -15.998   4.078  1.00  0.00    -0.247 OA
HETATM    5  H   UNL     1      41.401 -18.527   4.805  1.00  0.00     0.171 HD
HETATM    6  H   UNL     1      40.139 -17.020   3.960  1.00  0.00     0.171 HD
ENDROOT
BRANCH   3   7
HETATM    7  C   UNL     1      40.357 -14.983   4.115  1.00  0.00     0.071 A 
HETATM    8  C   UNL     1      39.842 -14.519   2.890  1.00  0.00     0.096 A 
HETATM    9  C   UNL     1      39.302 -13.236   2.779  1.00  0.00     0.041 A 
HETATM   10  C   UNL     1      39.304 -12.392   3.889  1.00  0.00     0.026 A 
HETATM   11  C   UNL     1      39.831 -12.841   5.099  1.00  0.00     0.036 A 
HETATM   12 CL   UNL     1      39.818 -11.792   6.465  1.00  0.00    -0.084 Cl
HETATM   13  C   UNL     1      40.353 -14.130   5.221  1.00  0.00     0.056 A 
BRANCH   8  14
HETATM   14  O   UNL     1      39.843 -15.391   1.827  1.00  0.00    -0.340 OA
BRANCH  14  15
HETATM   15  C   UNL     1      40.880 -15.086   0.874  1.00  0.00     0.293 C 
BRANCH  15  16
HETATM   16  C   UNL     1      41.505 -16.372   0.361  1.00  0.00     0.408 C 
HETATM   17  F   UNL     1      42.801 -16.472   0.735  1.00  0.00    -0.169 F 
HETATM   18  F   UNL     1      40.856 -17.462   0.826  1.00  0.00    -0.169 F 
HETATM   19  F   UNL     1      41.464 -16.419  -0.990  1.00  0.00    -0.169 F 
ENDBRANCH  15  16
ENDBRANCH  14  15
ENDBRANCH   8  14
ENDBRANCH   3   7
BRANCH   1  20
HETATM   20  C   UNL     1      43.339 -18.902   4.300  1.00  0.00     0.086 A 
HETATM   21  C   UNL     1      43.678 -19.594   3.153  1.00  0.00     0.052 A 
HETATM   22  C   UNL     1      43.029 -19.715   1.826  1.00  0.00     0.072 C 
HETATM   23  N   UNL     1      44.837 -20.255   3.445  1.00  0.00    -0.280 N 
HETATM   24  H   UNL     1      45.373 -20.874   2.847  1.00  0.00     0.189 HD
HETATM   25  N   UNL     1      45.294 -20.025   4.678  1.00  0.00    -0.177 NA
HETATM   26  C   UNL     1      44.391 -19.191   5.218  1.00  0.00     0.079 A 
HETATM   27  C   UNL     1      44.637 -18.685   6.592  1.00  0.00     0.075 C 
ENDBRANCH   1  20
TORSDOF 5
ENDMDL
MODEL 7
REMARK VINA RESULT:      -7.0      2.846      6.228
REMARK  5 active torsions:
REMARK  status: ('A' for Active; 'I' for Inactive)
REMARK    1  A    between atoms: C_8  and  N_9 
REMARK       I    between atoms: N_9  and  C_10 
REMARK       I    between atoms: C_10  and  N_11 
REMARK    2  A    between atoms: N_11  and  C_12 
REMARK    3  A    between atoms: C_13  and  O_14 
REMARK    4  A    between atoms: O_14  and  C_15 
REMARK    5  A    between atoms: C_15  and  C_16 
ROOT
HETATM    1  N   UNL     1      44.262 -18.812   2.881  1.00  0.00    -0.305 N 
HETATM    2  C   UNL     1      43.074 -18.315   2.378  1.00  0.00     0.325 C 
HETATM    3  N   UNL     1      43.216 -16.976   2.059  1.00  0.00    -0.306 N 
HETATM    4  O   UNL     1      42.045 -18.958   2.225  1.00  0.00    -0.247 OA
HETATM    5  H   UNL     1      45.099 -18.316   2.615  1.00  0.00     0.171 HD
HETATM    6  H   UNL     1      43.993 -16.489   2.488  1.00  0.00     0.171 HD
ENDROOT
BRANCH   3   7
HETATM    7  C   UNL     1      42.286 -16.140   1.399  1.00  0.00     0.071 A 
HETATM    8  C   UNL     1      41.637 -15.163   2.176  1.00  0.00     0.096 A 
HETATM    9  C   UNL     1      40.740 -14.263   1.595  1.00  0.00     0.041 A 
HETATM   10  C   UNL     1      40.461 -14.357   0.232  1.00  0.00     0.026 A 
HETATM   11  C   UNL     1      41.087 -15.336  -0.538  1.00  0.00     0.036 A 
HETATM   12 CL   UNL     1      40.740 -15.435  -2.222  1.00  0.00    -0.084 Cl
HETATM   13  C   UNL     1      42.000 -16.224   0.035  1.00  0.00     0.056 A 
BRANCH   8  14
HETATM   14  O   UNL     1      41.956 -15.093   3.511  1.00  0.00    -0.340 OA
BRANCH  14  15
HETATM   15  C   UNL     1      40.828 -15.393   4.357  1.00  0.00     0.293 C 
BRANCH  15  16
HETATM   16  C   UNL     1      41.168 -16.549   5.283  1.00  0.00     0.408 C 
HETATM   17  F   UNL     1      40.779 -17.732   4.753  1.00  0.00    -0.169 F 
HETATM   18  F   UNL     1      42.496 -16.622   5.523  1.00  0.00    -0.169 F 
HETATM   19  F   UNL     1      40.545 -16.408   6.474  1.00  0.00    -0.169 F 
ENDBRANCH  15  16
ENDBRANCH  14  15
ENDBRANCH   8  14
ENDBRANCH   3   7
BRANCH   1  20
HETATM   20  C   UNL     1      44.456 -20.060   3.450  1.00  0.00     0.086 A 
HETATM   21  C   UNL     1      44.662 -20.223   4.807  1.00  0.00     0.052 A 
HETATM   22  C   UNL     1      44.753 -19.261   5.930  1.00  0.00     0.072 C 
HETATM   23  N   UNL     1      44.807 -21.567   5.003  1.00  0.00    -0.280 N 
HETATM   24  H   UNL     1      44.985 -22.058   5.872  1.00  0.00     0.189 HD
HETATM   25  N   UNL     1      44.682 -22.293   3.889  1.00  0.00    -0.177 NA
HETATM   26  C   UNL     1      44.460 -21.386   2.924  1.00  0.00     0.079 A 
HETATM   27  C   UNL     1      44.216 -21.876   1.544  1.00  0.00     0.075 C 
ENDBRANCH   1  20
TORSDOF 5
ENDMDL
MODEL 8
REMARK VINA RESULT:      -7.0      3.600      6.704
REMARK  5 active torsions:
REMARK  status: ('A' for Active; 'I' for Inactive)
REMARK    1  A    between atoms: C_8  and  N_9 
REMARK       I    between atoms: N_9  and  C_10 
REMARK       I    between atoms: C_10  and  N_11 
REMARK    2  A    between atoms: N_11  and  C_12 
REMARK    3  A    between atoms: C_13  and  O_14 
REMARK    4  A    between atoms: O_14  and  C_15 
REMARK    5  A    between atoms: C_15  and  C_16 
ROOT
HETATM    1  N   UNL     1      43.665 -18.528   3.254  1.00  0.00    -0.305 N 
HETATM    2  C   UNL     1      42.597 -17.742   3.644  1.00  0.00     0.325 C 
HETATM    3  N   UNL     1      42.587 -16.561   2.924  1.00  0.00    -0.306 N 
HETATM    4  O   UNL     1      41.772 -18.041   4.496  1.00  0.00    -0.247 OA
HETATM    5  H   UNL     1      44.029 -18.355   2.329  1.00  0.00     0.171 HD
HETATM    6  H   UNL     1      43.454 -16.299   2.472  1.00  0.00     0.171 HD
ENDROOT
BRANCH   3   7
HETATM    7  C   UNL     1      41.594 -15.555   2.925  1.00  0.00     0.071 A 
HETATM    8  C   UNL     1      41.843 -14.408   3.702  1.00  0.00     0.096 A 
HETATM    9  C   UNL     1      40.938 -13.344   3.721  1.00  0.00     0.041 A 
HETATM   10  C   UNL     1      39.756 -13.435   2.987  1.00  0.00     0.026 A 
HETATM   11  C   UNL     1      39.496 -14.577   2.230  1.00  0.00     0.036 A 
HETATM   12 CL   UNL     1      38.038 -14.673   1.320  1.00  0.00    -0.084 Cl
HETATM   13  C   UNL     1      40.408 -15.634   2.191  1.00  0.00     0.056 A 
BRANCH   8  14
HETATM   14  O   UNL     1      43.028 -14.352   4.395  1.00  0.00    -0.340 OA
BRANCH  14  15
HETATM   15  C   UNL     1      42.823 -14.194   5.813  1.00  0.00     0.293 C 
BRANCH  15  16
HETATM   16  C   UNL     1      43.424 -15.374   6.557  1.00  0.00     0.408 C 
HETATM   17  F   UNL     1      42.463 -16.219   6.995  1.00  0.00    -0.169 F 
HETATM   18  F   UNL     1      44.269 -16.080   5.774  1.00  0.00    -0.169 F 
HETATM   19  F   UNL     1      44.122 -14.955   7.636  1.00  0.00    -0.169 F 
ENDBRANCH  15  16
ENDBRANCH  14  15
ENDBRANCH   8  14
ENDBRANCH   3   7
BRANCH   1  20
HETATM   20  C   UNL     1      44.087 -19.701   3.857  1.00  0.00     0.086 A 
HETATM   21  C   UNL     1      44.263 -20.871   3.143  1.00  0.00     0.052 A 
HETATM   22  C   UNL     1      44.065 -21.213   1.715  1.00  0.00     0.072 C 
HETATM   23  N   UNL     1      44.684 -21.802   4.049  1.00  0.00    -0.280 N 
HETATM   24  H   UNL     1      44.901 -22.779   3.890  1.00  0.00     0.189 HD
HETATM   25  N   UNL     1      44.825 -21.324   5.289  1.00  0.00    -0.177 NA
HETATM   26  C   UNL     1      44.468 -20.034   5.191  1.00  0.00     0.079 A 
HETATM   27  C   UNL     1      44.568 -19.184   6.405  1.00  0.00     0.075 C 
ENDBRANCH   1  20
TORSDOF 5
ENDMDL
MODEL 9
REMARK VINA RESULT:      -7.0      3.104      6.325
REMARK  5 active torsions:
REMARK  status: ('A' for Active; 'I' for Inactive)
REMARK    1  A    between atoms: C_8  and  N_9 
REMARK       I    between atoms: N_9  and  C_10 
REMARK       I    between atoms: C_10  and  N_11 
REMARK    2  A    between atoms: N_11  and  C_12 
REMARK    3  A    between atoms: C_13  and  O_14 
REMARK    4  A    between atoms: O_14  and  C_15 
REMARK    5  A    between atoms: C_15  and  C_16 
ROOT
HETATM    1  N   UNL     1      42.625 -18.150   3.014  1.00  0.00    -0.305 N 
HETATM    2  C   UNL     1      42.749 -17.330   1.908  1.00  0.00     0.325 C 
HETATM    3  N   UNL     1      41.538 -16.725   1.625  1.00  0.00    -0.306 N 
HETATM    4  O   UNL     1      43.778 -17.152   1.271  1.00  0.00    -0.247 OA
HETATM    5  H   UNL     1      41.871 -17.931   3.646  1.00  0.00     0.171 HD
HETATM    6  H   UNL     1      40.713 -17.157   2.022  1.00  0.00     0.171 HD
ENDROOT
BRANCH   3   7
HETATM    7  C   UNL     1      41.275 -15.720   0.666  1.00  0.00     0.071 A 
HETATM    8  C   UNL     1      41.023 -14.422   1.149  1.00  0.00     0.096 A 
HETATM    9  C   UNL     1      40.803 -13.360   0.270  1.00  0.00     0.041 A 
HETATM   10  C   UNL     1      40.799 -13.596  -1.105  1.00  0.00     0.026 A 
HETATM   11  C   UNL     1      41.028 -14.884  -1.587  1.00  0.00     0.036 A 
HETATM   12 CL   UNL     1      41.030 -15.161  -3.287  1.00  0.00    -0.084 Cl
HETATM   13  C   UNL     1      41.270 -15.945  -0.712  1.00  0.00     0.056 A 
BRANCH   8  14
HETATM   14  O   UNL     1      41.055 -14.230   2.509  1.00  0.00    -0.340 OA
BRANCH  14  15
HETATM   15  C   UNL     1      42.114 -13.338   2.908  1.00  0.00     0.293 C 
BRANCH  15  16
HETATM   16  C   UNL     1      43.129 -14.086   3.757  1.00  0.00     0.408 C 
HETATM   17  F   UNL     1      42.569 -15.161   4.357  1.00  0.00    -0.169 F 
HETATM   18  F   UNL     1      44.172 -14.523   3.017  1.00  0.00    -0.169 F 
HETATM   19  F   UNL     1      43.625 -13.286   4.727  1.00  0.00    -0.169 F 
ENDBRANCH  15  16
ENDBRANCH  14  15
ENDBRANCH   8  14
ENDBRANCH   3   7
BRANCH   1  20
HETATM   20  C   UNL     1      43.578 -19.033   3.494  1.00  0.00     0.086 A 
HETATM   21  C   UNL     1      44.231 -18.825   4.695  1.00  0.00     0.052 A 
HETATM   22  C   UNL     1      44.156 -17.741   5.702  1.00  0.00     0.072 C 
HETATM   23  N   UNL     1      45.080 -19.883   4.846  1.00  0.00    -0.280 N 
HETATM   24  H   UNL     1      45.730 -20.063   5.603  1.00  0.00     0.189 HD
HETATM   25  N   UNL     1      45.011 -20.777   3.855  1.00  0.00    -0.177 NA
HETATM   26  C   UNL     1      44.090 -20.276   3.018  1.00  0.00     0.079 A 
HETATM   27  C   UNL     1      43.727 -21.071   1.817  1.00  0.00     0.075 C 
ENDBRANCH   1  20
TORSDOF 5
ENDMDL
MODEL 10
REMARK VINA RESULT:      -6.8      2.804      6.443
REMARK  5 active torsions:
REMARK  status: ('A' for Active; 'I' for Inactive)
REMARK    1  A    between atoms: C_8  and  N_9 
REMARK       I    between atoms: N_9  and  C_10 
REMARK       I    between atoms: C_10  and  N_11 
REMARK    2  A    between atoms: N_11  and  C_12 
REMARK    3  A    between atoms: C_13  and  O_14 
REMARK    4  A    between atoms: O_14  and  C_15 
REMARK    5  A    between atoms: C_15  and  C_16 
ROOT
HETATM    1  N   UNL     1      42.435 -18.235   3.276  1.00  0.00    -0.305 N 
HETATM    2  C   UNL     1      42.481 -17.175   2.390  1.00  0.00     0.325 C 
HETATM    3  N   UNL     1      41.287 -17.079   1.699  1.00  0.00    -0.306 N 
HETATM    4  O   UNL     1      43.432 -16.421   2.238  1.00  0.00    -0.247 OA
HETATM    5  H   UNL     1      41.516 -18.528   3.569  1.00  0.00     0.171 HD
HETATM    6  H   UNL     1      40.701 -17.905   1.692  1.00  0.00     0.171 HD
ENDROOT
BRANCH   3   7
HETATM    7  C   UNL     1      40.882 -16.060   0.807  1.00  0.00     0.071 A 
HETATM    8  C   UNL     1      40.022 -15.068   1.314  1.00  0.00     0.096 A 
HETATM    9  C   UNL     1      39.612 -13.997   0.517  1.00  0.00     0.041 A 
HETATM   10  C   UNL     1      40.035 -13.929  -0.810  1.00  0.00     0.026 A 
HETATM   11  C   UNL     1      40.872 -14.920  -1.323  1.00  0.00     0.036 A 
HETATM   12 CL   UNL     1      41.395 -14.818  -2.960  1.00  0.00    -0.084 Cl
HETATM   13  C   UNL     1      41.301 -15.980  -0.522  1.00  0.00     0.056 A 
BRANCH   8  14
HETATM   14  O   UNL     1      39.644 -15.164   2.632  1.00  0.00    -0.340 OA
BRANCH  14  15
HETATM   15  C   UNL     1      40.187 -14.096   3.433  1.00  0.00     0.293 C 
BRANCH  15  16
HETATM   16  C   UNL     1      40.899 -14.669   4.647  1.00  0.00     0.408 C 
HETATM   17  F   UNL     1      40.603 -15.979   4.816  1.00  0.00    -0.169 F 
HETATM   18  F   UNL     1      42.241 -14.561   4.536  1.00  0.00    -0.169 F 
HETATM   19  F   UNL     1      40.529 -14.018   5.772  1.00  0.00    -0.169 F 
ENDBRANCH  15  16
ENDBRANCH  14  15
ENDBRANCH   8  14
ENDBRANCH   3   7
BRANCH   1  20
HETATM   20  C   UNL     1      43.492 -18.733   4.020  1.00  0.00     0.086 A 
HETATM   21  C   UNL     1      44.211 -19.843   3.619  1.00  0.00     0.052 A 
HETATM   22  C   UNL     1      44.093 -20.746   2.450  1.00  0.00     0.072 C 
HETATM   23  N   UNL     1      45.164 -20.037   4.578  1.00  0.00    -0.280 N 
HETATM   24  H   UNL     1      45.866 -20.766   4.627  1.00  0.00     0.189 HD
HETATM   25  N   UNL     1      45.141 -19.125   5.554  1.00  0.00    -0.177 NA
HETATM   26  C   UNL     1      44.125 -18.312   5.226  1.00  0.00     0.079 A 
HETATM   27  C   UNL     1      43.860 -17.135   6.093  1.00  0.00     0.075 C 
ENDBRANCH   1  20
TORSDOF 5
ENDMDL
