MODEL 1
REMARK VINA RESULT:      -9.4      0.000      0.000
REMARK  8 active torsions:
REMARK  status: ('A' for Active; 'I' for Inactive)
REMARK    1  A    between atoms: O_2  and  C_3 
REMARK    2  A    between atoms: C_5  and  O_6 
REMARK    3  A    between atoms: C_9  and  N_10 
REMARK       I    between atoms: N_10  and  C_11 
REMARK       I    between atoms: C_11  and  N_12 
REMARK    4  A    between atoms: N_12  and  C_13 
REMARK    5  A    between atoms: C_16  and  N_17 
REMARK    6  A    between atoms: N_20  and  C_22 
REMARK    7  A    between atoms: C_22  and  C_23 
REMARK    8  A    between atoms: C_25  and  C_26 
ROOT
HETATM    1  C   UNL     1      39.458 -11.547   7.120  1.00  0.00     0.054 A 
HETATM    2  C   UNL     1      39.925 -10.840   6.021  1.00  0.00     0.148 A 
HETATM    3  N   UNL     1      40.321 -11.412   4.847  1.00  0.00    -0.241 NA
HETATM    4  C   UNL     1      40.272 -12.755   4.730  1.00  0.00     0.125 A 
HETATM    5  C   UNL     1      39.762 -13.528   5.772  1.00  0.00     0.052 A 
HETATM    6  C   UNL     1      39.352 -12.924   6.966  1.00  0.00     0.035 A 
ENDROOT
BRANCH   4   7
HETATM    7  N   UNL     1      40.822 -13.336   3.591  1.00  0.00    -0.364 N 
HETATM    8  C   UNL     1      40.283 -14.651   3.226  1.00  0.00     0.152 C 
HETATM    9  C   UNL     1      41.283 -15.807   3.406  1.00  0.00     0.255 C 
HETATM   10  N   UNL     1      42.403 -15.671   2.372  1.00  0.00    -0.066 N 
HETATM   11  H   UNL     1      42.004 -15.093   1.624  1.00  0.00     0.280 HD
HETATM   12  C   UNL     1      43.601 -14.912   2.870  1.00  0.00     0.237 C 
HETATM   13  C   UNL     1      43.265 -13.611   3.596  1.00  0.00     0.047 C 
HETATM   14  C   UNL     1      42.076 -12.839   3.033  1.00  0.00     0.126 C 
BRANCH  10  15
HETATM   15  C   UNL     1      42.742 -16.958   1.649  1.00  0.00     0.273 C 
BRANCH  15  16
HETATM   16  C   UNL     1      43.366 -18.056   2.468  1.00  0.00    -0.032 A 
HETATM   17  C   UNL     1      43.457 -19.363   1.954  1.00  0.00     0.025 A 
HETATM   18  C   UNL     1      44.014 -20.408   2.712  1.00  0.00     0.048 A 
HETATM   19  C   UNL     1      44.480 -20.131   4.003  1.00  0.00     0.016 A 
HETATM   20  C   UNL     1      44.391 -18.842   4.526  1.00  0.00     0.001 A 
HETATM   21  C   UNL     1      43.837 -17.812   3.765  1.00  0.00     0.009 A 
BRANCH  18  22
HETATM   22  C   UNL     1      44.102 -21.816   2.164  1.00  0.00     0.417 C 
HETATM   23  F   UNL     1      45.186 -21.997   1.357  1.00  0.00    -0.166 F 
HETATM   24  F   UNL     1      44.208 -22.748   3.147  1.00  0.00    -0.166 F 
HETATM   25  F   UNL     1      43.016 -22.156   1.422  1.00  0.00    -0.166 F 
ENDBRANCH  18  22
ENDBRANCH  15  16
ENDBRANCH  10  15
ENDBRANCH   4   7
BRANCH   1  26
HETATM   26  N   UNL     1      39.116 -10.997   8.374  1.00  0.00    -0.307 N 
HETATM   27  C   UNL     1      39.985 -10.430   9.295  1.00  0.00     0.325 C 
HETATM   28  N   UNL     1      39.301 -10.044  10.438  1.00  0.00    -0.309 N 
HETATM   29  O   UNL     1      41.191 -10.314   9.116  1.00  0.00    -0.247 OA
HETATM   30  H   UNL     1      38.292 -10.050  10.386  1.00  0.00     0.170 HD
HETATM   31  H   UNL     1      38.173 -11.166   8.694  1.00  0.00     0.170 HD
BRANCH  28  32
HETATM   32  C   UNL     1      39.837  -9.539  11.645  1.00  0.00     0.041 A 
HETATM   33  C   UNL     1      39.132  -8.716  12.532  1.00  0.00     0.066 A 
HETATM   34  C   UNL     1      39.731  -8.261  13.714  1.00  0.00     0.073 A 
HETATM   35  C   UNL     1      41.050  -8.612  13.999  1.00  0.00     0.073 A 
HETATM   36  C   UNL     1      41.763  -9.403  13.104  1.00  0.00     0.073 A 
HETATM   37  C   UNL     1      41.160  -9.884  11.943  1.00  0.00     0.066 A 
BRANCH  34  38
HETATM   38  O   UNL     1      39.138  -7.469  14.661  1.00  0.00    -0.356 OA
HETATM   39  C   UNL     1      39.515  -7.695  16.015  1.00  0.00     0.210 C 
ENDBRANCH  34  38
BRANCH  36  40
HETATM   40  O   UNL     1      43.043  -9.784  13.403  1.00  0.00    -0.356 OA
HETATM   41  C   UNL     1      43.669 -10.350  12.250  1.00  0.00     0.210 C 
ENDBRANCH  36  40
ENDBRANCH  28  32
ENDBRANCH   1  26
TORSDOF 8
ENDMDL
MODEL 2
REMARK VINA RESULT:      -9.1      7.974     12.476
REMARK  8 active torsions:
REMARK  status: ('A' for Active; 'I' for Inactive)
REMARK    1  A    between atoms: O_2  and  C_3 
REMARK    2  A    between atoms: C_5  and  O_6 
REMARK    3  A    between atoms: C_9  and  N_10 
REMARK       I    between atoms: N_10  and  C_11 
REMARK       I    between atoms: C_11  and  N_12 
REMARK    4  A    between atoms: N_12  and  C_13 
REMARK    5  A    between atoms: C_16  and  N_17 
REMARK    6  A    between atoms: N_20  and  C_22 
REMARK    7  A    between atoms: C_22  and  C_23 
REMARK    8  A    between atoms: C_25  and  C_26 
ROOT
HETATM    1  C   UNL     1      38.875 -14.429  -2.803  1.00  0.00     0.054 A 
HETATM    2  C   UNL     1      38.623 -13.998  -1.508  1.00  0.00     0.148 A 
HETATM    3  N   UNL     1      39.463 -14.198  -0.452  1.00  0.00    -0.241 NA
HETATM    4  C   UNL     1      40.617 -14.866  -0.656  1.00  0.00     0.125 A 
HETATM    5  C   UNL     1      40.963 -15.281  -1.941  1.00  0.00     0.052 A 
HETATM    6  C   UNL     1      40.095 -15.060  -3.015  1.00  0.00     0.035 A 
ENDROOT
BRANCH   4   7
HETATM    7  N   UNL     1      41.389 -15.199   0.453  1.00  0.00    -0.364 N 
HETATM    8  C   UNL     1      41.224 -16.569   0.953  1.00  0.00     0.152 C 
HETATM    9  C   UNL     1      40.532 -16.653   2.325  1.00  0.00     0.255 C 
HETATM   10  N   UNL     1      41.462 -16.079   3.396  1.00  0.00    -0.066 N 
HETATM   11  H   UNL     1      42.403 -16.141   2.990  1.00  0.00     0.280 HD
HETATM   12  C   UNL     1      41.241 -14.618   3.673  1.00  0.00     0.237 C 
HETATM   13  C   UNL     1      41.123 -13.750   2.422  1.00  0.00     0.047 C 
HETATM   14  C   UNL     1      42.022 -14.159   1.259  1.00  0.00     0.126 C 
BRANCH  10  15
HETATM   15  C   UNL     1      41.582 -16.934   4.640  1.00  0.00     0.273 C 
BRANCH  15  16
HETATM   16  C   UNL     1      42.765 -17.862   4.718  1.00  0.00    -0.032 A 
HETATM   17  C   UNL     1      43.010 -18.790   3.688  1.00  0.00     0.025 A 
HETATM   18  C   UNL     1      44.095 -19.682   3.753  1.00  0.00     0.048 A 
HETATM   19  C   UNL     1      44.938 -19.640   4.870  1.00  0.00     0.016 A 
HETATM   20  C   UNL     1      44.703 -18.729   5.899  1.00  0.00     0.001 A 
HETATM   21  C   UNL     1      43.624 -17.848   5.824  1.00  0.00     0.009 A 
BRANCH  18  22
HETATM   22  C   UNL     1      44.352 -20.687   2.651  1.00  0.00     0.417 C 
HETATM   23  F   UNL     1      44.043 -21.962   3.023  1.00  0.00    -0.166 F 
HETATM   24  F   UNL     1      43.616 -20.434   1.537  1.00  0.00    -0.166 F 
HETATM   25  F   UNL     1      45.653 -20.712   2.261  1.00  0.00    -0.166 F 
ENDBRANCH  18  22
ENDBRANCH  15  16
ENDBRANCH  10  15
ENDBRANCH   4   7
BRANCH   1  26
HETATM   26  N   UNL     1      37.996 -14.309  -3.901  1.00  0.00    -0.307 N 
HETATM   27  C   UNL     1      37.030 -13.330  -4.087  1.00  0.00     0.325 C 
HETATM   28  N   UNL     1      36.319 -13.562  -5.254  1.00  0.00    -0.309 N 
HETATM   29  O   UNL     1      36.832 -12.408  -3.305  1.00  0.00    -0.247 OA
HETATM   30  H   UNL     1      36.692 -14.260  -5.881  1.00  0.00     0.170 HD
HETATM   31  H   UNL     1      37.967 -15.092  -4.537  1.00  0.00     0.170 HD
BRANCH  28  32
HETATM   32  C   UNL     1      35.186 -12.867  -5.735  1.00  0.00     0.041 A 
HETATM   33  C   UNL     1      34.045 -12.599  -4.967  1.00  0.00     0.066 A 
HETATM   34  C   UNL     1      32.963 -11.897  -5.514  1.00  0.00     0.073 A 
HETATM   35  C   UNL     1      33.013 -11.480  -6.844  1.00  0.00     0.073 A 
HETATM   36  C   UNL     1      34.130 -11.772  -7.618  1.00  0.00     0.073 A 
HETATM   37  C   UNL     1      35.221 -12.442  -7.069  1.00  0.00     0.066 A 
BRANCH  34  38
HETATM   38  O   UNL     1      31.809 -11.563  -4.858  1.00  0.00    -0.356 OA
HETATM   39  C   UNL     1      31.522 -12.274  -3.659  1.00  0.00     0.210 C 
ENDBRANCH  34  38
BRANCH  36  40
HETATM   40  O   UNL     1      34.198 -11.327  -8.910  1.00  0.00    -0.356 OA
HETATM   41  C   UNL     1      34.111 -12.429  -9.816  1.00  0.00     0.210 C 
ENDBRANCH  36  40
ENDBRANCH  28  32
ENDBRANCH   1  26
TORSDOF 8
ENDMDL
MODEL 3
REMARK VINA RESULT:      -9.1      7.946     12.511
REMARK  8 active torsions:
REMARK  status: ('A' for Active; 'I' for Inactive)
REMARK    1  A    between atoms: O_2  and  C_3 
REMARK    2  A    between atoms: C_5  and  O_6 
REMARK    3  A    between atoms: C_9  and  N_10 
REMARK       I    between atoms: N_10  and  C_11 
REMARK       I    between atoms: C_11  and  N_12 
REMARK    4  A    between atoms: N_12  and  C_13 
REMARK    5  A    between atoms: C_16  and  N_17 
REMARK    6  A    between atoms: N_20  and  C_22 
REMARK    7  A    between atoms: C_22  and  C_23 
REMARK    8  A    between atoms: C_25  and  C_26 
ROOT
HETATM    1  C   UNL     1      38.838 -14.412  -2.691  1.00  0.00     0.054 A 
HETATM    2  C   UNL     1      38.572 -13.985  -1.397  1.00  0.00     0.148 A 
HETATM    3  N   UNL     1      39.419 -14.154  -0.340  1.00  0.00    -0.241 NA
HETATM    4  C   UNL     1      40.594 -14.783  -0.543  1.00  0.00     0.125 A 
HETATM    5  C   UNL     1      40.955 -15.190  -1.826  1.00  0.00     0.052 A 
HETATM    6  C   UNL     1      40.079 -15.002  -2.901  1.00  0.00     0.035 A 
ENDROOT
BRANCH   4   7
HETATM    7  N   UNL     1      41.378 -15.086   0.567  1.00  0.00    -0.364 N 
HETATM    8  C   UNL     1      41.226 -16.446   1.098  1.00  0.00     0.152 C 
HETATM    9  C   UNL     1      40.546 -16.505   2.477  1.00  0.00     0.255 C 
HETATM   10  N   UNL     1      41.480 -15.901   3.527  1.00  0.00    -0.066 N 
HETATM   11  H   UNL     1      42.418 -15.966   3.116  1.00  0.00     0.280 HD
HETATM   12  C   UNL     1      41.251 -14.436   3.774  1.00  0.00     0.237 C 
HETATM   13  C   UNL     1      41.117 -13.597   2.505  1.00  0.00     0.047 C 
HETATM   14  C   UNL     1      42.010 -14.025   1.344  1.00  0.00     0.126 C 
BRANCH  10  15
HETATM   15  C   UNL     1      41.616 -16.728   4.789  1.00  0.00     0.273 C 
BRANCH  15  16
HETATM   16  C   UNL     1      42.818 -17.629   4.888  1.00  0.00    -0.032 A 
HETATM   17  C   UNL     1      43.022 -18.649   3.940  1.00  0.00     0.025 A 
HETATM   18  C   UNL     1      44.125 -19.517   4.028  1.00  0.00     0.048 A 
HETATM   19  C   UNL     1      45.029 -19.354   5.085  1.00  0.00     0.016 A 
HETATM   20  C   UNL     1      44.836 -18.350   6.033  1.00  0.00     0.001 A 
HETATM   21  C   UNL     1      43.738 -17.494   5.936  1.00  0.00     0.009 A 
BRANCH  18  22
HETATM   22  C   UNL     1      44.339 -20.622   3.017  1.00  0.00     0.417 C 
HETATM   23  F   UNL     1      45.518 -20.496   2.345  1.00  0.00    -0.166 F 
HETATM   24  F   UNL     1      44.366 -21.852   3.592  1.00  0.00    -0.166 F 
HETATM   25  F   UNL     1      43.366 -20.657   2.069  1.00  0.00    -0.166 F 
ENDBRANCH  18  22
ENDBRANCH  15  16
ENDBRANCH  10  15
ENDBRANCH   4   7
BRANCH   1  26
HETATM   26  N   UNL     1      37.955 -14.325  -3.789  1.00  0.00    -0.307 N 
HETATM   27  C   UNL     1      37.150 -13.245  -4.122  1.00  0.00     0.325 C 
HETATM   28  N   UNL     1      36.376 -13.539  -5.234  1.00  0.00    -0.309 N 
HETATM   29  O   UNL     1      37.123 -12.194  -3.495  1.00  0.00    -0.247 OA
HETATM   30  H   UNL     1      36.616 -14.377  -5.744  1.00  0.00     0.170 HD
HETATM   31  H   UNL     1      37.784 -15.183  -4.293  1.00  0.00     0.170 HD
BRANCH  28  32
HETATM   32  C   UNL     1      35.352 -12.755  -5.812  1.00  0.00     0.041 A 
HETATM   33  C   UNL     1      35.461 -12.112  -7.052  1.00  0.00     0.066 A 
HETATM   34  C   UNL     1      34.397 -11.358  -7.563  1.00  0.00     0.073 A 
HETATM   35  C   UNL     1      33.225 -11.226  -6.819  1.00  0.00     0.073 A 
HETATM   36  C   UNL     1      33.125 -11.837  -5.574  1.00  0.00     0.073 A 
HETATM   37  C   UNL     1      34.169 -12.614  -5.077  1.00  0.00     0.066 A 
BRANCH  34  38
HETATM   38  O   UNL     1      34.382 -10.702  -8.765  1.00  0.00    -0.356 OA
HETATM   39  C   UNL     1      33.443 -11.155  -9.734  1.00  0.00     0.210 C 
ENDBRANCH  34  38
BRANCH  36  40
HETATM   40  O   UNL     1      31.960 -11.744  -4.862  1.00  0.00    -0.356 OA
HETATM   41  C   UNL     1      32.056 -12.508  -3.659  1.00  0.00     0.210 C 
ENDBRANCH  36  40
ENDBRANCH  28  32
ENDBRANCH   1  26
TORSDOF 8
ENDMDL
MODEL 4
REMARK VINA RESULT:      -9.0      7.398     11.775
REMARK  8 active torsions:
REMARK  status: ('A' for Active; 'I' for Inactive)
REMARK    1  A    between atoms: O_2  and  C_3 
REMARK    2  A    between atoms: C_5  and  O_6 
REMARK    3  A    between atoms: C_9  and  N_10 
REMARK       I    between atoms: N_10  and  C_11 
REMARK       I    between atoms: C_11  and  N_12 
REMARK    4  A    between atoms: N_12  and  C_13 
REMARK    5  A    between atoms: C_16  and  N_17 
REMARK    6  A    between atoms: N_20  and  C_22 
REMARK    7  A    between atoms: C_22  and  C_23 
REMARK    8  A    between atoms: C_25  and  C_26 
ROOT
HETATM    1  C   UNL     1      38.968 -13.511  -0.035  1.00  0.00     0.054 A 
HETATM    2  C   UNL     1      38.649 -14.437   0.949  1.00  0.00     0.148 A 
HETATM    3  N   UNL     1      39.563 -15.051   1.755  1.00  0.00    -0.241 NA
HETATM    4  C   UNL     1      40.870 -14.759   1.595  1.00  0.00     0.125 A 
HETATM    5  C   UNL     1      41.261 -13.799   0.665  1.00  0.00     0.052 A 
HETATM    6  C   UNL     1      40.311 -13.172  -0.148  1.00  0.00     0.035 A 
ENDROOT
BRANCH   4   7
HETATM    7  N   UNL     1      41.801 -15.504   2.314  1.00  0.00    -0.364 N 
HETATM    8  C   UNL     1      41.262 -16.651   3.053  1.00  0.00     0.152 C 
HETATM    9  C   UNL     1      41.306 -16.484   4.583  1.00  0.00     0.255 C 
HETATM   10  N   UNL     1      42.762 -16.512   5.053  1.00  0.00    -0.066 N 
HETATM   11  H   UNL     1      43.272 -16.997   4.305  1.00  0.00     0.280 HD
HETATM   12  C   UNL     1      43.395 -15.152   5.154  1.00  0.00     0.237 C 
HETATM   13  C   UNL     1      43.149 -14.252   3.946  1.00  0.00     0.047 C 
HETATM   14  C   UNL     1      43.128 -14.963   2.597  1.00  0.00     0.126 C 
BRANCH  10  15
HETATM   15  C   UNL     1      43.012 -17.403   6.252  1.00  0.00     0.273 C 
BRANCH  15  16
HETATM   16  C   UNL     1      43.497 -18.801   5.974  1.00  0.00    -0.032 A 
HETATM   17  C   UNL     1      43.783 -19.205   4.657  1.00  0.00     0.025 A 
HETATM   18  C   UNL     1      44.215 -20.513   4.372  1.00  0.00     0.048 A 
HETATM   19  C   UNL     1      44.355 -21.422   5.428  1.00  0.00     0.016 A 
HETATM   20  C   UNL     1      44.070 -21.035   6.737  1.00  0.00     0.001 A 
HETATM   21  C   UNL     1      43.643 -19.735   7.008  1.00  0.00     0.009 A 
BRANCH  18  22
HETATM   22  C   UNL     1      44.511 -20.952   2.955  1.00  0.00     0.417 C 
HETATM   23  F   UNL     1      45.599 -20.322   2.429  1.00  0.00    -0.166 F 
HETATM   24  F   UNL     1      44.772 -22.283   2.869  1.00  0.00    -0.166 F 
HETATM   25  F   UNL     1      43.481 -20.702   2.105  1.00  0.00    -0.166 F 
ENDBRANCH  18  22
ENDBRANCH  15  16
ENDBRANCH  10  15
ENDBRANCH   4   7
BRANCH   1  26
HETATM   26  N   UNL     1      38.061 -12.917  -0.938  1.00  0.00    -0.307 N 
HETATM   27  C   UNL     1      37.783 -13.338  -2.231  1.00  0.00     0.325 C 
HETATM   28  N   UNL     1      36.880 -12.480  -2.840  1.00  0.00    -0.309 N 
HETATM   29  O   UNL     1      38.292 -14.322  -2.754  1.00  0.00    -0.247 OA
HETATM   30  H   UNL     1      36.421 -11.808  -2.243  1.00  0.00     0.170 HD
HETATM   31  H   UNL     1      37.690 -12.017  -0.672  1.00  0.00     0.170 HD
BRANCH  28  32
HETATM   32  C   UNL     1      36.435 -12.494  -4.182  1.00  0.00     0.041 A 
HETATM   33  C   UNL     1      35.842 -13.602  -4.800  1.00  0.00     0.066 A 
HETATM   34  C   UNL     1      35.420 -13.536  -6.135  1.00  0.00     0.073 A 
HETATM   35  C   UNL     1      35.614 -12.362  -6.862  1.00  0.00     0.073 A 
HETATM   36  C   UNL     1      36.231 -11.271  -6.260  1.00  0.00     0.073 A 
HETATM   37  C   UNL     1      36.623 -11.322  -4.924  1.00  0.00     0.066 A 
BRANCH  34  38
HETATM   38  O   UNL     1      34.815 -14.544  -6.837  1.00  0.00    -0.356 OA
HETATM   39  C   UNL     1      34.976 -14.530  -8.251  1.00  0.00     0.210 C 
ENDBRANCH  34  38
BRANCH  36  40
HETATM   40  O   UNL     1      36.384 -10.104  -6.959  1.00  0.00    -0.356 OA
HETATM   41  C   UNL     1      37.045 -10.357  -8.200  1.00  0.00     0.210 C 
ENDBRANCH  36  40
ENDBRANCH  28  32
ENDBRANCH   1  26
TORSDOF 8
ENDMDL
MODEL 5
REMARK VINA RESULT:      -8.8      1.881      2.270
REMARK  8 active torsions:
REMARK  status: ('A' for Active; 'I' for Inactive)
REMARK    1  A    between atoms: O_2  and  C_3 
REMARK    2  A    between atoms: C_5  and  O_6 
REMARK    3  A    between atoms: C_9  and  N_10 
REMARK       I    between atoms: N_10  and  C_11 
REMARK       I    between atoms: C_11  and  N_12 
REMARK    4  A    between atoms: N_12  and  C_13 
REMARK    5  A    between atoms: C_16  and  N_17 
REMARK    6  A    between atoms: N_20  and  C_22 
REMARK    7  A    between atoms: C_22  and  C_23 
REMARK    8  A    between atoms: C_25  and  C_26 
ROOT
HETATM    1  C   UNL     1      39.861 -11.388   6.094  1.00  0.00     0.054 A 
HETATM    2  C   UNL     1      40.736 -11.055   5.070  1.00  0.00     0.148 A 
HETATM    3  N   UNL     1      41.014 -11.858   4.002  1.00  0.00    -0.241 NA
HETATM    4  C   UNL     1      40.415 -13.064   3.922  1.00  0.00     0.125 A 
HETATM    5  C   UNL     1      39.482 -13.444   4.885  1.00  0.00     0.052 A 
HETATM    6  C   UNL     1      39.202 -12.605   5.969  1.00  0.00     0.035 A 
ENDROOT
BRANCH   4   7
HETATM    7  N   UNL     1      40.822 -13.934   2.914  1.00  0.00    -0.364 N 
HETATM    8  C   UNL     1      40.138 -15.232   2.883  1.00  0.00     0.152 C 
HETATM    9  C   UNL     1      41.038 -16.421   3.265  1.00  0.00     0.255 C 
HETATM   10  N   UNL     1      42.085 -16.633   2.169  1.00  0.00    -0.066 N 
HETATM   11  H   UNL     1      41.686 -16.194   1.333  1.00  0.00     0.280 HD
HETATM   12  C   UNL     1      43.382 -15.916   2.421  1.00  0.00     0.237 C 
HETATM   13  C   UNL     1      43.223 -14.460   2.853  1.00  0.00     0.047 C 
HETATM   14  C   UNL     1      42.071 -13.707   2.194  1.00  0.00     0.126 C 
BRANCH  10  15
HETATM   15  C   UNL     1      42.249 -18.076   1.736  1.00  0.00     0.273 C 
BRANCH  15  16
HETATM   16  C   UNL     1      43.083 -18.963   2.622  1.00  0.00    -0.032 A 
HETATM   17  C   UNL     1      43.171 -18.709   4.003  1.00  0.00     0.025 A 
HETATM   18  C   UNL     1      43.964 -19.510   4.843  1.00  0.00     0.048 A 
HETATM   19  C   UNL     1      44.678 -20.576   4.282  1.00  0.00     0.016 A 
HETATM   20  C   UNL     1      44.603 -20.835   2.914  1.00  0.00     0.001 A 
HETATM   21  C   UNL     1      43.813 -20.034   2.090  1.00  0.00     0.009 A 
BRANCH  18  22
HETATM   22  C   UNL     1      44.068 -19.230   6.327  1.00  0.00     0.417 C 
HETATM   23  F   UNL     1      45.249 -18.640   6.667  1.00  0.00    -0.166 F 
HETATM   24  F   UNL     1      43.092 -18.393   6.765  1.00  0.00    -0.166 F 
HETATM   25  F   UNL     1      43.979 -20.359   7.078  1.00  0.00    -0.166 F 
ENDBRANCH  18  22
ENDBRANCH  15  16
ENDBRANCH  10  15
ENDBRANCH   4   7
BRANCH   1  26
HETATM   26  N   UNL     1      39.610 -10.620   7.252  1.00  0.00    -0.307 N 
HETATM   27  C   UNL     1      40.423 -10.520   8.372  1.00  0.00     0.325 C 
HETATM   28  N   UNL     1      39.830  -9.717   9.334  1.00  0.00    -0.309 N 
HETATM   29  O   UNL     1      41.502 -11.087   8.487  1.00  0.00    -0.247 OA
HETATM   30  H   UNL     1      39.020  -9.187   9.046  1.00  0.00     0.170 HD
HETATM   31  H   UNL     1      38.685 -10.225   7.334  1.00  0.00     0.170 HD
BRANCH  28  32
HETATM   32  C   UNL     1      40.277  -9.462  10.651  1.00  0.00     0.041 A 
HETATM   33  C   UNL     1      39.586  -8.665  11.574  1.00  0.00     0.066 A 
HETATM   34  C   UNL     1      40.091  -8.466  12.865  1.00  0.00     0.073 A 
HETATM   35  C   UNL     1      41.305  -9.047  13.229  1.00  0.00     0.073 A 
HETATM   36  C   UNL     1      42.008  -9.813  12.305  1.00  0.00     0.073 A 
HETATM   37  C   UNL     1      41.494 -10.040  11.030  1.00  0.00     0.066 A 
BRANCH  34  38
HETATM   38  O   UNL     1      39.499  -7.725  13.853  1.00  0.00    -0.356 OA
HETATM   39  C   UNL     1      38.171  -7.276  13.612  1.00  0.00     0.210 C 
ENDBRANCH  34  38
BRANCH  36  40
HETATM   40  O   UNL     1      43.178 -10.419  12.674  1.00  0.00    -0.356 OA
HETATM   41  C   UNL     1      43.711 -11.168  11.580  1.00  0.00     0.210 C 
ENDBRANCH  36  40
ENDBRANCH  28  32
ENDBRANCH   1  26
TORSDOF 8
ENDMDL
MODEL 6
REMARK VINA RESULT:      -8.8      1.844      2.904
REMARK  8 active torsions:
REMARK  status: ('A' for Active; 'I' for Inactive)
REMARK    1  A    between atoms: O_2  and  C_3 
REMARK    2  A    between atoms: C_5  and  O_6 
REMARK    3  A    between atoms: C_9  and  N_10 
REMARK       I    between atoms: N_10  and  C_11 
REMARK       I    between atoms: C_11  and  N_12 
REMARK    4  A    between atoms: N_12  and  C_13 
REMARK    5  A    between atoms: C_16  and  N_17 
REMARK    6  A    between atoms: N_20  and  C_22 
REMARK    7  A    between atoms: C_22  and  C_23 
REMARK    8  A    between atoms: C_25  and  C_26 
ROOT
HETATM    1  C   UNL     1      39.523 -12.214   5.874  1.00  0.00     0.054 A 
HETATM    2  C   UNL     1      39.862 -11.647   4.653  1.00  0.00     0.148 A 
HETATM    3  N   UNL     1      40.342 -12.348   3.585  1.00  0.00    -0.241 NA
HETATM    4  C   UNL     1      40.515 -13.680   3.706  1.00  0.00     0.125 A 
HETATM    5  C   UNL     1      40.145 -14.327   4.883  1.00  0.00     0.052 A 
HETATM    6  C   UNL     1      39.645 -13.595   5.966  1.00  0.00     0.035 A 
ENDROOT
BRANCH   4   7
HETATM    7  N   UNL     1      41.149 -14.357   2.668  1.00  0.00    -0.364 N 
HETATM    8  C   UNL     1      40.575 -15.662   2.319  1.00  0.00     0.152 C 
HETATM    9  C   UNL     1      41.480 -16.856   2.671  1.00  0.00     0.255 C 
HETATM   10  N   UNL     1      42.711 -16.843   1.762  1.00  0.00    -0.066 N 
HETATM   11  H   UNL     1      42.429 -16.292   0.944  1.00  0.00     0.280 HD
HETATM   12  C   UNL     1      43.891 -16.119   2.347  1.00  0.00     0.237 C 
HETATM   13  C   UNL     1      43.557 -14.761   2.959  1.00  0.00     0.047 C 
HETATM   14  C   UNL     1      42.483 -13.962   2.226  1.00  0.00     0.126 C 
BRANCH  10  15
HETATM   15  C   UNL     1      43.048 -18.188   1.153  1.00  0.00     0.273 C 
BRANCH  15  16
HETATM   16  C   UNL     1      43.534 -19.260   2.092  1.00  0.00    -0.032 A 
HETATM   17  C   UNL     1      43.652 -18.997   3.470  1.00  0.00     0.025 A 
HETATM   18  C   UNL     1      44.126 -19.977   4.361  1.00  0.00     0.048 A 
HETATM   19  C   UNL     1      44.487 -21.231   3.855  1.00  0.00     0.016 A 
HETATM   20  C   UNL     1      44.380 -21.502   2.491  1.00  0.00     0.001 A 
HETATM   21  C   UNL     1      43.907 -20.523   1.616  1.00  0.00     0.009 A 
BRANCH  18  22
HETATM   22  C   UNL     1      44.264 -19.691   5.840  1.00  0.00     0.417 C 
HETATM   23  F   UNL     1      43.214 -18.979   6.337  1.00  0.00    -0.166 F 
HETATM   24  F   UNL     1      44.329 -20.828   6.582  1.00  0.00    -0.166 F 
HETATM   25  F   UNL     1      45.380 -18.973   6.131  1.00  0.00    -0.166 F 
ENDBRANCH  18  22
ENDBRANCH  15  16
ENDBRANCH  10  15
ENDBRANCH   4   7
BRANCH   1  26
HETATM   26  N   UNL     1      39.099 -11.512   7.023  1.00  0.00    -0.307 N 
HETATM   27  C   UNL     1      39.901 -11.069   8.066  1.00  0.00     0.325 C 
HETATM   28  N   UNL     1      39.132 -10.466   9.049  1.00  0.00    -0.309 N 
HETATM   29  O   UNL     1      41.116 -11.220   8.106  1.00  0.00    -0.247 OA
HETATM   30  H   UNL     1      38.171 -10.267   8.814  1.00  0.00     0.170 HD
HETATM   31  H   UNL     1      38.103 -11.457   7.171  1.00  0.00     0.170 HD
BRANCH  28  32
HETATM   32  C   UNL     1      39.552  -9.994  10.314  1.00  0.00     0.041 A 
HETATM   33  C   UNL     1      40.584 -10.571  11.064  1.00  0.00     0.066 A 
HETATM   34  C   UNL     1      40.948 -10.040  12.308  1.00  0.00     0.073 A 
HETATM   35  C   UNL     1      40.259  -8.940  12.817  1.00  0.00     0.073 A 
HETATM   36  C   UNL     1      39.212  -8.384  12.089  1.00  0.00     0.073 A 
HETATM   37  C   UNL     1      38.869  -8.889  10.837  1.00  0.00     0.066 A 
BRANCH  34  38
HETATM   38  O   UNL     1      41.947 -10.507  13.120  1.00  0.00    -0.356 OA
HETATM   39  C   UNL     1      43.133  -9.724  13.194  1.00  0.00     0.210 C 
ENDBRANCH  34  38
BRANCH  36  40
HETATM   40  O   UNL     1      38.563  -7.278  12.567  1.00  0.00    -0.356 OA
HETATM   41  C   UNL     1      38.562  -7.287  13.996  1.00  0.00     0.210 C 
ENDBRANCH  36  40
ENDBRANCH  28  32
ENDBRANCH   1  26
TORSDOF 8
ENDMDL
MODEL 7
REMARK VINA RESULT:      -8.8      8.215     12.858
REMARK  8 active torsions:
REMARK  status: ('A' for Active; 'I' for Inactive)
REMARK    1  A    between atoms: O_2  and  C_3 
REMARK    2  A    between atoms: C_5  and  O_6 
REMARK    3  A    between atoms: C_9  and  N_10 
REMARK       I    between atoms: N_10  and  C_11 
REMARK       I    between atoms: C_11  and  N_12 
REMARK    4  A    between atoms: N_12  and  C_13 
REMARK    5  A    between atoms: C_16  and  N_17 
REMARK    6  A    between atoms: N_20  and  C_22 
REMARK    7  A    between atoms: C_22  and  C_23 
REMARK    8  A    between atoms: C_25  and  C_26 
ROOT
HETATM    1  C   UNL     1      38.712 -13.225  -2.416  1.00  0.00     0.054 A 
HETATM    2  C   UNL     1      39.998 -13.703  -2.625  1.00  0.00     0.148 A 
HETATM    3  N   UNL     1      40.770 -14.285  -1.662  1.00  0.00    -0.241 NA
HETATM    4  C   UNL     1      40.273 -14.405  -0.415  1.00  0.00     0.125 A 
HETATM    5  C   UNL     1      38.968 -13.998  -0.142  1.00  0.00     0.052 A 
HETATM    6  C   UNL     1      38.186 -13.411  -1.143  1.00  0.00     0.035 A 
ENDROOT
BRANCH   4   7
HETATM    7  N   UNL     1      41.123 -14.856   0.591  1.00  0.00    -0.364 N 
HETATM    8  C   UNL     1      40.874 -16.221   1.067  1.00  0.00     0.152 C 
HETATM    9  C   UNL     1      40.330 -16.292   2.506  1.00  0.00     0.255 C 
HETATM   10  N   UNL     1      41.425 -15.854   3.481  1.00  0.00    -0.066 N 
HETATM   11  H   UNL     1      42.305 -15.994   2.971  1.00  0.00     0.280 HD
HETATM   12  C   UNL     1      41.387 -14.391   3.823  1.00  0.00     0.237 C 
HETATM   13  C   UNL     1      41.223 -13.467   2.618  1.00  0.00     0.047 C 
HETATM   14  C   UNL     1      41.943 -13.916   1.350  1.00  0.00     0.126 C 
BRANCH  10  15
HETATM   15  C   UNL     1      41.592 -16.766   4.679  1.00  0.00     0.273 C 
BRANCH  15  16
HETATM   16  C   UNL     1      42.652 -17.830   4.584  1.00  0.00    -0.032 A 
HETATM   17  C   UNL     1      42.775 -18.610   3.420  1.00  0.00     0.025 A 
HETATM   18  C   UNL     1      43.743 -19.625   3.320  1.00  0.00     0.048 A 
HETATM   19  C   UNL     1      44.593 -19.857   4.408  1.00  0.00     0.016 A 
HETATM   20  C   UNL     1      44.478 -19.094   5.570  1.00  0.00     0.001 A 
HETATM   21  C   UNL     1      43.515 -18.089   5.658  1.00  0.00     0.009 A 
BRANCH  18  22
HETATM   22  C   UNL     1      43.868 -20.472   2.072  1.00  0.00     0.417 C 
HETATM   23  F   UNL     1      43.922 -19.723   0.934  1.00  0.00    -0.166 F 
HETATM   24  F   UNL     1      44.995 -21.232   2.073  1.00  0.00    -0.166 F 
HETATM   25  F   UNL     1      42.823 -21.326   1.914  1.00  0.00    -0.166 F 
ENDBRANCH  18  22
ENDBRANCH  15  16
ENDBRANCH  10  15
ENDBRANCH   4   7
BRANCH   1  26
HETATM   26  N   UNL     1      37.915 -12.548  -3.365  1.00  0.00    -0.307 N 
HETATM   27  C   UNL     1      36.940 -13.108  -4.178  1.00  0.00     0.325 C 
HETATM   28  N   UNL     1      36.402 -12.150  -5.023  1.00  0.00    -0.309 N 
HETATM   29  O   UNL     1      36.628 -14.292  -4.155  1.00  0.00    -0.247 OA
HETATM   30  H   UNL     1      36.635 -11.188  -4.825  1.00  0.00     0.170 HD
HETATM   31  H   UNL     1      38.182 -11.598  -3.576  1.00  0.00     0.170 HD
BRANCH  28  32
HETATM   32  C   UNL     1      35.475 -12.339  -6.074  1.00  0.00     0.041 A 
HETATM   33  C   UNL     1      35.737 -13.092  -7.225  1.00  0.00     0.066 A 
HETATM   34  C   UNL     1      34.762 -13.240  -8.221  1.00  0.00     0.073 A 
HETATM   35  C   UNL     1      33.527 -12.610  -8.075  1.00  0.00     0.073 A 
HETATM   36  C   UNL     1      33.275 -11.836  -6.948  1.00  0.00     0.073 A 
HETATM   37  C   UNL     1      34.230 -11.713  -5.941  1.00  0.00     0.066 A 
BRANCH  34  38
HETATM   38  O   UNL     1      34.897 -13.962  -9.376  1.00  0.00    -0.356 OA
HETATM   39  C   UNL     1      35.464 -15.262  -9.259  1.00  0.00     0.210 C 
ENDBRANCH  34  38
BRANCH  36  40
HETATM   40  O   UNL     1      32.047 -11.253  -6.783  1.00  0.00    -0.356 OA
HETATM   41  C   UNL     1      31.685 -11.251  -5.401  1.00  0.00     0.210 C 
ENDBRANCH  36  40
ENDBRANCH  28  32
ENDBRANCH   1  26
TORSDOF 8
ENDMDL
MODEL 8
REMARK VINA RESULT:      -8.8      8.868     13.515
REMARK  8 active torsions:
REMARK  status: ('A' for Active; 'I' for Inactive)
REMARK    1  A    between atoms: O_2  and  C_3 
REMARK    2  A    between atoms: C_5  and  O_6 
REMARK    3  A    between atoms: C_9  and  N_10 
REMARK       I    between atoms: N_10  and  C_11 
REMARK       I    between atoms: C_11  and  N_12 
REMARK    4  A    between atoms: N_12  and  C_13 
REMARK    5  A    between atoms: C_16  and  N_17 
REMARK    6  A    between atoms: N_20  and  C_22 
REMARK    7  A    between atoms: C_22  and  C_23 
REMARK    8  A    between atoms: C_25  and  C_26 
ROOT
HETATM    1  C   UNL     1      38.235 -13.356  -3.080  1.00  0.00     0.054 A 
HETATM    2  C   UNL     1      39.253 -14.279  -3.277  1.00  0.00     0.148 A 
HETATM    3  N   UNL     1      40.044 -14.779  -2.284  1.00  0.00    -0.241 NA
HETATM    4  C   UNL     1      39.847 -14.353  -1.020  1.00  0.00     0.125 A 
HETATM    5  C   UNL     1      38.808 -13.469  -0.736  1.00  0.00     0.052 A 
HETATM    6  C   UNL     1      38.000 -12.973  -1.765  1.00  0.00     0.035 A 
ENDROOT
BRANCH   4   7
HETATM    7  N   UNL     1      40.757 -14.749  -0.044  1.00  0.00    -0.364 N 
HETATM    8  C   UNL     1      40.251 -15.712   0.941  1.00  0.00     0.152 C 
HETATM    9  C   UNL     1      40.099 -15.133   2.359  1.00  0.00     0.255 C 
HETATM   10  N   UNL     1      41.486 -14.847   2.939  1.00  0.00    -0.066 N 
HETATM   11  H   UNL     1      42.125 -15.446   2.405  1.00  0.00     0.280 HD
HETATM   12  C   UNL     1      41.964 -13.441   2.706  1.00  0.00     0.237 C 
HETATM   13  C   UNL     1      41.774 -12.941   1.276  1.00  0.00     0.047 C 
HETATM   14  C   UNL     1      41.981 -13.988   0.186  1.00  0.00     0.126 C 
BRANCH  10  15
HETATM   15  C   UNL     1      41.680 -15.340   4.359  1.00  0.00     0.273 C 
BRANCH  15  16
HETATM   16  C   UNL     1      42.371 -16.666   4.531  1.00  0.00    -0.032 A 
HETATM   17  C   UNL     1      42.758 -17.418   3.405  1.00  0.00     0.025 A 
HETATM   18  C   UNL     1      43.382 -18.670   3.544  1.00  0.00     0.048 A 
HETATM   19  C   UNL     1      43.615 -19.169   4.832  1.00  0.00     0.016 A 
HETATM   20  C   UNL     1      43.232 -18.437   5.954  1.00  0.00     0.001 A 
HETATM   21  C   UNL     1      42.614 -17.195   5.805  1.00  0.00     0.009 A 
BRANCH  18  22
HETATM   22  C   UNL     1      43.788 -19.484   2.335  1.00  0.00     0.417 C 
HETATM   23  F   UNL     1      42.897 -20.476   2.049  1.00  0.00    -0.166 F 
HETATM   24  F   UNL     1      43.879 -18.729   1.209  1.00  0.00    -0.166 F 
HETATM   25  F   UNL     1      44.992 -20.092   2.495  1.00  0.00    -0.166 F 
ENDBRANCH  18  22
ENDBRANCH  15  16
ENDBRANCH  10  15
ENDBRANCH   4   7
BRANCH   1  26
HETATM   26  N   UNL     1      37.451 -12.760  -4.090  1.00  0.00    -0.307 N 
HETATM   27  C   UNL     1      36.526 -13.397  -4.905  1.00  0.00     0.325 C 
HETATM   28  N   UNL     1      35.985 -12.504  -5.819  1.00  0.00    -0.309 N 
HETATM   29  O   UNL     1      36.253 -14.588  -4.829  1.00  0.00    -0.247 OA
HETATM   30  H   UNL     1      36.178 -11.525  -5.664  1.00  0.00     0.170 HD
HETATM   31  H   UNL     1      37.692 -11.813  -4.343  1.00  0.00     0.170 HD
BRANCH  28  32
HETATM   32  C   UNL     1      35.104 -12.782  -6.889  1.00  0.00     0.041 A 
HETATM   33  C   UNL     1      33.893 -12.110  -7.102  1.00  0.00     0.066 A 
HETATM   34  C   UNL     1      33.076 -12.437  -8.192  1.00  0.00     0.073 A 
HETATM   35  C   UNL     1      33.460 -13.458  -9.060  1.00  0.00     0.073 A 
HETATM   36  C   UNL     1      34.646 -14.148  -8.833  1.00  0.00     0.073 A 
HETATM   37  C   UNL     1      35.477 -13.804  -7.769  1.00  0.00     0.066 A 
BRANCH  34  38
HETATM   38  O   UNL     1      31.885 -11.841  -8.510  1.00  0.00    -0.356 OA
HETATM   39  C   UNL     1      31.097 -12.473  -9.512  1.00  0.00     0.210 C 
ENDBRANCH  34  38
BRANCH  36  40
HETATM   40  O   UNL     1      35.045 -15.121  -9.709  1.00  0.00    -0.356 OA
HETATM   41  C   UNL     1      36.443 -15.375  -9.558  1.00  0.00     0.210 C 
ENDBRANCH  36  40
ENDBRANCH  28  32
ENDBRANCH   1  26
TORSDOF 8
ENDMDL
MODEL 9
REMARK VINA RESULT:      -8.7      6.424     10.991
REMARK  8 active torsions:
REMARK  status: ('A' for Active; 'I' for Inactive)
REMARK    1  A    between atoms: O_2  and  C_3 
REMARK    2  A    between atoms: C_5  and  O_6 
REMARK    3  A    between atoms: C_9  and  N_10 
REMARK       I    between atoms: N_10  and  C_11 
REMARK       I    between atoms: C_11  and  N_12 
REMARK    4  A    between atoms: N_12  and  C_13 
REMARK    5  A    between atoms: C_16  and  N_17 
REMARK    6  A    between atoms: N_20  and  C_22 
REMARK    7  A    between atoms: C_22  and  C_23 
REMARK    8  A    between atoms: C_25  and  C_26 
ROOT
HETATM    1  C   UNL     1      39.976 -13.408   0.584  1.00  0.00     0.054 A 
HETATM    2  C   UNL     1      40.344 -14.679   1.004  1.00  0.00     0.148 A 
HETATM    3  N   UNL     1      40.862 -14.964   2.233  1.00  0.00    -0.241 NA
HETATM    4  C   UNL     1      41.045 -13.957   3.111  1.00  0.00     0.125 A 
HETATM    5  C   UNL     1      40.648 -12.663   2.781  1.00  0.00     0.052 A 
HETATM    6  C   UNL     1      40.110 -12.388   1.519  1.00  0.00     0.035 A 
ENDROOT
BRANCH   4   7
HETATM    7  N   UNL     1      41.715 -14.235   4.300  1.00  0.00    -0.364 N 
HETATM    8  C   UNL     1      43.080 -14.754   4.152  1.00  0.00     0.152 C 
HETATM    9  C   UNL     1      43.237 -16.226   4.574  1.00  0.00     0.255 C 
HETATM   10  N   UNL     1      43.062 -16.338   6.090  1.00  0.00    -0.066 N 
HETATM   11  H   UNL     1      43.259 -15.397   6.449  1.00  0.00     0.280 HD
HETATM   12  C   UNL     1      41.654 -16.644   6.518  1.00  0.00     0.237 C 
HETATM   13  C   UNL     1      40.588 -15.794   5.830  1.00  0.00     0.047 C 
HETATM   14  C   UNL     1      40.984 -14.346   5.558  1.00  0.00     0.126 C 
BRANCH  10  15
HETATM   15  C   UNL     1      44.116 -17.181   6.777  1.00  0.00     0.273 C 
BRANCH  15  16
HETATM   16  C   UNL     1      44.119 -18.654   6.468  1.00  0.00    -0.032 A 
HETATM   17  C   UNL     1      44.373 -19.105   5.159  1.00  0.00     0.025 A 
HETATM   18  C   UNL     1      44.357 -20.476   4.843  1.00  0.00     0.048 A 
HETATM   19  C   UNL     1      44.078 -21.399   5.859  1.00  0.00     0.016 A 
HETATM   20  C   UNL     1      43.819 -20.964   7.158  1.00  0.00     0.001 A 
HETATM   21  C   UNL     1      43.839 -19.602   7.460  1.00  0.00     0.009 A 
BRANCH  18  22
HETATM   22  C   UNL     1      44.619 -20.960   3.434  1.00  0.00     0.417 C 
HETATM   23  F   UNL     1      44.704 -22.319   3.355  1.00  0.00    -0.166 F 
HETATM   24  F   UNL     1      43.635 -20.597   2.570  1.00  0.00    -0.166 F 
HETATM   25  F   UNL     1      45.782 -20.478   2.924  1.00  0.00    -0.166 F 
ENDBRANCH  18  22
ENDBRANCH  15  16
ENDBRANCH  10  15
ENDBRANCH   4   7
BRANCH   1  26
HETATM   26  N   UNL     1      39.512 -13.063  -0.704  1.00  0.00    -0.307 N 
HETATM   27  C   UNL     1      38.192 -13.035  -1.129  1.00  0.00     0.325 C 
HETATM   28  N   UNL     1      38.119 -12.703  -2.473  1.00  0.00    -0.309 N 
HETATM   29  O   UNL     1      37.236 -13.294  -0.408  1.00  0.00    -0.247 OA
HETATM   30  H   UNL     1      38.967 -12.359  -2.901  1.00  0.00     0.170 HD
HETATM   31  H   UNL     1      40.215 -12.972  -1.422  1.00  0.00     0.170 HD
BRANCH  28  32
HETATM   32  C   UNL     1      36.975 -12.683  -3.304  1.00  0.00     0.041 A 
HETATM   33  C   UNL     1      36.671 -13.677  -4.243  1.00  0.00     0.066 A 
HETATM   34  C   UNL     1      35.512 -13.591  -5.026  1.00  0.00     0.073 A 
HETATM   35  C   UNL     1      34.666 -12.491  -4.886  1.00  0.00     0.073 A 
HETATM   36  C   UNL     1      34.982 -11.487  -3.977  1.00  0.00     0.073 A 
HETATM   37  C   UNL     1      36.116 -11.585  -3.174  1.00  0.00     0.066 A 
BRANCH  34  38
HETATM   38  O   UNL     1      35.103 -14.505  -5.959  1.00  0.00    -0.356 OA
HETATM   39  C   UNL     1      35.332 -14.178  -7.325  1.00  0.00     0.210 C 
ENDBRANCH  34  38
BRANCH  36  40
HETATM   40  O   UNL     1      34.130 -10.429  -3.809  1.00  0.00    -0.356 OA
HETATM   41  C   UNL     1      33.870 -10.224  -2.419  1.00  0.00     0.210 C 
ENDBRANCH  36  40
ENDBRANCH  28  32
ENDBRANCH   1  26
TORSDOF 8
ENDMDL
MODEL 10
REMARK VINA RESULT:      -8.7      5.038      6.588
REMARK  8 active torsions:
REMARK  status: ('A' for Active; 'I' for Inactive)
REMARK    1  A    between atoms: O_2  and  C_3 
REMARK    2  A    between atoms: C_5  and  O_6 
REMARK    3  A    between atoms: C_9  and  N_10 
REMARK       I    between atoms: N_10  and  C_11 
REMARK       I    between atoms: C_11  and  N_12 
REMARK    4  A    between atoms: N_12  and  C_13 
REMARK    5  A    between atoms: C_16  and  N_17 
REMARK    6  A    between atoms: N_20  and  C_22 
REMARK    7  A    between atoms: C_22  and  C_23 
REMARK    8  A    between atoms: C_25  and  C_26 
ROOT
HETATM    1  C   UNL     1      39.586 -13.039   6.200  1.00  0.00     0.054 A 
HETATM    2  C   UNL     1      40.241 -14.212   5.852  1.00  0.00     0.148 A 
HETATM    3  N   UNL     1      40.467 -14.617   4.569  1.00  0.00    -0.241 NA
HETATM    4  C   UNL     1      40.024 -13.845   3.556  1.00  0.00     0.125 A 
HETATM    5  C   UNL     1      39.407 -12.625   3.827  1.00  0.00     0.052 A 
HETATM    6  C   UNL     1      39.191 -12.220   5.148  1.00  0.00     0.035 A 
ENDROOT
BRANCH   4   7
HETATM    7  N   UNL     1      40.123 -14.342   2.259  1.00  0.00    -0.364 N 
HETATM    8  C   UNL     1      41.483 -14.433   1.716  1.00  0.00     0.152 C 
HETATM    9  C   UNL     1      41.767 -13.442   0.574  1.00  0.00     0.255 C 
HETATM   10  N   UNL     1      40.951 -13.842  -0.657  1.00  0.00    -0.066 N 
HETATM   11  H   UNL     1      40.739 -14.837  -0.522  1.00  0.00     0.280 HD
HETATM   12  C   UNL     1      39.617 -13.155  -0.752  1.00  0.00     0.237 C 
HETATM   13  C   UNL     1      38.817 -13.151   0.549  1.00  0.00     0.047 C 
HETATM   14  C   UNL     1      38.946 -14.413   1.397  1.00  0.00     0.126 C 
BRANCH  10  15
HETATM   15  C   UNL     1      41.739 -13.847  -1.951  1.00  0.00     0.273 C 
BRANCH  15  16
HETATM   16  C   UNL     1      42.060 -12.508  -2.559  1.00  0.00    -0.032 A 
HETATM   17  C   UNL     1      42.730 -11.527  -1.804  1.00  0.00     0.025 A 
HETATM   18  C   UNL     1      43.018 -10.261  -2.344  1.00  0.00     0.048 A 
HETATM   19  C   UNL     1      42.623  -9.982  -3.658  1.00  0.00     0.016 A 
HETATM   20  C   UNL     1      41.953 -10.944  -4.415  1.00  0.00     0.001 A 
HETATM   21  C   UNL     1      41.673 -12.197  -3.869  1.00  0.00     0.009 A 
BRANCH  18  22
HETATM   22  C   UNL     1      43.729  -9.202  -1.530  1.00  0.00     0.417 C 
HETATM   23  F   UNL     1      43.665  -7.968  -2.106  1.00  0.00    -0.166 F 
HETATM   24  F   UNL     1      43.198  -9.063  -0.287  1.00  0.00    -0.166 F 
HETATM   25  F   UNL     1      45.049  -9.473  -1.360  1.00  0.00    -0.166 F 
ENDBRANCH  18  22
ENDBRANCH  15  16
ENDBRANCH  10  15
ENDBRANCH   4   7
BRANCH   1  26
HETATM   26  N   UNL     1      39.265 -12.627   7.511  1.00  0.00    -0.307 N 
HETATM   27  C   UNL     1      39.875 -11.610   8.233  1.00  0.00     0.325 C 
HETATM   28  N   UNL     1      39.334 -11.525   9.506  1.00  0.00    -0.309 N 
HETATM   29  O   UNL     1      40.779 -10.909   7.796  1.00  0.00    -0.247 OA
HETATM   30  H   UNL     1      38.490 -12.052   9.676  1.00  0.00     0.170 HD
HETATM   31  H   UNL     1      38.635 -13.224   8.025  1.00  0.00     0.170 HD
BRANCH  28  32
HETATM   32  C   UNL     1      39.756 -10.705  10.578  1.00  0.00     0.041 A 
HETATM   33  C   UNL     1      39.217  -9.443  10.860  1.00  0.00     0.066 A 
HETATM   34  C   UNL     1      39.684  -8.692  11.946  1.00  0.00     0.073 A 
HETATM   35  C   UNL     1      40.713  -9.196  12.742  1.00  0.00     0.073 A 
HETATM   36  C   UNL     1      41.271 -10.434  12.446  1.00  0.00     0.073 A 
HETATM   37  C   UNL     1      40.788 -11.198  11.385  1.00  0.00     0.066 A 
BRANCH  34  38
HETATM   38  O   UNL     1      39.225  -7.460  12.328  1.00  0.00    -0.356 OA
HETATM   39  C   UNL     1      38.256  -7.429  13.369  1.00  0.00     0.210 C 
ENDBRANCH  34  38
BRANCH  36  40
HETATM   40  O   UNL     1      42.251 -10.949  13.251  1.00  0.00    -0.356 OA
HETATM   41  C   UNL     1      42.303 -10.229  14.484  1.00  0.00     0.210 C 
ENDBRANCH  36  40
ENDBRANCH  28  32
ENDBRANCH   1  26
TORSDOF 8
ENDMDL
