MODEL 1
REMARK VINA RESULT:      -9.5      0.000      0.000
REMARK  7 active torsions:
REMARK  status: ('A' for Active; 'I' for Inactive)
REMARK    1  A    between atoms: C_2  and  C_3 
REMARK    2  A    between atoms: C_6  and  C_7 
REMARK       I    between atoms: C_7  and  N_8 
REMARK    3  A    between atoms: C_14  and  C_15 
REMARK       I    between atoms: C_15  and  N_16 
REMARK    4  A    between atoms: N_16  and  C_17 
REMARK    5  A    between atoms: C_17  and  C_18 
REMARK       I    between atoms: N_25  and  C_26 
REMARK    6  A    between atoms: C_26  and  C_27 
REMARK    7  A    between atoms: C_30  and  O_31 
ROOT
HETATM    1  C   UNL     1      43.288 -15.799   5.023  1.00  0.00     0.253 C 
HETATM    2  N   UNL     1      42.256 -15.039   4.448  1.00  0.00    -0.348 N 
HETATM    3  C   UNL     1      41.437 -15.538   3.345  1.00  0.00     0.131 C 
HETATM    4  C   UNL     1      40.118 -14.810   3.210  1.00  0.00     0.081 C 
HETATM    5  C   UNL     1      40.250 -13.288   3.175  1.00  0.00     0.142 C 
HETATM    6  O   UNL     1      38.893 -12.806   3.440  1.00  0.00    -0.358 OA
HETATM    7  C   UNL     1      38.668 -11.639   2.640  1.00  0.00     0.206 C 
HETATM    8  C   UNL     1      39.458 -11.895   1.384  1.00  0.00     0.206 C 
HETATM    9  N   UNL     1      40.589 -12.686   1.873  1.00  0.00    -0.300 N 
HETATM   10  C   UNL     1      41.843 -12.729   1.285  1.00  0.00     0.257 C 
HETATM   11  O   UNL     1      42.769 -13.425   1.684  1.00  0.00    -0.267 OA
HETATM   12  C   UNL     1      41.094 -12.805   4.362  1.00  0.00     0.081 C 
HETATM   13  C   UNL     1      42.375 -13.592   4.609  1.00  0.00     0.131 C 
HETATM   14  O   UNL     1      44.000 -15.397   5.939  1.00  0.00    -0.267 OA
ENDROOT
BRANCH   8  15
HETATM   15  C   UNL     1      38.564 -12.646   0.370  1.00  0.00     0.243 C 
HETATM   16  N   UNL     1      38.788 -12.325  -0.942  1.00  0.00    -0.354 N 
HETATM   17  H   UNL     1      39.397 -11.538  -1.146  1.00  0.00     0.162 HD
HETATM   18  O   UNL     1      37.709 -13.455   0.721  1.00  0.00    -0.271 OA
BRANCH  16  19
HETATM   19  C   UNL     1      37.957 -12.734  -2.054  1.00  0.00     0.181 C 
BRANCH  19  20
HETATM   20  C   UNL     1      38.541 -13.976  -2.702  1.00  0.00     0.051 A 
HETATM   21  N   UNL     1      37.685 -14.761  -3.418  1.00  0.00    -0.264 NA
HETATM   22  C   UNL     1      38.181 -15.890  -3.967  1.00  0.00     0.117 A 
HETATM   23  C   UNL     1      39.504 -16.276  -3.852  1.00  0.00     0.019 A 
HETATM   24  C   UNL     1      40.370 -15.457  -3.136  1.00  0.00     0.003 A 
HETATM   25  C   UNL     1      39.888 -14.288  -2.550  1.00  0.00     0.029 A 
ENDBRANCH  19  20
ENDBRANCH  16  19
ENDBRANCH   8  15
BRANCH  10  26
HETATM   26  C   UNL     1      42.163 -11.836   0.149  1.00  0.00     0.032 A 
HETATM   27  C   UNL     1      42.459 -12.433  -1.080  1.00  0.00     0.020 A 
HETATM   28  C   UNL     1      42.689 -11.636  -2.205  1.00  0.00     0.038 A 
HETATM   29  C   UNL     1      42.616 -10.243  -2.117  1.00  0.00     0.068 A 
HETATM   30  C   UNL     1      42.309  -9.651  -0.891  1.00  0.00     0.038 A 
HETATM   31  C   UNL     1      42.068 -10.446   0.236  1.00  0.00     0.020 A 
BRANCH  29  32
HETATM   32  O   UNL     1      42.846  -9.584  -3.292  1.00  0.00    -0.356 OA
HETATM   33  C   UNL     1      42.468 -10.251  -4.490  1.00  0.00     0.210 C 
ENDBRANCH  29  32
ENDBRANCH  10  26
BRANCH   1  34
HETATM   34  C   UNL     1      43.551 -17.162   4.507  1.00  0.00     0.032 A 
HETATM   35  C   UNL     1      43.704 -17.380   3.135  1.00  0.00     0.017 A 
HETATM   36  C   UNL     1      43.953 -18.668   2.661  1.00  0.00     0.008 A 
HETATM   37  C   UNL     1      44.086 -19.742   3.556  1.00  0.00    -0.059 A 
HETATM   38  C   UNL     1      43.970 -19.501   4.933  1.00  0.00     0.008 A 
HETATM   39  C   UNL     1      43.708 -18.215   5.410  1.00  0.00     0.017 A 
BRANCH  37  40
HETATM   40  C   UNL     1      44.362 -21.133   3.041  1.00  0.00     0.034 C 
HETATM   41  C   UNL     1      43.631 -21.427   1.739  1.00  0.00     0.010 C 
ENDBRANCH  37  40
ENDBRANCH   1  34
TORSDOF 7
ENDMDL
MODEL 2
REMARK VINA RESULT:      -9.5      2.940      9.602
REMARK  7 active torsions:
REMARK  status: ('A' for Active; 'I' for Inactive)
REMARK    1  A    between atoms: C_2  and  C_3 
REMARK    2  A    between atoms: C_6  and  C_7 
REMARK       I    between atoms: C_7  and  N_8 
REMARK    3  A    between atoms: C_14  and  C_15 
REMARK       I    between atoms: C_15  and  N_16 
REMARK    4  A    between atoms: N_16  and  C_17 
REMARK    5  A    between atoms: C_17  and  C_18 
REMARK       I    between atoms: N_25  and  C_26 
REMARK    6  A    between atoms: C_26  and  C_27 
REMARK    7  A    between atoms: C_30  and  O_31 
ROOT
HETATM    1  C   UNL     1      39.346 -13.597  -0.167  1.00  0.00     0.253 C 
HETATM    2  N   UNL     1      39.852 -13.599   1.143  1.00  0.00    -0.348 N 
HETATM    3  C   UNL     1      41.192 -13.112   1.467  1.00  0.00     0.131 C 
HETATM    4  C   UNL     1      41.353 -12.745   2.925  1.00  0.00     0.081 C 
HETATM    5  C   UNL     1      40.897 -13.836   3.893  1.00  0.00     0.142 C 
HETATM    6  O   UNL     1      40.767 -13.143   5.176  1.00  0.00    -0.358 OA
HETATM    7  C   UNL     1      41.202 -14.032   6.212  1.00  0.00     0.206 C 
HETATM    8  C   UNL     1      42.297 -14.840   5.568  1.00  0.00     0.206 C 
HETATM    9  N   UNL     1      41.862 -14.915   4.172  1.00  0.00    -0.300 N 
HETATM   10  C   UNL     1      42.179 -15.937   3.293  1.00  0.00     0.257 C 
HETATM   11  O   UNL     1      41.839 -15.968   2.116  1.00  0.00    -0.267 OA
HETATM   12  C   UNL     1      39.478 -14.301   3.534  1.00  0.00     0.081 C 
HETATM   13  C   UNL     1      39.238 -14.564   2.053  1.00  0.00     0.131 C 
HETATM   14  O   UNL     1      38.231 -14.015  -0.468  1.00  0.00    -0.267 OA
ENDROOT
BRANCH   8  15
HETATM   15  C   UNL     1      43.646 -14.107   5.763  1.00  0.00     0.243 C 
HETATM   16  N   UNL     1      44.076 -14.031   7.060  1.00  0.00    -0.354 N 
HETATM   17  H   UNL     1      43.437 -14.317   7.796  1.00  0.00     0.162 HD
HETATM   18  O   UNL     1      44.269 -13.619   4.824  1.00  0.00    -0.271 OA
BRANCH  16  19
HETATM   19  C   UNL     1      45.192 -13.233   7.522  1.00  0.00     0.181 C 
BRANCH  19  20
HETATM   20  C   UNL     1      44.729 -12.289   8.617  1.00  0.00     0.051 A 
HETATM   21  N   UNL     1      43.560 -11.618   8.401  1.00  0.00    -0.264 NA
HETATM   22  C   UNL     1      43.155 -10.745   9.348  1.00  0.00     0.117 A 
HETATM   23  C   UNL     1      43.852 -10.513  10.519  1.00  0.00     0.019 A 
HETATM   24  C   UNL     1      45.032 -11.218  10.735  1.00  0.00     0.003 A 
HETATM   25  C   UNL     1      45.482 -12.121   9.773  1.00  0.00     0.029 A 
ENDBRANCH  19  20
ENDBRANCH  16  19
ENDBRANCH   8  15
BRANCH  10  26
HETATM   26  C   UNL     1      42.906 -17.134   3.776  1.00  0.00     0.032 A 
HETATM   27  C   UNL     1      42.522 -17.670   5.009  1.00  0.00     0.020 A 
HETATM   28  C   UNL     1      43.119 -18.845   5.474  1.00  0.00     0.038 A 
HETATM   29  C   UNL     1      44.091 -19.499   4.713  1.00  0.00     0.068 A 
HETATM   30  C   UNL     1      44.464 -18.967   3.478  1.00  0.00     0.038 A 
HETATM   31  C   UNL     1      43.861 -17.795   3.004  1.00  0.00     0.020 A 
BRANCH  29  32
HETATM   32  O   UNL     1      44.582 -20.644   5.275  1.00  0.00    -0.356 OA
HETATM   33  C   UNL     1      44.797 -21.747   4.403  1.00  0.00     0.210 C 
ENDBRANCH  29  32
ENDBRANCH  10  26
BRANCH   1  34
HETATM   34  C   UNL     1      40.190 -13.070  -1.264  1.00  0.00     0.032 A 
HETATM   35  C   UNL     1      40.991 -13.934  -2.017  1.00  0.00     0.017 A 
HETATM   36  C   UNL     1      41.781 -13.426  -3.048  1.00  0.00     0.008 A 
HETATM   37  C   UNL     1      41.752 -12.057  -3.358  1.00  0.00    -0.059 A 
HETATM   38  C   UNL     1      40.913 -11.208  -2.621  1.00  0.00     0.008 A 
HETATM   39  C   UNL     1      40.130 -11.711  -1.579  1.00  0.00     0.017 A 
BRANCH  37  40
HETATM   40  C   UNL     1      42.603 -11.511  -4.478  1.00  0.00     0.034 C 
HETATM   41  C   UNL     1      42.555  -9.993  -4.558  1.00  0.00     0.010 C 
ENDBRANCH  37  40
ENDBRANCH   1  34
TORSDOF 7
ENDMDL
MODEL 3
REMARK VINA RESULT:      -8.9      2.020      2.602
REMARK  7 active torsions:
REMARK  status: ('A' for Active; 'I' for Inactive)
REMARK    1  A    between atoms: C_2  and  C_3 
REMARK    2  A    between atoms: C_6  and  C_7 
REMARK       I    between atoms: C_7  and  N_8 
REMARK    3  A    between atoms: C_14  and  C_15 
REMARK       I    between atoms: C_15  and  N_16 
REMARK    4  A    between atoms: N_16  and  C_17 
REMARK    5  A    between atoms: C_17  and  C_18 
REMARK       I    between atoms: N_25  and  C_26 
REMARK    6  A    between atoms: C_26  and  C_27 
REMARK    7  A    between atoms: C_30  and  O_31 
ROOT
HETATM    1  C   UNL     1      41.926 -15.867   4.358  1.00  0.00     0.253 C 
HETATM    2  N   UNL     1      41.028 -15.407   3.381  1.00  0.00    -0.348 N 
HETATM    3  C   UNL     1      40.833 -16.099   2.107  1.00  0.00     0.131 C 
HETATM    4  C   UNL     1      39.522 -15.752   1.438  1.00  0.00     0.081 C 
HETATM    5  C   UNL     1      39.270 -14.250   1.311  1.00  0.00     0.142 C 
HETATM    6  O   UNL     1      37.838 -14.152   1.021  1.00  0.00    -0.358 OA
HETATM    7  C   UNL     1      37.642 -13.082   0.089  1.00  0.00     0.206 C 
HETATM    8  C   UNL     1      38.881 -13.107  -0.767  1.00  0.00     0.206 C 
HETATM    9  N   UNL     1      39.908 -13.569   0.169  1.00  0.00    -0.300 N 
HETATM   10  C   UNL     1      41.257 -13.270   0.081  1.00  0.00     0.257 C 
HETATM   11  O   UNL     1      42.111 -13.695   0.850  1.00  0.00    -0.267 OA
HETATM   12  C   UNL     1      39.460 -13.566   2.672  1.00  0.00     0.081 C 
HETATM   13  C   UNL     1      40.710 -13.982   3.437  1.00  0.00     0.131 C 
HETATM   14  O   UNL     1      42.119 -15.294   5.427  1.00  0.00    -0.267 OA
ENDROOT
BRANCH   8  15
HETATM   15  C   UNL     1      38.650 -14.064  -1.961  1.00  0.00     0.243 C 
HETATM   16  N   UNL     1      37.530 -13.797  -2.702  1.00  0.00    -0.354 N 
HETATM   17  H   UNL     1      36.871 -13.110  -2.347  1.00  0.00     0.162 HD
HETATM   18  O   UNL     1      39.406 -14.998  -2.210  1.00  0.00    -0.271 OA
BRANCH  16  19
HETATM   19  C   UNL     1      36.991 -14.655  -3.736  1.00  0.00     0.181 C 
BRANCH  19  20
HETATM   20  C   UNL     1      36.144 -13.837  -4.693  1.00  0.00     0.051 A 
HETATM   21  N   UNL     1      35.976 -14.337  -5.952  1.00  0.00    -0.264 NA
HETATM   22  C   UNL     1      35.258 -13.601  -6.827  1.00  0.00     0.117 A 
HETATM   23  C   UNL     1      34.679 -12.386  -6.507  1.00  0.00     0.019 A 
HETATM   24  C   UNL     1      34.843 -11.898  -5.215  1.00  0.00     0.003 A 
HETATM   25  C   UNL     1      35.585 -12.629  -4.290  1.00  0.00     0.029 A 
ENDBRANCH  19  20
ENDBRANCH  16  19
ENDBRANCH   8  15
BRANCH  10  26
HETATM   26  C   UNL     1      41.742 -12.315  -0.942  1.00  0.00     0.032 A 
HETATM   27  C   UNL     1      42.083 -12.829  -2.197  1.00  0.00     0.020 A 
HETATM   28  C   UNL     1      42.469 -11.963  -3.223  1.00  0.00     0.038 A 
HETATM   29  C   UNL     1      42.508 -10.582  -3.012  1.00  0.00     0.068 A 
HETATM   30  C   UNL     1      42.156 -10.072  -1.761  1.00  0.00     0.038 A 
HETATM   31  C   UNL     1      41.760 -10.936  -0.733  1.00  0.00     0.020 A 
BRANCH  29  32
HETATM   32  O   UNL     1      42.888  -9.847  -4.100  1.00  0.00    -0.356 OA
HETATM   33  C   UNL     1      42.280 -10.179  -5.343  1.00  0.00     0.210 C 
ENDBRANCH  29  32
ENDBRANCH  10  26
BRANCH   1  34
HETATM   34  C   UNL     1      42.697 -17.105   4.102  1.00  0.00     0.032 A 
HETATM   35  C   UNL     1      43.443 -17.242   2.928  1.00  0.00     0.017 A 
HETATM   36  C   UNL     1      44.166 -18.413   2.698  1.00  0.00     0.008 A 
HETATM   37  C   UNL     1      44.177 -19.441   3.655  1.00  0.00    -0.059 A 
HETATM   38  C   UNL     1      43.457 -19.272   4.847  1.00  0.00     0.008 A 
HETATM   39  C   UNL     1      42.721 -18.107   5.074  1.00  0.00     0.017 A 
BRANCH  37  40
HETATM   40  C   UNL     1      44.966 -20.703   3.407  1.00  0.00     0.034 C 
HETATM   41  C   UNL     1      44.371 -21.550   2.291  1.00  0.00     0.010 C 
ENDBRANCH  37  40
ENDBRANCH   1  34
TORSDOF 7
ENDMDL
MODEL 4
REMARK VINA RESULT:      -8.7      1.473      2.153
REMARK  7 active torsions:
REMARK  status: ('A' for Active; 'I' for Inactive)
REMARK    1  A    between atoms: C_2  and  C_3 
REMARK    2  A    between atoms: C_6  and  C_7 
REMARK       I    between atoms: C_7  and  N_8 
REMARK    3  A    between atoms: C_14  and  C_15 
REMARK       I    between atoms: C_15  and  N_16 
REMARK    4  A    between atoms: N_16  and  C_17 
REMARK    5  A    between atoms: C_17  and  C_18 
REMARK       I    between atoms: N_25  and  C_26 
REMARK    6  A    between atoms: C_26  and  C_27 
REMARK    7  A    between atoms: C_30  and  O_31 
ROOT
HETATM    1  C   UNL     1      43.231 -15.961   4.452  1.00  0.00     0.253 C 
HETATM    2  N   UNL     1      42.151 -15.325   3.818  1.00  0.00    -0.348 N 
HETATM    3  C   UNL     1      41.342 -15.987   2.796  1.00  0.00     0.131 C 
HETATM    4  C   UNL     1      39.984 -15.349   2.608  1.00  0.00     0.081 C 
HETATM    5  C   UNL     1      40.035 -13.835   2.398  1.00  0.00     0.142 C 
HETATM    6  O   UNL     1      38.659 -13.396   2.636  1.00  0.00    -0.358 OA
HETATM    7  C   UNL     1      38.359 -12.341   1.714  1.00  0.00     0.206 C 
HETATM    8  C   UNL     1      39.142 -12.698   0.479  1.00  0.00     0.206 C 
HETATM    9  N   UNL     1      40.321 -13.370   1.029  1.00  0.00    -0.300 N 
HETATM   10  C   UNL     1      41.566 -13.416   0.423  1.00  0.00     0.257 C 
HETATM   11  O   UNL     1      42.534 -14.013   0.878  1.00  0.00    -0.267 OA
HETATM   12  C   UNL     1      40.871 -13.177   3.504  1.00  0.00     0.081 C 
HETATM   13  C   UNL     1      42.196 -13.864   3.811  1.00  0.00     0.131 C 
HETATM   14  O   UNL     1      43.935 -15.420   5.301  1.00  0.00    -0.267 OA
ENDROOT
BRANCH   8  15
HETATM   15  C   UNL     1      38.273 -13.605  -0.425  1.00  0.00     0.243 C 
HETATM   16  N   UNL     1      38.688 -13.686  -1.726  1.00  0.00    -0.354 N 
HETATM   17  H   UNL     1      39.421 -13.055  -2.038  1.00  0.00     0.162 HD
HETATM   18  O   UNL     1      37.279 -14.191  -0.004  1.00  0.00    -0.271 OA
BRANCH  16  19
HETATM   19  C   UNL     1      37.940 -14.301  -2.803  1.00  0.00     0.181 C 
BRANCH  19  20
HETATM   20  C   UNL     1      37.321 -13.226  -3.677  1.00  0.00     0.051 A 
HETATM   21  N   UNL     1      37.866 -11.977  -3.600  1.00  0.00    -0.264 NA
HETATM   22  C   UNL     1      37.302 -11.001  -4.342  1.00  0.00     0.117 A 
HETATM   23  C   UNL     1      36.220 -11.207  -5.179  1.00  0.00     0.019 A 
HETATM   24  C   UNL     1      35.687 -12.490  -5.262  1.00  0.00     0.003 A 
HETATM   25  C   UNL     1      36.242 -13.518  -4.503  1.00  0.00     0.029 A 
ENDBRANCH  19  20
ENDBRANCH  16  19
ENDBRANCH   8  15
BRANCH  10  26
HETATM   26  C   UNL     1      41.820 -12.643  -0.814  1.00  0.00     0.032 A 
HETATM   27  C   UNL     1      42.031 -11.267  -0.685  1.00  0.00     0.020 A 
HETATM   28  C   UNL     1      42.354 -10.503  -1.810  1.00  0.00     0.038 A 
HETATM   29  C   UNL     1      42.480 -11.104  -3.066  1.00  0.00     0.068 A 
HETATM   30  C   UNL     1      42.279 -12.479  -3.188  1.00  0.00     0.038 A 
HETATM   31  C   UNL     1      41.964 -13.249  -2.062  1.00  0.00     0.020 A 
BRANCH  29  32
HETATM   32  O   UNL     1      42.815 -10.248  -4.078  1.00  0.00    -0.356 OA
HETATM   33  C   UNL     1      42.258  -8.940  -4.025  1.00  0.00     0.210 C 
ENDBRANCH  29  32
ENDBRANCH  10  26
BRANCH   1  34
HETATM   34  C   UNL     1      43.559 -17.358   4.089  1.00  0.00     0.032 A 
HETATM   35  C   UNL     1      43.845 -17.694   2.762  1.00  0.00     0.017 A 
HETATM   36  C   UNL     1      44.153 -19.014   2.432  1.00  0.00     0.008 A 
HETATM   37  C   UNL     1      44.211 -20.001   3.428  1.00  0.00    -0.059 A 
HETATM   38  C   UNL     1      43.961 -19.642   4.761  1.00  0.00     0.008 A 
HETATM   39  C   UNL     1      43.640 -18.324   5.094  1.00  0.00     0.017 A 
BRANCH  37  40
HETATM   40  C   UNL     1      44.551 -21.427   3.069  1.00  0.00     0.034 C 
HETATM   41  C   UNL     1      44.073 -21.805   1.675  1.00  0.00     0.010 C 
ENDBRANCH  37  40
ENDBRANCH   1  34
TORSDOF 7
ENDMDL
MODEL 5
REMARK VINA RESULT:      -8.6      2.384      3.176
REMARK  7 active torsions:
REMARK  status: ('A' for Active; 'I' for Inactive)
REMARK    1  A    between atoms: C_2  and  C_3 
REMARK    2  A    between atoms: C_6  and  C_7 
REMARK       I    between atoms: C_7  and  N_8 
REMARK    3  A    between atoms: C_14  and  C_15 
REMARK       I    between atoms: C_15  and  N_16 
REMARK    4  A    between atoms: N_16  and  C_17 
REMARK    5  A    between atoms: C_17  and  C_18 
REMARK       I    between atoms: N_25  and  C_26 
REMARK    6  A    between atoms: C_26  and  C_27 
REMARK    7  A    between atoms: C_30  and  O_31 
ROOT
HETATM    1  C   UNL     1      42.306 -15.262   3.491  1.00  0.00     0.253 C 
HETATM    2  N   UNL     1      41.295 -14.756   2.659  1.00  0.00    -0.348 N 
HETATM    3  C   UNL     1      40.788 -15.495   1.503  1.00  0.00     0.131 C 
HETATM    4  C   UNL     1      39.420 -15.031   1.056  1.00  0.00     0.081 C 
HETATM    5  C   UNL     1      39.313 -13.519   0.854  1.00  0.00     0.142 C 
HETATM    6  O   UNL     1      37.872 -13.265   0.821  1.00  0.00    -0.358 OA
HETATM    7  C   UNL     1      37.621 -12.238  -0.145  1.00  0.00     0.206 C 
HETATM    8  C   UNL     1      38.664 -12.465  -1.206  1.00  0.00     0.206 C 
HETATM    9  N   UNL     1      39.794 -12.993  -0.437  1.00  0.00    -0.300 N 
HETATM   10  C   UNL     1      41.126 -12.866  -0.792  1.00  0.00     0.257 C 
HETATM   11  O   UNL     1      42.059 -13.345  -0.158  1.00  0.00    -0.267 OA
HETATM   12  C   UNL     1      39.831 -12.784   2.097  1.00  0.00     0.081 C 
HETATM   13  C   UNL     1      41.151 -13.302   2.655  1.00  0.00     0.131 C 
HETATM   14  O   UNL     1      42.760 -14.655   4.458  1.00  0.00    -0.267 OA
ENDROOT
BRANCH   8  15
HETATM   15  C   UNL     1      38.108 -13.457  -2.256  1.00  0.00     0.243 C 
HETATM   16  N   UNL     1      37.225 -12.912  -3.148  1.00  0.00    -0.354 N 
HETATM   17  H   UNL     1      36.891 -11.967  -2.979  1.00  0.00     0.162 HD
HETATM   18  O   UNL     1      38.425 -14.643  -2.271  1.00  0.00    -0.271 OA
BRANCH  16  19
HETATM   19  C   UNL     1      36.422 -13.664  -4.090  1.00  0.00     0.181 C 
BRANCH  19  20
HETATM   20  C   UNL     1      35.610 -12.710  -4.947  1.00  0.00     0.051 A 
HETATM   21  N   UNL     1      34.290 -13.009  -5.123  1.00  0.00    -0.264 NA
HETATM   22  C   UNL     1      33.563 -12.192  -5.915  1.00  0.00     0.117 A 
HETATM   23  C   UNL     1      34.084 -11.071  -6.537  1.00  0.00     0.019 A 
HETATM   24  C   UNL     1      35.426 -10.768  -6.333  1.00  0.00     0.003 A 
HETATM   25  C   UNL     1      36.206 -11.596  -5.528  1.00  0.00     0.029 A 
ENDBRANCH  19  20
ENDBRANCH  16  19
ENDBRANCH   8  15
BRANCH  10  26
HETATM   26  C   UNL     1      41.509 -12.041  -1.961  1.00  0.00     0.032 A 
HETATM   27  C   UNL     1      41.719 -10.676  -1.747  1.00  0.00     0.020 A 
HETATM   28  C   UNL     1      42.160  -9.866  -2.798  1.00  0.00     0.038 A 
HETATM   29  C   UNL     1      42.405 -10.410  -4.061  1.00  0.00     0.068 A 
HETATM   30  C   UNL     1      42.205 -11.776  -4.267  1.00  0.00     0.038 A 
HETATM   31  C   UNL     1      41.772 -12.592  -3.215  1.00  0.00     0.020 A 
BRANCH  29  32
HETATM   32  O   UNL     1      42.847  -9.514  -4.994  1.00  0.00    -0.356 OA
HETATM   33  C   UNL     1      42.470  -8.155  -4.809  1.00  0.00     0.210 C 
ENDBRANCH  29  32
ENDBRANCH  10  26
BRANCH   1  34
HETATM   34  C   UNL     1      42.875 -16.598   3.203  1.00  0.00     0.032 A 
HETATM   35  C   UNL     1      43.667 -16.799   2.068  1.00  0.00     0.017 A 
HETATM   36  C   UNL     1      44.198 -18.062   1.807  1.00  0.00     0.008 A 
HETATM   37  C   UNL     1      43.972 -19.126   2.695  1.00  0.00    -0.059 A 
HETATM   38  C   UNL     1      43.210 -18.900   3.851  1.00  0.00     0.008 A 
HETATM   39  C   UNL     1      42.665 -17.640   4.109  1.00  0.00     0.017 A 
BRANCH  37  40
HETATM   40  C   UNL     1      44.553 -20.490   2.413  1.00  0.00     0.034 C 
HETATM   41  C   UNL     1      43.555 -21.419   1.739  1.00  0.00     0.010 C 
ENDBRANCH  37  40
ENDBRANCH   1  34
TORSDOF 7
ENDMDL
MODEL 6
REMARK VINA RESULT:      -8.2      4.102      9.737
REMARK  7 active torsions:
REMARK  status: ('A' for Active; 'I' for Inactive)
REMARK    1  A    between atoms: C_2  and  C_3 
REMARK    2  A    between atoms: C_6  and  C_7 
REMARK       I    between atoms: C_7  and  N_8 
REMARK    3  A    between atoms: C_14  and  C_15 
REMARK       I    between atoms: C_15  and  N_16 
REMARK    4  A    between atoms: N_16  and  C_17 
REMARK    5  A    between atoms: C_17  and  C_18 
REMARK       I    between atoms: N_25  and  C_26 
REMARK    6  A    between atoms: C_26  and  C_27 
REMARK    7  A    between atoms: C_30  and  O_31 
ROOT
HETATM    1  C   UNL     1      37.513  -9.204   1.799  1.00  0.00     0.253 C 
HETATM    2  N   UNL     1      38.463 -10.104   2.308  1.00  0.00    -0.348 N 
HETATM    3  C   UNL     1      38.093 -11.410   2.851  1.00  0.00     0.131 C 
HETATM    4  C   UNL     1      39.246 -12.388   2.880  1.00  0.00     0.081 C 
HETATM    5  C   UNL     1      40.511 -11.837   3.540  1.00  0.00     0.142 C 
HETATM    6  O   UNL     1      41.566 -12.757   3.113  1.00  0.00    -0.358 OA
HETATM    7  C   UNL     1      42.477 -12.932   4.205  1.00  0.00     0.206 C 
HETATM    8  C   UNL     1      41.606 -12.839   5.430  1.00  0.00     0.206 C 
HETATM    9  N   UNL     1      40.565 -11.898   5.012  1.00  0.00    -0.300 N 
HETATM   10  C   UNL     1      39.854 -11.069   5.864  1.00  0.00     0.257 C 
HETATM   11  O   UNL     1      38.960 -10.312   5.504  1.00  0.00    -0.267 OA
HETATM   12  C   UNL     1      40.877 -10.480   2.925  1.00  0.00     0.081 C 
HETATM   13  C   UNL     1      39.716  -9.506   2.763  1.00  0.00     0.131 C 
HETATM   14  O   UNL     1      37.796  -8.095   1.353  1.00  0.00    -0.267 OA
ENDROOT
BRANCH   8  15
HETATM   15  C   UNL     1      41.070 -14.249   5.775  1.00  0.00     0.243 C 
HETATM   16  N   UNL     1      42.011 -15.120   6.252  1.00  0.00    -0.354 N 
HETATM   17  H   UNL     1      42.988 -14.844   6.208  1.00  0.00     0.162 HD
HETATM   18  O   UNL     1      39.892 -14.561   5.617  1.00  0.00    -0.271 OA
BRANCH  16  19
HETATM   19  C   UNL     1      41.806 -16.539   6.455  1.00  0.00     0.181 C 
BRANCH  19  20
HETATM   20  C   UNL     1      42.494 -17.321   5.351  1.00  0.00     0.051 A 
HETATM   21  N   UNL     1      41.885 -17.333   4.130  1.00  0.00    -0.264 NA
HETATM   22  C   UNL     1      42.464 -18.056   3.149  1.00  0.00     0.117 A 
HETATM   23  C   UNL     1      43.640 -18.764   3.315  1.00  0.00     0.019 A 
HETATM   24  C   UNL     1      44.261 -18.727   4.560  1.00  0.00     0.003 A 
HETATM   25  C   UNL     1      43.685 -17.996   5.597  1.00  0.00     0.029 A 
ENDBRANCH  19  20
ENDBRANCH  16  19
ENDBRANCH   8  15
BRANCH  10  26
HETATM   26  C   UNL     1      40.213 -10.992   7.298  1.00  0.00     0.032 A 
HETATM   27  C   UNL     1      41.408 -10.347   7.633  1.00  0.00     0.020 A 
HETATM   28  C   UNL     1      41.755 -10.176   8.976  1.00  0.00     0.038 A 
HETATM   29  C   UNL     1      40.913 -10.634   9.992  1.00  0.00     0.068 A 
HETATM   30  C   UNL     1      39.716 -11.268   9.654  1.00  0.00     0.038 A 
HETATM   31  C   UNL     1      39.360 -11.433   8.311  1.00  0.00     0.020 A 
BRANCH  29  32
HETATM   32  O   UNL     1      41.362 -10.390  11.260  1.00  0.00    -0.356 OA
HETATM   33  C   UNL     1      40.680 -11.047  12.322  1.00  0.00     0.210 C 
ENDBRANCH  29  32
ENDBRANCH  10  26
BRANCH   1  34
HETATM   34  C   UNL     1      36.084  -9.591   1.796  1.00  0.00     0.032 A 
HETATM   35  C   UNL     1      35.207  -9.063   2.748  1.00  0.00     0.017 A 
HETATM   36  C   UNL     1      33.862  -9.434   2.735  1.00  0.00     0.008 A 
HETATM   37  C   UNL     1      33.376 -10.309   1.750  1.00  0.00    -0.059 A 
HETATM   38  C   UNL     1      34.259 -10.799   0.776  1.00  0.00     0.008 A 
HETATM   39  C   UNL     1      35.608 -10.440   0.794  1.00  0.00     0.017 A 
BRANCH  37  40
HETATM   40  C   UNL     1      31.920 -10.704   1.734  1.00  0.00     0.034 C 
HETATM   41  C   UNL     1      31.531 -11.541   2.944  1.00  0.00     0.010 C 
ENDBRANCH  37  40
ENDBRANCH   1  34
TORSDOF 7
ENDMDL
MODEL 7
REMARK VINA RESULT:      -7.9      2.990      4.556
REMARK  7 active torsions:
REMARK  status: ('A' for Active; 'I' for Inactive)
REMARK    1  A    between atoms: C_2  and  C_3 
REMARK    2  A    between atoms: C_6  and  C_7 
REMARK       I    between atoms: C_7  and  N_8 
REMARK    3  A    between atoms: C_14  and  C_15 
REMARK       I    between atoms: C_15  and  N_16 
REMARK    4  A    between atoms: N_16  and  C_17 
REMARK    5  A    between atoms: C_17  and  C_18 
REMARK       I    between atoms: N_25  and  C_26 
REMARK    6  A    between atoms: C_26  and  C_27 
REMARK    7  A    between atoms: C_30  and  O_31 
ROOT
HETATM    1  C   UNL     1      43.014 -14.791   4.695  1.00  0.00     0.253 C 
HETATM    2  N   UNL     1      41.903 -13.958   4.488  1.00  0.00    -0.348 N 
HETATM    3  C   UNL     1      40.800 -14.328   3.601  1.00  0.00     0.131 C 
HETATM    4  C   UNL     1      39.526 -13.567   3.890  1.00  0.00     0.081 C 
HETATM    5  C   UNL     1      39.712 -12.051   3.960  1.00  0.00     0.142 C 
HETATM    6  O   UNL     1      38.496 -11.573   4.619  1.00  0.00    -0.358 OA
HETATM    7  C   UNL     1      38.121 -10.328   4.018  1.00  0.00     0.206 C 
HETATM    8  C   UNL     1      38.540 -10.472   2.580  1.00  0.00     0.206 C 
HETATM    9  N   UNL     1      39.724 -11.329   2.675  1.00  0.00    -0.300 N 
HETATM   10  C   UNL     1      40.775 -11.337   1.774  1.00  0.00     0.257 C 
HETATM   11  O   UNL     1      41.742 -12.086   1.846  1.00  0.00    -0.267 OA
HETATM   12  C   UNL     1      40.860 -11.705   4.919  1.00  0.00     0.081 C 
HETATM   13  C   UNL     1      42.125 -12.536   4.743  1.00  0.00     0.131 C 
HETATM   14  O   UNL     1      43.960 -14.495   5.421  1.00  0.00    -0.267 OA
ENDROOT
BRANCH   8  15
HETATM   15  C   UNL     1      37.378 -11.101   1.776  1.00  0.00     0.243 C 
HETATM   16  N   UNL     1      36.281 -10.296   1.626  1.00  0.00    -0.354 N 
HETATM   17  H   UNL     1      36.244  -9.431   2.158  1.00  0.00     0.162 HD
HETATM   18  O   UNL     1      37.434 -12.241   1.323  1.00  0.00    -0.271 OA
BRANCH  16  19
HETATM   19  C   UNL     1      35.002 -10.720   1.095  1.00  0.00     0.181 C 
BRANCH  19  20
HETATM   20  C   UNL     1      33.882 -10.202   1.979  1.00  0.00     0.051 A 
HETATM   21  N   UNL     1      32.692 -10.867   1.921  1.00  0.00    -0.264 NA
HETATM   22  C   UNL     1      31.674 -10.395   2.671  1.00  0.00     0.117 A 
HETATM   23  C   UNL     1      31.784  -9.292   3.499  1.00  0.00     0.019 A 
HETATM   24  C   UNL     1      33.009  -8.636   3.563  1.00  0.00     0.003 A 
HETATM   25  C   UNL     1      34.078  -9.093   2.795  1.00  0.00     0.029 A 
ENDBRANCH  19  20
ENDBRANCH  16  19
ENDBRANCH   8  15
BRANCH  10  26
HETATM   26  C   UNL     1      40.824 -10.340   0.679  1.00  0.00     0.032 A 
HETATM   27  C   UNL     1      41.488  -9.136   0.930  1.00  0.00     0.020 A 
HETATM   28  C   UNL     1      41.634  -8.194  -0.092  1.00  0.00     0.038 A 
HETATM   29  C   UNL     1      41.131  -8.448  -1.371  1.00  0.00     0.068 A 
HETATM   30  C   UNL     1      40.478  -9.657  -1.620  1.00  0.00     0.038 A 
HETATM   31  C   UNL     1      40.338 -10.606  -0.601  1.00  0.00     0.020 A 
BRANCH  29  32
HETATM   32  O   UNL     1      41.354  -7.453  -2.281  1.00  0.00    -0.356 OA
HETATM   33  C   UNL     1      42.397  -7.667  -3.224  1.00  0.00     0.210 C 
ENDBRANCH  29  32
ENDBRANCH  10  26
BRANCH   1  34
HETATM   34  C   UNL     1      43.072 -16.100   4.006  1.00  0.00     0.032 A 
HETATM   35  C   UNL     1      42.567 -17.247   4.626  1.00  0.00     0.017 A 
HETATM   36  C   UNL     1      42.627 -18.475   3.966  1.00  0.00     0.008 A 
HETATM   37  C   UNL     1      43.159 -18.561   2.669  1.00  0.00    -0.059 A 
HETATM   38  C   UNL     1      43.625 -17.394   2.044  1.00  0.00     0.008 A 
HETATM   39  C   UNL     1      43.579 -16.166   2.707  1.00  0.00     0.017 A 
BRANCH  37  40
HETATM   40  C   UNL     1      43.216 -19.889   1.956  1.00  0.00     0.034 C 
HETATM   41  C   UNL     1      44.344 -20.774   2.465  1.00  0.00     0.010 C 
ENDBRANCH  37  40
ENDBRANCH   1  34
TORSDOF 7
ENDMDL
MODEL 8
REMARK VINA RESULT:      -7.9      2.813      6.450
REMARK  7 active torsions:
REMARK  status: ('A' for Active; 'I' for Inactive)
REMARK    1  A    between atoms: C_2  and  C_3 
REMARK    2  A    between atoms: C_6  and  C_7 
REMARK       I    between atoms: C_7  and  N_8 
REMARK    3  A    between atoms: C_14  and  C_15 
REMARK       I    between atoms: C_15  and  N_16 
REMARK    4  A    between atoms: N_16  and  C_17 
REMARK    5  A    between atoms: C_17  and  C_18 
REMARK       I    between atoms: N_25  and  C_26 
REMARK    6  A    between atoms: C_26  and  C_27 
REMARK    7  A    between atoms: C_30  and  O_31 
ROOT
HETATM    1  C   UNL     1      41.817 -16.620   2.109  1.00  0.00     0.253 C 
HETATM    2  N   UNL     1      41.840 -15.298   1.635  1.00  0.00    -0.348 N 
HETATM    3  C   UNL     1      42.118 -14.157   2.505  1.00  0.00     0.131 C 
HETATM    4  C   UNL     1      42.576 -12.931   1.748  1.00  0.00     0.081 C 
HETATM    5  C   UNL     1      41.664 -12.546   0.583  1.00  0.00     0.142 C 
HETATM    6  O   UNL     1      42.476 -11.626  -0.216  1.00  0.00    -0.358 OA
HETATM    7  C   UNL     1      41.617 -10.601  -0.729  1.00  0.00     0.206 C 
HETATM    8  C   UNL     1      40.583 -10.413   0.350  1.00  0.00     0.206 C 
HETATM    9  N   UNL     1      40.464 -11.757   0.918  1.00  0.00    -0.300 N 
HETATM   10  C   UNL     1      39.332 -12.264   1.533  1.00  0.00     0.257 C 
HETATM   11  O   UNL     1      39.260 -13.378   2.038  1.00  0.00    -0.267 OA
HETATM   12  C   UNL     1      41.418 -13.763  -0.319  1.00  0.00     0.081 C 
HETATM   13  C   UNL     1      41.074 -15.054   0.414  1.00  0.00     0.131 C 
HETATM   14  O   UNL     1      41.570 -17.593   1.402  1.00  0.00    -0.267 OA
ENDROOT
BRANCH   8  15
HETATM   15  C   UNL     1      41.090  -9.352   1.356  1.00  0.00     0.243 C 
HETATM   16  N   UNL     1      41.071  -9.748   2.666  1.00  0.00    -0.354 N 
HETATM   17  H   UNL     1      40.605 -10.621   2.898  1.00  0.00     0.162 HD
HETATM   18  O   UNL     1      41.464  -8.237   1.002  1.00  0.00    -0.271 OA
BRANCH  16  19
HETATM   19  C   UNL     1      41.303  -8.881   3.802  1.00  0.00     0.181 C 
BRANCH  19  20
HETATM   20  C   UNL     1      41.366  -9.707   5.073  1.00  0.00     0.051 A 
HETATM   21  N   UNL     1      41.601  -9.034   6.237  1.00  0.00    -0.264 NA
HETATM   22  C   UNL     1      41.699  -9.759   7.371  1.00  0.00     0.117 A 
HETATM   23  C   UNL     1      41.560 -11.135   7.412  1.00  0.00     0.019 A 
HETATM   24  C   UNL     1      41.302 -11.806   6.221  1.00  0.00     0.003 A 
HETATM   25  C   UNL     1      41.202 -11.087   5.031  1.00  0.00     0.029 A 
ENDBRANCH  19  20
ENDBRANCH  16  19
ENDBRANCH   8  15
BRANCH  10  26
HETATM   26  C   UNL     1      38.075 -11.481   1.538  1.00  0.00     0.032 A 
HETATM   27  C   UNL     1      37.096 -11.825   0.601  1.00  0.00     0.020 A 
HETATM   28  C   UNL     1      35.860 -11.173   0.613  1.00  0.00     0.038 A 
HETATM   29  C   UNL     1      35.586 -10.185   1.563  1.00  0.00     0.068 A 
HETATM   30  C   UNL     1      36.562  -9.853   2.504  1.00  0.00     0.038 A 
HETATM   31  C   UNL     1      37.798 -10.510   2.500  1.00  0.00     0.020 A 
BRANCH  29  32
HETATM   32  O   UNL     1      34.336  -9.638   1.475  1.00  0.00    -0.356 OA
HETATM   33  C   UNL     1      33.235 -10.513   1.691  1.00  0.00     0.210 C 
ENDBRANCH  29  32
ENDBRANCH  10  26
BRANCH   1  34
HETATM   34  C   UNL     1      42.098 -16.876   3.540  1.00  0.00     0.032 A 
HETATM   35  C   UNL     1      41.065 -16.830   4.482  1.00  0.00     0.017 A 
HETATM   36  C   UNL     1      41.342 -17.074   5.827  1.00  0.00     0.008 A 
HETATM   37  C   UNL     1      42.644 -17.399   6.238  1.00  0.00    -0.059 A 
HETATM   38  C   UNL     1      43.663 -17.481   5.277  1.00  0.00     0.008 A 
HETATM   39  C   UNL     1      43.392 -17.225   3.930  1.00  0.00     0.017 A 
BRANCH  37  40
HETATM   40  C   UNL     1      42.939 -17.668   7.693  1.00  0.00     0.034 C 
HETATM   41  C   UNL     1      44.140 -18.583   7.883  1.00  0.00     0.010 C 
ENDBRANCH  37  40
ENDBRANCH   1  34
TORSDOF 7
ENDMDL
MODEL 9
REMARK VINA RESULT:      -7.8      2.529      3.110
REMARK  7 active torsions:
REMARK  status: ('A' for Active; 'I' for Inactive)
REMARK    1  A    between atoms: C_2  and  C_3 
REMARK    2  A    between atoms: C_6  and  C_7 
REMARK       I    between atoms: C_7  and  N_8 
REMARK    3  A    between atoms: C_14  and  C_15 
REMARK       I    between atoms: C_15  and  N_16 
REMARK    4  A    between atoms: N_16  and  C_17 
REMARK    5  A    between atoms: C_17  and  C_18 
REMARK       I    between atoms: N_25  and  C_26 
REMARK    6  A    between atoms: C_26  and  C_27 
REMARK    7  A    between atoms: C_30  and  O_31 
ROOT
HETATM    1  C   UNL     1      43.169 -14.884   4.445  1.00  0.00     0.253 C 
HETATM    2  N   UNL     1      42.040 -14.081   4.218  1.00  0.00    -0.348 N 
HETATM    3  C   UNL     1      40.936 -14.506   3.358  1.00  0.00     0.131 C 
HETATM    4  C   UNL     1      39.650 -13.758   3.631  1.00  0.00     0.081 C 
HETATM    5  C   UNL     1      39.808 -12.237   3.642  1.00  0.00     0.142 C 
HETATM    6  O   UNL     1      38.589 -11.757   4.295  1.00  0.00    -0.358 OA
HETATM    7  C   UNL     1      38.184 -10.543   3.652  1.00  0.00     0.206 C 
HETATM    8  C   UNL     1      38.592 -10.734   2.215  1.00  0.00     0.206 C 
HETATM    9  N   UNL     1      39.793 -11.564   2.330  1.00  0.00    -0.300 N 
HETATM   10  C   UNL     1      40.835 -11.586   1.419  1.00  0.00     0.257 C 
HETATM   11  O   UNL     1      41.817 -12.314   1.509  1.00  0.00    -0.267 OA
HETATM   12  C   UNL     1      40.958 -11.833   4.574  1.00  0.00     0.081 C 
HETATM   13  C   UNL     1      42.237 -12.647   4.416  1.00  0.00     0.131 C 
HETATM   14  O   UNL     1      44.116 -14.544   5.149  1.00  0.00    -0.267 OA
ENDROOT
BRANCH   8  15
HETATM   15  C   UNL     1      37.434 -11.415   1.448  1.00  0.00     0.243 C 
HETATM   16  N   UNL     1      36.379 -10.594   1.152  1.00  0.00    -0.354 N 
HETATM   17  H   UNL     1      36.360  -9.668   1.569  1.00  0.00     0.162 HD
HETATM   18  O   UNL     1      37.457 -12.605   1.145  1.00  0.00    -0.271 OA
BRANCH  16  19
HETATM   19  C   UNL     1      35.104 -11.032   0.625  1.00  0.00     0.181 C 
BRANCH  19  20
HETATM   20  C   UNL     1      35.061 -10.799  -0.874  1.00  0.00     0.051 A 
HETATM   21  N   UNL     1      33.837 -10.860  -1.474  1.00  0.00    -0.264 NA
HETATM   22  C   UNL     1      33.788 -10.694  -2.813  1.00  0.00     0.117 A 
HETATM   23  C   UNL     1      34.904 -10.452  -3.594  1.00  0.00     0.019 A 
HETATM   24  C   UNL     1      36.143 -10.374  -2.966  1.00  0.00     0.003 A 
HETATM   25  C   UNL     1      36.229 -10.549  -1.586  1.00  0.00     0.029 A 
ENDBRANCH  19  20
ENDBRANCH  16  19
ENDBRANCH   8  15
BRANCH  10  26
HETATM   26  C   UNL     1      40.854 -10.632   0.287  1.00  0.00     0.032 A 
HETATM   27  C   UNL     1      41.587  -9.452   0.448  1.00  0.00     0.020 A 
HETATM   28  C   UNL     1      41.705  -8.554  -0.616  1.00  0.00     0.038 A 
HETATM   29  C   UNL     1      41.104  -8.828  -1.848  1.00  0.00     0.068 A 
HETATM   30  C   UNL     1      40.383 -10.012  -2.008  1.00  0.00     0.038 A 
HETATM   31  C   UNL     1      40.270 -10.918  -0.947  1.00  0.00     0.020 A 
BRANCH  29  32
HETATM   32  O   UNL     1      41.309  -7.876  -2.808  1.00  0.00    -0.356 OA
HETATM   33  C   UNL     1      42.393  -8.090  -3.704  1.00  0.00     0.210 C 
ENDBRANCH  29  32
ENDBRANCH  10  26
BRANCH   1  34
HETATM   34  C   UNL     1      43.245 -16.217   3.805  1.00  0.00     0.032 A 
HETATM   35  C   UNL     1      42.812 -17.356   4.491  1.00  0.00     0.017 A 
HETATM   36  C   UNL     1      42.888 -18.606   3.877  1.00  0.00     0.008 A 
HETATM   37  C   UNL     1      43.365 -18.725   2.562  1.00  0.00    -0.059 A 
HETATM   38  C   UNL     1      43.759 -17.569   1.872  1.00  0.00     0.008 A 
HETATM   39  C   UNL     1      43.696 -16.317   2.487  1.00  0.00     0.017 A 
BRANCH  37  40
HETATM   40  C   UNL     1      43.440 -20.079   1.899  1.00  0.00     0.034 C 
HETATM   41  C   UNL     1      44.480 -20.984   2.542  1.00  0.00     0.010 C 
ENDBRANCH  37  40
ENDBRANCH   1  34
TORSDOF 7
ENDMDL
MODEL 10
REMARK VINA RESULT:      -7.3      2.347      3.394
REMARK  7 active torsions:
REMARK  status: ('A' for Active; 'I' for Inactive)
REMARK    1  A    between atoms: C_2  and  C_3 
REMARK    2  A    between atoms: C_6  and  C_7 
REMARK       I    between atoms: C_7  and  N_8 
REMARK    3  A    between atoms: C_14  and  C_15 
REMARK       I    between atoms: C_15  and  N_16 
REMARK    4  A    between atoms: N_16  and  C_17 
REMARK    5  A    between atoms: C_17  and  C_18 
REMARK       I    between atoms: N_25  and  C_26 
REMARK    6  A    between atoms: C_26  and  C_27 
REMARK    7  A    between atoms: C_30  and  O_31 
ROOT
HETATM    1  C   UNL     1      41.287 -14.156   4.611  1.00  0.00     0.253 C 
HETATM    2  N   UNL     1      40.435 -13.560   3.667  1.00  0.00    -0.348 N 
HETATM    3  C   UNL     1      40.141 -14.179   2.375  1.00  0.00     0.131 C 
HETATM    4  C   UNL     1      38.870 -13.657   1.743  1.00  0.00     0.081 C 
HETATM    5  C   UNL     1      38.795 -12.132   1.671  1.00  0.00     0.142 C 
HETATM    6  O   UNL     1      37.381 -11.857   1.412  1.00  0.00    -0.358 OA
HETATM    7  C   UNL     1      37.298 -10.739   0.520  1.00  0.00     0.206 C 
HETATM    8  C   UNL     1      38.512 -10.879  -0.360  1.00  0.00     0.206 C 
HETATM    9  N   UNL     1      39.492 -11.491   0.540  1.00  0.00    -0.300 N 
HETATM   10  C   UNL     1      40.865 -11.349   0.436  1.00  0.00     0.257 C 
HETATM   11  O   UNL     1      41.674 -11.898   1.175  1.00  0.00    -0.267 OA
HETATM   12  C   UNL     1      39.085 -11.524   3.050  1.00  0.00     0.081 C 
HETATM   13  C   UNL     1      40.288 -12.111   3.777  1.00  0.00     0.131 C 
HETATM   14  O   UNL     1      41.563 -13.649   5.695  1.00  0.00    -0.267 OA
ENDROOT
BRANCH   8  15
HETATM   15  C   UNL     1      38.152 -11.758  -1.580  1.00  0.00     0.243 C 
HETATM   16  N   UNL     1      37.437 -11.120  -2.557  1.00  0.00    -0.354 N 
HETATM   17  H   UNL     1      37.075 -10.191  -2.359  1.00  0.00     0.162 HD
HETATM   18  O   UNL     1      38.471 -12.942  -1.654  1.00  0.00    -0.271 OA
BRANCH  16  19
HETATM   19  C   UNL     1      36.814 -11.768  -3.692  1.00  0.00     0.181 C 
BRANCH  19  20
HETATM   20  C   UNL     1      35.304 -11.739  -3.535  1.00  0.00     0.051 A 
HETATM   21  N   UNL     1      34.577 -12.488  -4.414  1.00  0.00    -0.264 NA
HETATM   22  C   UNL     1      33.232 -12.441  -4.312  1.00  0.00     0.117 A 
HETATM   23  C   UNL     1      32.564 -11.691  -3.361  1.00  0.00     0.019 A 
HETATM   24  C   UNL     1      33.319 -10.948  -2.459  1.00  0.00     0.003 A 
HETATM   25  C   UNL     1      34.709 -10.968  -2.543  1.00  0.00     0.029 A 
ENDBRANCH  19  20
ENDBRANCH  16  19
ENDBRANCH   8  15
BRANCH  10  26
HETATM   26  C   UNL     1      41.443 -10.422  -0.563  1.00  0.00     0.032 A 
HETATM   27  C   UNL     1      41.591  -9.082  -0.193  1.00  0.00     0.020 A 
HETATM   28  C   UNL     1      42.204  -8.181  -1.067  1.00  0.00     0.038 A 
HETATM   29  C   UNL     1      42.684  -8.608  -2.308  1.00  0.00     0.068 A 
HETATM   30  C   UNL     1      42.546  -9.949  -2.669  1.00  0.00     0.038 A 
HETATM   31  C   UNL     1      41.940 -10.857  -1.792  1.00  0.00     0.020 A 
BRANCH  29  32
HETATM   32  O   UNL     1      43.276  -7.632  -3.060  1.00  0.00    -0.356 OA
HETATM   33  C   UNL     1      42.630  -7.276  -4.276  1.00  0.00     0.210 C 
ENDBRANCH  29  32
ENDBRANCH  10  26
BRANCH   1  34
HETATM   34  C   UNL     1      41.903 -15.466   4.299  1.00  0.00     0.032 A 
HETATM   35  C   UNL     1      41.347 -16.646   4.803  1.00  0.00     0.017 A 
HETATM   36  C   UNL     1      41.935 -17.874   4.502  1.00  0.00     0.008 A 
HETATM   37  C   UNL     1      43.063 -17.937   3.668  1.00  0.00    -0.059 A 
HETATM   38  C   UNL     1      43.586 -16.749   3.137  1.00  0.00     0.008 A 
HETATM   39  C   UNL     1      43.007 -15.516   3.446  1.00  0.00     0.017 A 
BRANCH  37  40
HETATM   40  C   UNL     1      43.694 -19.268   3.339  1.00  0.00     0.034 C 
HETATM   41  C   UNL     1      43.552 -19.631   1.869  1.00  0.00     0.010 C 
ENDBRANCH  37  40
ENDBRANCH   1  34
TORSDOF 7
ENDMDL
