MODEL 1
REMARK VINA RESULT:      -9.6      0.000      0.000
REMARK  3 active torsions:
REMARK  status: ('A' for Active; 'I' for Inactive)
REMARK    1  A    between atoms: N_4  and  C_5 
REMARK    2  A    between atoms: C_15  and  C_16 
REMARK       I    between atoms: C_16  and  N_17 
REMARK    3  A    between atoms: N_17  and  C_18 
ROOT
HETATM    1  C   UNL     1      42.244 -15.835   1.116  1.00  0.00     0.073 C 
HETATM    2  C   UNL     1      42.804 -16.673   2.205  1.00  0.00     0.069 A 
HETATM    3  N   UNL     1      42.924 -17.998   2.049  1.00  0.00    -0.170 NA
HETATM    4  N   UNL     1      43.517 -18.450   3.196  1.00  0.00    -0.216 N 
HETATM    5  C   UNL     1      43.629 -17.414   4.112  1.00  0.00     0.145 A 
HETATM    6  C   UNL     1      43.218 -16.262   3.485  1.00  0.00     0.087 A 
HETATM    7  N   UNL     1      44.006 -17.437   5.414  1.00  0.00    -0.349 N 
HETATM    8  C   UNL     1      43.978 -16.248   6.123  1.00  0.00     0.111 A 
HETATM    9  C   UNL     1      43.635 -15.045   5.608  1.00  0.00     0.098 A 
HETATM   10  C   UNL     1      43.218 -14.983   4.163  1.00  0.00     0.205 A 
HETATM   11  O   UNL     1      42.895 -13.929   3.622  1.00  0.00    -0.286 OA
HETATM   12  H   UNL     1      44.084 -18.289   5.967  1.00  0.00     0.167 HD
ENDROOT
BRANCH   9  13
HETATM   13  C   UNL     1      43.663 -13.854   6.517  1.00  0.00     0.261 C 
HETATM   14  N   UNL     1      44.670 -13.882   7.458  1.00  0.00    -0.320 N 
HETATM   15  H   UNL     1      45.218 -14.741   7.504  1.00  0.00     0.169 HD
HETATM   16  O   UNL     1      42.808 -12.984   6.391  1.00  0.00    -0.267 OA
BRANCH  14  17
HETATM   17  C   UNL     1      45.014 -12.907   8.422  1.00  0.00     0.073 A 
HETATM   18  C   UNL     1      46.128 -12.060   8.389  1.00  0.00     0.143 A 
HETATM   19  F   UNL     1      47.054 -12.129   7.425  1.00  0.00    -0.204 F 
HETATM   20  C   UNL     1      46.358 -11.132   9.408  1.00  0.00     0.044 A 
HETATM   21  C   UNL     1      45.484 -11.040  10.487  1.00  0.00     0.003 A 
HETATM   22  C   UNL     1      44.381 -11.886  10.550  1.00  0.00     0.002 A 
HETATM   23  C   UNL     1      44.152 -12.813   9.528  1.00  0.00     0.033 A 
ENDBRANCH  14  17
ENDBRANCH   9  13
BRANCH   4  24
HETATM   24  C   UNL     1      43.924 -19.811   3.296  1.00  0.00     0.060 A 
HETATM   25  C   UNL     1      44.431 -20.344   4.487  1.00  0.00     0.031 A 
HETATM   26  C   UNL     1      44.816 -21.689   4.546  1.00  0.00     0.002 A 
HETATM   27  C   UNL     1      44.706 -22.502   3.419  1.00  0.00     0.000 A 
HETATM   28  C   UNL     1      44.226 -21.972   2.224  1.00  0.00     0.002 A 
HETATM   29  C   UNL     1      43.845 -20.630   2.158  1.00  0.00     0.031 A 
ENDBRANCH   4  24
TORSDOF 3
ENDMDL
MODEL 2
REMARK VINA RESULT:      -9.5      1.881      2.441
REMARK  3 active torsions:
REMARK  status: ('A' for Active; 'I' for Inactive)
REMARK    1  A    between atoms: N_4  and  C_5 
REMARK    2  A    between atoms: C_15  and  C_16 
REMARK       I    between atoms: C_16  and  N_17 
REMARK    3  A    between atoms: N_17  and  C_18 
ROOT
HETATM    1  C   UNL     1      40.785 -14.311   3.597  1.00  0.00     0.073 C 
HETATM    2  C   UNL     1      41.852 -15.211   4.101  1.00  0.00     0.069 A 
HETATM    3  N   UNL     1      41.957 -16.464   3.637  1.00  0.00    -0.170 NA
HETATM    4  N   UNL     1      43.058 -16.991   4.255  1.00  0.00    -0.216 N 
HETATM    5  C   UNL     1      43.541 -16.103   5.205  1.00  0.00     0.145 A 
HETATM    6  C   UNL     1      42.810 -14.944   5.094  1.00  0.00     0.087 A 
HETATM    7  N   UNL     1      44.502 -16.269   6.145  1.00  0.00    -0.349 N 
HETATM    8  C   UNL     1      44.754 -15.219   7.014  1.00  0.00     0.111 A 
HETATM    9  C   UNL     1      44.134 -14.018   6.979  1.00  0.00     0.098 A 
HETATM   10  C   UNL     1      43.066 -13.798   5.942  1.00  0.00     0.205 A 
HETATM   11  O   UNL     1      42.459 -12.735   5.844  1.00  0.00    -0.286 OA
HETATM   12  H   UNL     1      44.889 -17.174   6.410  1.00  0.00     0.167 HD
ENDROOT
BRANCH   9  13
HETATM   13  C   UNL     1      44.531 -12.988   7.994  1.00  0.00     0.261 C 
HETATM   14  N   UNL     1      43.472 -12.416   8.665  1.00  0.00    -0.320 N 
HETATM   15  H   UNL     1      42.541 -12.674   8.339  1.00  0.00     0.169 HD
HETATM   16  O   UNL     1      45.717 -12.710   8.132  1.00  0.00    -0.267 OA
BRANCH  14  17
HETATM   17  C   UNL     1      43.491 -11.464   9.711  1.00  0.00     0.073 A 
HETATM   18  C   UNL     1      44.320 -11.483  10.838  1.00  0.00     0.143 A 
HETATM   19  F   UNL     1      45.180 -12.479  11.081  1.00  0.00    -0.204 F 
HETATM   20  C   UNL     1      44.243 -10.477  11.806  1.00  0.00     0.044 A 
HETATM   21  C   UNL     1      43.326  -9.439  11.670  1.00  0.00     0.003 A 
HETATM   22  C   UNL     1      42.479  -9.411  10.567  1.00  0.00     0.002 A 
HETATM   23  C   UNL     1      42.559 -10.418   9.599  1.00  0.00     0.033 A 
ENDBRANCH  14  17
ENDBRANCH   9  13
BRANCH   4  24
HETATM   24  C   UNL     1      43.540 -18.275   3.871  1.00  0.00     0.060 A 
HETATM   25  C   UNL     1      44.336 -19.050   4.723  1.00  0.00     0.031 A 
HETATM   26  C   UNL     1      44.787 -20.309   4.310  1.00  0.00     0.002 A 
HETATM   27  C   UNL     1      44.455 -20.795   3.046  1.00  0.00     0.000 A 
HETATM   28  C   UNL     1      43.685 -20.019   2.183  1.00  0.00     0.002 A 
HETATM   29  C   UNL     1      43.236 -18.760   2.588  1.00  0.00     0.031 A 
ENDBRANCH   4  24
TORSDOF 3
ENDMDL
MODEL 3
REMARK VINA RESULT:      -9.3      3.886      7.340
REMARK  3 active torsions:
REMARK  status: ('A' for Active; 'I' for Inactive)
REMARK    1  A    between atoms: N_4  and  C_5 
REMARK    2  A    between atoms: C_15  and  C_16 
REMARK       I    between atoms: C_16  and  N_17 
REMARK    3  A    between atoms: N_17  and  C_18 
ROOT
HETATM    1  C   UNL     1      43.201 -15.516   5.650  1.00  0.00     0.073 C 
HETATM    2  C   UNL     1      43.263 -16.550   4.587  1.00  0.00     0.069 A 
HETATM    3  N   UNL     1      43.842 -17.735   4.826  1.00  0.00    -0.170 NA
HETATM    4  N   UNL     1      43.679 -18.459   3.676  1.00  0.00    -0.216 N 
HETATM    5  C   UNL     1      43.123 -17.662   2.687  1.00  0.00     0.145 A 
HETATM    6  C   UNL     1      42.811 -16.452   3.259  1.00  0.00     0.087 A 
HETATM    7  N   UNL     1      42.933 -17.913   1.369  1.00  0.00    -0.349 N 
HETATM    8  C   UNL     1      42.396 -16.907   0.583  1.00  0.00     0.111 A 
HETATM    9  C   UNL     1      42.010 -15.692   1.035  1.00  0.00     0.098 A 
HETATM   10  C   UNL     1      42.201 -15.383   2.496  1.00  0.00     0.205 A 
HETATM   11  O   UNL     1      41.874 -14.304   2.984  1.00  0.00    -0.286 OA
HETATM   12  H   UNL     1      43.363 -18.692   0.871  1.00  0.00     0.167 HD
ENDROOT
BRANCH   9  13
HETATM   13  C   UNL     1      41.442 -14.718   0.048  1.00  0.00     0.261 C 
HETATM   14  N   UNL     1      42.387 -14.077  -0.724  1.00  0.00    -0.320 N 
HETATM   15  H   UNL     1      43.362 -14.254  -0.481  1.00  0.00     0.169 HD
HETATM   16  O   UNL     1      40.231 -14.538   0.014  1.00  0.00    -0.267 OA
BRANCH  14  17
HETATM   17  C   UNL     1      42.198 -13.151  -1.776  1.00  0.00     0.073 A 
HETATM   18  C   UNL     1      41.589 -13.406  -3.010  1.00  0.00     0.143 A 
HETATM   19  F   UNL     1      41.154 -14.623  -3.359  1.00  0.00    -0.204 F 
HETATM   20  C   UNL     1      41.460 -12.400  -3.972  1.00  0.00     0.044 A 
HETATM   21  C   UNL     1      41.949 -11.121  -3.722  1.00  0.00     0.003 A 
HETATM   22  C   UNL     1      42.575 -10.851  -2.510  1.00  0.00     0.002 A 
HETATM   23  C   UNL     1      42.701 -11.859  -1.548  1.00  0.00     0.033 A 
ENDBRANCH  14  17
ENDBRANCH   9  13
BRANCH   4  24
HETATM   24  C   UNL     1      44.058 -19.832   3.644  1.00  0.00     0.060 A 
HETATM   25  C   UNL     1      43.959 -20.598   2.476  1.00  0.00     0.031 A 
HETATM   26  C   UNL     1      44.345 -21.943   2.484  1.00  0.00     0.002 A 
HETATM   27  C   UNL     1      44.821 -22.531   3.655  1.00  0.00     0.000 A 
HETATM   28  C   UNL     1      44.897 -21.783   4.827  1.00  0.00     0.002 A 
HETATM   29  C   UNL     1      44.509 -20.441   4.827  1.00  0.00     0.031 A 
ENDBRANCH   4  24
TORSDOF 3
ENDMDL
MODEL 4
REMARK VINA RESULT:      -9.1      5.055      8.754
REMARK  3 active torsions:
REMARK  status: ('A' for Active; 'I' for Inactive)
REMARK    1  A    between atoms: N_4  and  C_5 
REMARK    2  A    between atoms: C_15  and  C_16 
REMARK       I    between atoms: C_16  and  N_17 
REMARK    3  A    between atoms: N_17  and  C_18 
ROOT
HETATM    1  C   UNL     1      40.390 -14.840   4.829  1.00  0.00     0.073 C 
HETATM    2  C   UNL     1      41.147 -15.729   3.914  1.00  0.00     0.069 A 
HETATM    3  N   UNL     1      42.017 -16.624   4.402  1.00  0.00    -0.170 NA
HETATM    4  N   UNL     1      42.490 -17.305   3.314  1.00  0.00    -0.216 N 
HETATM    5  C   UNL     1      42.012 -16.728   2.147  1.00  0.00     0.145 A 
HETATM    6  C   UNL     1      41.121 -15.746   2.508  1.00  0.00     0.087 A 
HETATM    7  N   UNL     1      42.340 -16.972   0.855  1.00  0.00    -0.349 N 
HETATM    8  C   UNL     1      41.740 -16.202  -0.128  1.00  0.00     0.111 A 
HETATM    9  C   UNL     1      40.819 -15.238   0.096  1.00  0.00     0.098 A 
HETATM   10  C   UNL     1      40.427 -14.946   1.520  1.00  0.00     0.205 A 
HETATM   11  O   UNL     1      39.596 -14.088   1.806  1.00  0.00    -0.286 OA
HETATM   12  H   UNL     1      43.155 -17.513   0.568  1.00  0.00     0.167 HD
ENDROOT
BRANCH   9  13
HETATM   13  C   UNL     1      40.266 -14.501  -1.085  1.00  0.00     0.261 C 
HETATM   14  N   UNL     1      38.903 -14.628  -1.246  1.00  0.00    -0.320 N 
HETATM   15  H   UNL     1      38.435 -15.278  -0.615  1.00  0.00     0.169 HD
HETATM   16  O   UNL     1      41.031 -13.886  -1.820  1.00  0.00    -0.267 OA
BRANCH  14  17
HETATM   17  C   UNL     1      38.060 -14.027  -2.210  1.00  0.00     0.073 A 
HETATM   18  C   UNL     1      37.537 -14.638  -3.355  1.00  0.00     0.143 A 
HETATM   19  F   UNL     1      37.839 -15.896  -3.700  1.00  0.00    -0.204 F 
HETATM   20  C   UNL     1      36.711 -13.932  -4.234  1.00  0.00     0.044 A 
HETATM   21  C   UNL     1      36.402 -12.597  -3.991  1.00  0.00     0.003 A 
HETATM   22  C   UNL     1      36.927 -11.965  -2.869  1.00  0.00     0.002 A 
HETATM   23  C   UNL     1      37.753 -12.673  -1.989  1.00  0.00     0.033 A 
ENDBRANCH  14  17
ENDBRANCH   9  13
BRANCH   4  24
HETATM   24  C   UNL     1      43.334 -18.437   3.499  1.00  0.00     0.060 A 
HETATM   25  C   UNL     1      43.548 -19.374   2.479  1.00  0.00     0.031 A 
HETATM   26  C   UNL     1      44.388 -20.471   2.699  1.00  0.00     0.002 A 
HETATM   27  C   UNL     1      45.010 -20.645   3.934  1.00  0.00     0.000 A 
HETATM   28  C   UNL     1      44.782 -19.732   4.961  1.00  0.00     0.002 A 
HETATM   29  C   UNL     1      43.941 -18.637   4.750  1.00  0.00     0.031 A 
ENDBRANCH   4  24
TORSDOF 3
ENDMDL
MODEL 5
REMARK VINA RESULT:      -9.1      4.829      7.576
REMARK  3 active torsions:
REMARK  status: ('A' for Active; 'I' for Inactive)
REMARK    1  A    between atoms: N_4  and  C_5 
REMARK    2  A    between atoms: C_15  and  C_16 
REMARK       I    between atoms: C_16  and  N_17 
REMARK    3  A    between atoms: N_17  and  C_18 
ROOT
HETATM    1  C   UNL     1      40.845 -16.489   5.791  1.00  0.00     0.073 C 
HETATM    2  C   UNL     1      41.437 -17.079   4.565  1.00  0.00     0.069 A 
HETATM    3  N   UNL     1      42.260 -18.134   4.650  1.00  0.00    -0.170 NA
HETATM    4  N   UNL     1      42.574 -18.456   3.358  1.00  0.00    -0.216 N 
HETATM    5  C   UNL     1      42.054 -17.507   2.491  1.00  0.00     0.145 A 
HETATM    6  C   UNL     1      41.290 -16.642   3.237  1.00  0.00     0.087 A 
HETATM    7  N   UNL     1      42.247 -17.342   1.160  1.00  0.00    -0.349 N 
HETATM    8  C   UNL     1      41.638 -16.263   0.540  1.00  0.00     0.111 A 
HETATM    9  C   UNL     1      40.831 -15.369   1.156  1.00  0.00     0.098 A 
HETATM   10  C   UNL     1      40.590 -15.527   2.632  1.00  0.00     0.205 A 
HETATM   11  O   UNL     1      39.869 -14.759   3.263  1.00  0.00    -0.286 OA
HETATM   12  H   UNL     1      42.982 -17.809   0.630  1.00  0.00     0.167 HD
ENDROOT
BRANCH   9  13
HETATM   13  C   UNL     1      40.249 -14.259   0.333  1.00  0.00     0.261 C 
HETATM   14  N   UNL     1      38.872 -14.199   0.356  1.00  0.00    -0.320 N 
HETATM   15  H   UNL     1      38.397 -14.960   0.840  1.00  0.00     0.169 HD
HETATM   16  O   UNL     1      40.999 -13.529  -0.305  1.00  0.00    -0.267 OA
BRANCH  14  17
HETATM   17  C   UNL     1      38.013 -13.256  -0.254  1.00  0.00     0.073 A 
HETATM   18  C   UNL     1      37.929 -12.969  -1.622  1.00  0.00     0.143 A 
HETATM   19  F   UNL     1      38.730 -13.544  -2.527  1.00  0.00    -0.204 F 
HETATM   20  C   UNL     1      37.033 -12.010  -2.103  1.00  0.00     0.044 A 
HETATM   21  C   UNL     1      36.211 -11.311  -1.224  1.00  0.00     0.003 A 
HETATM   22  C   UNL     1      36.292 -11.567   0.141  1.00  0.00     0.002 A 
HETATM   23  C   UNL     1      37.188 -12.528   0.621  1.00  0.00     0.033 A 
ENDBRANCH  14  17
ENDBRANCH   9  13
BRANCH   4  24
HETATM   24  C   UNL     1      43.324 -19.635   3.084  1.00  0.00     0.060 A 
HETATM   25  C   UNL     1      44.362 -20.062   3.922  1.00  0.00     0.031 A 
HETATM   26  C   UNL     1      45.073 -21.230   3.620  1.00  0.00     0.002 A 
HETATM   27  C   UNL     1      44.759 -21.969   2.481  1.00  0.00     0.000 A 
HETATM   28  C   UNL     1      43.746 -21.538   1.629  1.00  0.00     0.002 A 
HETATM   29  C   UNL     1      43.036 -20.371   1.922  1.00  0.00     0.031 A 
ENDBRANCH   4  24
TORSDOF 3
ENDMDL
MODEL 6
REMARK VINA RESULT:      -9.0      5.501      8.841
REMARK  3 active torsions:
REMARK  status: ('A' for Active; 'I' for Inactive)
REMARK    1  A    between atoms: N_4  and  C_5 
REMARK    2  A    between atoms: C_15  and  C_16 
REMARK       I    between atoms: C_16  and  N_17 
REMARK    3  A    between atoms: N_17  and  C_18 
ROOT
HETATM    1  C   UNL     1      37.467 -14.061   0.700  1.00  0.00     0.073 C 
HETATM    2  C   UNL     1      38.853 -13.987   0.175  1.00  0.00     0.069 A 
HETATM    3  N   UNL     1      39.149 -13.172  -0.847  1.00  0.00    -0.170 NA
HETATM    4  N   UNL     1      40.497 -13.302  -1.040  1.00  0.00    -0.216 N 
HETATM    5  C   UNL     1      40.999 -14.306  -0.225  1.00  0.00     0.145 A 
HETATM    6  C   UNL     1      39.974 -14.729   0.587  1.00  0.00     0.087 A 
HETATM    7  N   UNL     1      42.229 -14.873  -0.197  1.00  0.00    -0.349 N 
HETATM    8  C   UNL     1      42.450 -15.910   0.696  1.00  0.00     0.111 A 
HETATM    9  C   UNL     1      41.538 -16.385   1.574  1.00  0.00     0.098 A 
HETATM   10  C   UNL     1      40.164 -15.773   1.573  1.00  0.00     0.205 A 
HETATM   11  O   UNL     1      39.281 -16.147   2.341  1.00  0.00    -0.286 OA
HETATM   12  H   UNL     1      42.927 -14.756  -0.930  1.00  0.00     0.167 HD
ENDROOT
BRANCH   9  13
HETATM   13  C   UNL     1      41.945 -17.512   2.474  1.00  0.00     0.261 C 
HETATM   14  N   UNL     1      42.872 -18.371   1.925  1.00  0.00    -0.320 N 
HETATM   15  H   UNL     1      43.106 -18.212   0.945  1.00  0.00     0.169 HD
HETATM   16  O   UNL     1      41.426 -17.612   3.580  1.00  0.00    -0.267 OA
BRANCH  14  17
HETATM   17  C   UNL     1      43.505 -19.492   2.512  1.00  0.00     0.073 A 
HETATM   18  C   UNL     1      44.220 -19.509   3.715  1.00  0.00     0.143 A 
HETATM   19  F   UNL     1      44.435 -18.403   4.438  1.00  0.00    -0.204 F 
HETATM   20  C   UNL     1      44.801 -20.687   4.191  1.00  0.00     0.044 A 
HETATM   21  C   UNL     1      44.688 -21.870   3.467  1.00  0.00     0.003 A 
HETATM   22  C   UNL     1      43.998 -21.872   2.259  1.00  0.00     0.002 A 
HETATM   23  C   UNL     1      43.416 -20.691   1.785  1.00  0.00     0.033 A 
ENDBRANCH  14  17
ENDBRANCH   9  13
BRANCH   4  24
HETATM   24  C   UNL     1      41.166 -12.453  -1.967  1.00  0.00     0.060 A 
HETATM   25  C   UNL     1      40.977 -12.573  -3.349  1.00  0.00     0.031 A 
HETATM   26  C   UNL     1      41.650 -11.716  -4.227  1.00  0.00     0.002 A 
HETATM   27  C   UNL     1      42.519 -10.745  -3.734  1.00  0.00     0.000 A 
HETATM   28  C   UNL     1      42.732 -10.635  -2.362  1.00  0.00     0.002 A 
HETATM   29  C   UNL     1      42.067 -11.491  -1.480  1.00  0.00     0.031 A 
ENDBRANCH   4  24
TORSDOF 3
ENDMDL
MODEL 7
REMARK VINA RESULT:      -8.9      4.173      8.440
REMARK  3 active torsions:
REMARK  status: ('A' for Active; 'I' for Inactive)
REMARK    1  A    between atoms: N_4  and  C_5 
REMARK    2  A    between atoms: C_15  and  C_16 
REMARK       I    between atoms: C_16  and  N_17 
REMARK    3  A    between atoms: N_17  and  C_18 
ROOT
HETATM    1  C   UNL     1      41.702 -12.034   3.614  1.00  0.00     0.073 C 
HETATM    2  C   UNL     1      41.804 -12.754   2.321  1.00  0.00     0.069 A 
HETATM    3  N   UNL     1      41.599 -12.107   1.165  1.00  0.00    -0.170 NA
HETATM    4  N   UNL     1      41.821 -13.033   0.183  1.00  0.00    -0.216 N 
HETATM    5  C   UNL     1      42.025 -14.284   0.746  1.00  0.00     0.145 A 
HETATM    6  C   UNL     1      42.059 -14.121   2.111  1.00  0.00     0.087 A 
HETATM    7  N   UNL     1      42.127 -15.500   0.157  1.00  0.00    -0.349 N 
HETATM    8  C   UNL     1      42.279 -16.610   0.972  1.00  0.00     0.111 A 
HETATM    9  C   UNL     1      42.368 -16.576   2.321  1.00  0.00     0.098 A 
HETATM   10  C   UNL     1      42.267 -15.240   3.007  1.00  0.00     0.205 A 
HETATM   11  O   UNL     1      42.342 -15.125   4.227  1.00  0.00    -0.286 OA
HETATM   12  H   UNL     1      41.870 -15.685  -0.812  1.00  0.00     0.167 HD
ENDROOT
BRANCH   9  13
HETATM   13  C   UNL     1      42.536 -17.873   3.052  1.00  0.00     0.261 C 
HETATM   14  N   UNL     1      43.555 -18.667   2.571  1.00  0.00    -0.320 N 
HETATM   15  H   UNL     1      44.017 -18.341   1.722  1.00  0.00     0.169 HD
HETATM   16  O   UNL     1      41.769 -18.148   3.968  1.00  0.00    -0.267 OA
BRANCH  14  17
HETATM   17  C   UNL     1      44.017 -19.913   3.056  1.00  0.00     0.073 A 
HETATM   18  C   UNL     1      44.578 -20.161   4.313  1.00  0.00     0.143 A 
HETATM   19  F   UNL     1      44.796 -19.189   5.207  1.00  0.00    -0.204 F 
HETATM   20  C   UNL     1      44.996 -21.445   4.675  1.00  0.00     0.044 A 
HETATM   21  C   UNL     1      44.873 -22.504   3.780  1.00  0.00     0.003 A 
HETATM   22  C   UNL     1      44.336 -22.275   2.518  1.00  0.00     0.002 A 
HETATM   23  C   UNL     1      43.916 -20.990   2.158  1.00  0.00     0.033 A 
ENDBRANCH  14  17
ENDBRANCH   9  13
BRANCH   4  24
HETATM   24  C   UNL     1      41.828 -12.630  -1.183  1.00  0.00     0.060 A 
HETATM   25  C   UNL     1      40.981 -13.217  -2.131  1.00  0.00     0.031 A 
HETATM   26  C   UNL     1      41.015 -12.790  -3.463  1.00  0.00     0.002 A 
HETATM   27  C   UNL     1      41.898 -11.785  -3.857  1.00  0.00     0.000 A 
HETATM   28  C   UNL     1      42.762 -11.214  -2.925  1.00  0.00     0.002 A 
HETATM   29  C   UNL     1      42.736 -11.640  -1.595  1.00  0.00     0.031 A 
ENDBRANCH   4  24
TORSDOF 3
ENDMDL
MODEL 8
REMARK VINA RESULT:      -8.8      4.619      8.764
REMARK  3 active torsions:
REMARK  status: ('A' for Active; 'I' for Inactive)
REMARK    1  A    between atoms: N_4  and  C_5 
REMARK    2  A    between atoms: C_15  and  C_16 
REMARK       I    between atoms: C_16  and  N_17 
REMARK    3  A    between atoms: N_17  and  C_18 
ROOT
HETATM    1  C   UNL     1      40.942 -14.951  -2.427  1.00  0.00     0.073 C 
HETATM    2  C   UNL     1      41.351 -14.152  -1.246  1.00  0.00     0.069 A 
HETATM    3  N   UNL     1      41.501 -12.824  -1.343  1.00  0.00    -0.170 NA
HETATM    4  N   UNL     1      41.823 -12.399  -0.083  1.00  0.00    -0.216 N 
HETATM    5  C   UNL     1      42.008 -13.490   0.753  1.00  0.00     0.145 A 
HETATM    6  C   UNL     1      41.672 -14.617   0.042  1.00  0.00     0.087 A 
HETATM    7  N   UNL     1      42.479 -13.545   2.023  1.00  0.00    -0.349 N 
HETATM    8  C   UNL     1      42.613 -14.790   2.616  1.00  0.00     0.111 A 
HETATM    9  C   UNL     1      42.278 -15.965   2.037  1.00  0.00     0.098 A 
HETATM   10  C   UNL     1      41.744 -15.938   0.630  1.00  0.00     0.205 A 
HETATM   11  O   UNL     1      41.415 -16.962   0.036  1.00  0.00    -0.286 OA
HETATM   12  H   UNL     1      42.955 -12.772   2.487  1.00  0.00     0.167 HD
ENDROOT
BRANCH   9  13
HETATM   13  C   UNL     1      42.484 -17.224   2.823  1.00  0.00     0.261 C 
HETATM   14  N   UNL     1      43.327 -18.136   2.224  1.00  0.00    -0.320 N 
HETATM   15  H   UNL     1      43.639 -17.907   1.280  1.00  0.00     0.169 HD
HETATM   16  O   UNL     1      41.890 -17.371   3.885  1.00  0.00    -0.267 OA
BRANCH  14  17
HETATM   17  C   UNL     1      43.777 -19.385   2.710  1.00  0.00     0.073 A 
HETATM   18  C   UNL     1      44.428 -19.620   3.926  1.00  0.00     0.143 A 
HETATM   19  F   UNL     1      44.757 -18.632   4.768  1.00  0.00    -0.204 F 
HETATM   20  C   UNL     1      44.824 -20.909   4.295  1.00  0.00     0.044 A 
HETATM   21  C   UNL     1      44.586 -21.987   3.448  1.00  0.00     0.003 A 
HETATM   22  C   UNL     1      43.958 -21.773   2.225  1.00  0.00     0.002 A 
HETATM   23  C   UNL     1      43.561 -20.483   1.859  1.00  0.00     0.033 A 
ENDBRANCH  14  17
ENDBRANCH   9  13
BRANCH   4  24
HETATM   24  C   UNL     1      41.909 -11.005   0.194  1.00  0.00     0.060 A 
HETATM   25  C   UNL     1      41.011 -10.367   1.059  1.00  0.00     0.031 A 
HETATM   26  C   UNL     1      41.131  -8.996   1.310  1.00  0.00     0.002 A 
HETATM   27  C   UNL     1      42.137  -8.254   0.693  1.00  0.00     0.000 A 
HETATM   28  C   UNL     1      43.019  -8.875  -0.188  1.00  0.00     0.002 A 
HETATM   29  C   UNL     1      42.901 -10.243  -0.446  1.00  0.00     0.031 A 
ENDBRANCH   4  24
TORSDOF 3
ENDMDL
MODEL 9
REMARK VINA RESULT:      -8.8      4.861      8.871
REMARK  3 active torsions:
REMARK  status: ('A' for Active; 'I' for Inactive)
REMARK    1  A    between atoms: N_4  and  C_5 
REMARK    2  A    between atoms: C_15  and  C_16 
REMARK       I    between atoms: C_16  and  N_17 
REMARK    3  A    between atoms: N_17  and  C_18 
ROOT
HETATM    1  C   UNL     1      40.824 -12.014   2.568  1.00  0.00     0.073 C 
HETATM    2  C   UNL     1      40.500 -12.881   1.409  1.00  0.00     0.069 A 
HETATM    3  N   UNL     1      39.494 -12.562   0.582  1.00  0.00    -0.170 NA
HETATM    4  N   UNL     1      39.503 -13.522  -0.392  1.00  0.00    -0.216 N 
HETATM    5  C   UNL     1      40.427 -14.508  -0.080  1.00  0.00     0.145 A 
HETATM    6  C   UNL     1      41.103 -14.098   1.044  1.00  0.00     0.087 A 
HETATM    7  N   UNL     1      40.657 -15.706  -0.670  1.00  0.00    -0.349 N 
HETATM    8  C   UNL     1      41.620 -16.533  -0.114  1.00  0.00     0.111 A 
HETATM    9  C   UNL     1      42.379 -16.226   0.962  1.00  0.00     0.098 A 
HETATM   10  C   UNL     1      42.153 -14.900   1.637  1.00  0.00     0.205 A 
HETATM   11  O   UNL     1      42.804 -14.547   2.617  1.00  0.00    -0.286 OA
HETATM   12  H   UNL     1      40.026 -16.139  -1.343  1.00  0.00     0.167 HD
ENDROOT
BRANCH   9  13
HETATM   13  C   UNL     1      43.380 -17.238   1.432  1.00  0.00     0.261 C 
HETATM   14  N   UNL     1      42.831 -18.311   2.100  1.00  0.00    -0.320 N 
HETATM   15  H   UNL     1      41.830 -18.258   2.290  1.00  0.00     0.169 HD
HETATM   16  O   UNL     1      44.573 -17.039   1.230  1.00  0.00    -0.267 OA
BRANCH  14  17
HETATM   17  C   UNL     1      43.474 -19.458   2.621  1.00  0.00     0.073 A 
HETATM   18  C   UNL     1      44.150 -19.550   3.843  1.00  0.00     0.143 A 
HETATM   19  F   UNL     1      44.314 -18.499   4.655  1.00  0.00    -0.204 F 
HETATM   20  C   UNL     1      44.746 -20.748   4.247  1.00  0.00     0.044 A 
HETATM   21  C   UNL     1      44.687 -21.874   3.432  1.00  0.00     0.003 A 
HETATM   22  C   UNL     1      44.036 -21.799   2.205  1.00  0.00     0.002 A 
HETATM   23  C   UNL     1      43.439 -20.599   1.802  1.00  0.00     0.033 A 
ENDBRANCH  14  17
ENDBRANCH   9  13
BRANCH   4  24
HETATM   24  C   UNL     1      38.643 -13.395  -1.520  1.00  0.00     0.060 A 
HETATM   25  C   UNL     1      38.522 -14.412  -2.475  1.00  0.00     0.031 A 
HETATM   26  C   UNL     1      37.662 -14.250  -3.568  1.00  0.00     0.002 A 
HETATM   27  C   UNL     1      36.929 -13.074  -3.717  1.00  0.00     0.000 A 
HETATM   28  C   UNL     1      37.063 -12.048  -2.785  1.00  0.00     0.002 A 
HETATM   29  C   UNL     1      37.922 -12.201  -1.696  1.00  0.00     0.031 A 
ENDBRANCH   4  24
TORSDOF 3
ENDMDL
MODEL 10
REMARK VINA RESULT:      -8.7      3.863      8.693
REMARK  3 active torsions:
REMARK  status: ('A' for Active; 'I' for Inactive)
REMARK    1  A    between atoms: N_4  and  C_5 
REMARK    2  A    between atoms: C_15  and  C_16 
REMARK       I    between atoms: C_16  and  N_17 
REMARK    3  A    between atoms: N_17  and  C_18 
ROOT
HETATM    1  C   UNL     1      39.273 -12.484   2.052  1.00  0.00     0.073 C 
HETATM    2  C   UNL     1      39.828 -12.530   3.427  1.00  0.00     0.069 A 
HETATM    3  N   UNL     1      39.918 -11.413   4.161  1.00  0.00    -0.170 NA
HETATM    4  N   UNL     1      40.410 -11.810   5.374  1.00  0.00    -0.216 N 
HETATM    5  C   UNL     1      40.753 -13.154   5.331  1.00  0.00     0.145 A 
HETATM    6  C   UNL     1      40.351 -13.642   4.110  1.00  0.00     0.087 A 
HETATM    7  N   UNL     1      41.409 -13.916   6.238  1.00  0.00    -0.349 N 
HETATM    8  C   UNL     1      41.670 -15.238   5.914  1.00  0.00     0.111 A 
HETATM    9  C   UNL     1      41.291 -15.845   4.767  1.00  0.00     0.098 A 
HETATM   10  C   UNL     1      40.553 -15.028   3.741  1.00  0.00     0.205 A 
HETATM   11  O   UNL     1      40.173 -15.507   2.675  1.00  0.00    -0.286 OA
HETATM   12  H   UNL     1      41.923 -13.538   7.033  1.00  0.00     0.167 HD
ENDROOT
BRANCH   9  13
HETATM   13  C   UNL     1      41.652 -17.287   4.578  1.00  0.00     0.261 C 
HETATM   14  N   UNL     1      42.738 -17.496   3.754  1.00  0.00    -0.320 N 
HETATM   15  H   UNL     1      43.114 -16.670   3.288  1.00  0.00     0.169 HD
HETATM   16  O   UNL     1      40.971 -18.151   5.117  1.00  0.00    -0.267 OA
BRANCH  14  17
HETATM   17  C   UNL     1      43.372 -18.712   3.410  1.00  0.00     0.073 A 
HETATM   18  C   UNL     1      44.364 -19.371   4.145  1.00  0.00     0.143 A 
HETATM   19  F   UNL     1      44.877 -18.866   5.274  1.00  0.00    -0.204 F 
HETATM   20  C   UNL     1      44.914 -20.575   3.696  1.00  0.00     0.044 A 
HETATM   21  C   UNL     1      44.491 -21.137   2.495  1.00  0.00     0.003 A 
HETATM   22  C   UNL     1      43.520 -20.489   1.738  1.00  0.00     0.002 A 
HETATM   23  C   UNL     1      42.970 -19.285   2.191  1.00  0.00     0.033 A 
ENDBRANCH  14  17
ENDBRANCH   9  13
BRANCH   4  24
HETATM   24  C   UNL     1      40.491 -10.877   6.447  1.00  0.00     0.060 A 
HETATM   25  C   UNL     1      39.818 -11.084   7.658  1.00  0.00     0.031 A 
HETATM   26  C   UNL     1      39.926 -10.145   8.690  1.00  0.00     0.002 A 
HETATM   27  C   UNL     1      40.695  -8.995   8.517  1.00  0.00     0.000 A 
HETATM   28  C   UNL     1      41.346  -8.770   7.306  1.00  0.00     0.002 A 
HETATM   29  C   UNL     1      41.238  -9.701   6.271  1.00  0.00     0.031 A 
ENDBRANCH   4  24
TORSDOF 3
ENDMDL
