MODEL 1
REMARK VINA RESULT:      -7.7      0.000      0.000
REMARK  5 active torsions:
REMARK  status: ('A' for Active; 'I' for Inactive)
REMARK    1  A    between atoms: C_2  and  N_3 
REMARK       I    between atoms: N_3  and  C_4 
REMARK    2  A    between atoms: C_4  and  C_5 
REMARK    3  A    between atoms: C_5  and  N_6 
REMARK    4  A    between atoms: N_6  and  C_7 
REMARK    5  A    between atoms: C_11  and  C_12 
ROOT
HETATM    1  C   UNL     1      43.361 -16.823   4.993  1.00  0.00     0.022 A 
HETATM    2  C   UNL     1      43.565 -18.032   4.262  1.00  0.00     0.012 A 
HETATM    3  C   UNL     1      44.421 -19.025   4.805  1.00  0.00     0.044 A 
HETATM    4  C   UNL     1      44.636 -20.246   4.143  1.00  0.00     0.046 A 
HETATM    5  C   UNL     1      44.019 -20.515   2.913  1.00  0.00     0.050 A 
HETATM    6  C   UNL     1      43.189 -19.539   2.355  1.00  0.00     0.017 A 
HETATM    7  C   UNL     1      42.969 -18.323   3.013  1.00  0.00     0.016 A 
HETATM    8  N   UNL     1      45.045 -18.788   5.973  1.00  0.00    -0.365 N 
HETATM    9  H   UNL     1      45.662 -19.506   6.352  1.00  0.00     0.165 HD
HETATM   10  C   UNL     1      44.915 -17.644   6.651  1.00  0.00     0.090 A 
HETATM   11  C   UNL     1      44.087 -16.640   6.174  1.00  0.00     0.041 A 
ENDROOT
BRANCH   1  12
HETATM   12  N   UNL     1      42.568 -15.795   4.455  1.00  0.00    -0.283 NA
HETATM   13  H   UNL     1      41.750 -15.592   5.032  1.00  0.00     0.128 HD
BRANCH  12  14
HETATM   14  C   UNL     1      43.192 -14.515   4.037  1.00  0.00     0.195 C 
BRANCH  14  15
HETATM   15  C   UNL     1      42.739 -14.125   2.626  1.00  0.00     0.230 C 
HETATM   16  N   UNL     1      42.222 -15.177   1.898  1.00  0.00    -0.360 N 
HETATM   17  H   UNL     1      42.118 -16.071   2.367  1.00  0.00     0.162 HD
HETATM   18  O   UNL     1      42.872 -12.987   2.189  1.00  0.00    -0.272 OA
BRANCH  16  19
HETATM   19  C   UNL     1      41.760 -15.026   0.535  1.00  0.00     0.118 C 
HETATM   20  C   UNL     1      41.456 -16.368  -0.104  1.00  0.00     0.026 C 
ENDBRANCH  16  19
ENDBRANCH  14  15
ENDBRANCH  12  14
ENDBRANCH   1  12
BRANCH   5  21
HETATM   21  C   UNL     1      44.239 -21.831   2.192  1.00  0.00     0.417 C 
HETATM   22  F   UNL     1      45.323 -21.795   1.371  1.00  0.00    -0.166 F 
HETATM   23  F   UNL     1      44.445 -22.859   3.052  1.00  0.00    -0.166 F 
HETATM   24  F   UNL     1      43.182 -22.174   1.413  1.00  0.00    -0.166 F 
ENDBRANCH   5  21
TORSDOF 5
ENDMDL
MODEL 2
REMARK VINA RESULT:      -7.6      1.295      1.320
REMARK  5 active torsions:
REMARK  status: ('A' for Active; 'I' for Inactive)
REMARK    1  A    between atoms: C_2  and  N_3 
REMARK       I    between atoms: N_3  and  C_4 
REMARK    2  A    between atoms: C_4  and  C_5 
REMARK    3  A    between atoms: C_5  and  N_6 
REMARK    4  A    between atoms: N_6  and  C_7 
REMARK    5  A    between atoms: C_11  and  C_12 
ROOT
HETATM    1  C   UNL     1      43.681 -17.056   5.651  1.00  0.00     0.022 A 
HETATM    2  C   UNL     1      43.862 -18.197   4.812  1.00  0.00     0.012 A 
HETATM    3  C   UNL     1      44.179 -19.443   5.410  1.00  0.00     0.044 A 
HETATM    4  C   UNL     1      44.339 -20.606   4.636  1.00  0.00     0.046 A 
HETATM    5  C   UNL     1      44.203 -20.565   3.241  1.00  0.00     0.050 A 
HETATM    6  C   UNL     1      43.910 -19.340   2.634  1.00  0.00     0.017 A 
HETATM    7  C   UNL     1      43.747 -18.181   3.402  1.00  0.00     0.016 A 
HETATM    8  N   UNL     1      44.338 -19.511   6.744  1.00  0.00    -0.365 N 
HETATM    9  H   UNL     1      44.571 -20.412   7.164  1.00  0.00     0.165 HD
HETATM   10  C   UNL     1      44.229 -18.449   7.547  1.00  0.00     0.090 A 
HETATM   11  C   UNL     1      43.914 -17.206   7.021  1.00  0.00     0.041 A 
ENDROOT
BRANCH   1  12
HETATM   12  N   UNL     1      43.426 -15.794   5.085  1.00  0.00    -0.283 NA
HETATM   13  H   UNL     1      43.838 -15.694   4.156  1.00  0.00     0.128 HD
BRANCH  12  14
HETATM   14  C   UNL     1      42.044 -15.256   5.060  1.00  0.00     0.195 C 
BRANCH  14  15
HETATM   15  C   UNL     1      41.483 -15.268   3.633  1.00  0.00     0.230 C 
HETATM   16  N   UNL     1      40.694 -16.365   3.356  1.00  0.00    -0.360 N 
HETATM   17  H   UNL     1      40.495 -17.009   4.114  1.00  0.00     0.162 HD
HETATM   18  O   UNL     1      41.756 -14.395   2.817  1.00  0.00    -0.272 OA
BRANCH  16  19
HETATM   19  C   UNL     1      40.088 -16.579   2.059  1.00  0.00     0.118 C 
HETATM   20  C   UNL     1      40.936 -17.487   1.189  1.00  0.00     0.026 C 
ENDBRANCH  16  19
ENDBRANCH  14  15
ENDBRANCH  12  14
ENDBRANCH   1  12
BRANCH   5  21
HETATM   21  C   UNL     1      44.368 -21.813   2.396  1.00  0.00     0.417 C 
HETATM   22  F   UNL     1      45.437 -21.731   1.559  1.00  0.00    -0.166 F 
HETATM   23  F   UNL     1      44.559 -22.923   3.152  1.00  0.00    -0.166 F 
HETATM   24  F   UNL     1      43.286 -22.051   1.613  1.00  0.00    -0.166 F 
ENDBRANCH   5  21
TORSDOF 5
ENDMDL
MODEL 3
REMARK VINA RESULT:      -7.6      1.977      4.289
REMARK  5 active torsions:
REMARK  status: ('A' for Active; 'I' for Inactive)
REMARK    1  A    between atoms: C_2  and  N_3 
REMARK       I    between atoms: N_3  and  C_4 
REMARK    2  A    between atoms: C_4  and  C_5 
REMARK    3  A    between atoms: C_5  and  N_6 
REMARK    4  A    between atoms: N_6  and  C_7 
REMARK    5  A    between atoms: C_11  and  C_12 
ROOT
HETATM    1  C   UNL     1      42.740 -16.078   3.295  1.00  0.00     0.022 A 
HETATM    2  C   UNL     1      43.089 -17.447   3.089  1.00  0.00     0.012 A 
HETATM    3  C   UNL     1      42.556 -18.128   1.965  1.00  0.00     0.044 A 
HETATM    4  C   UNL     1      42.887 -19.467   1.696  1.00  0.00     0.046 A 
HETATM    5  C   UNL     1      43.750 -20.178   2.544  1.00  0.00     0.050 A 
HETATM    6  C   UNL     1      44.268 -19.527   3.667  1.00  0.00     0.017 A 
HETATM    7  C   UNL     1      43.942 -18.192   3.936  1.00  0.00     0.016 A 
HETATM    8  N   UNL     1      41.708 -17.481   1.145  1.00  0.00    -0.365 N 
HETATM    9  H   UNL     1      41.326 -17.982   0.342  1.00  0.00     0.165 HD
HETATM   10  C   UNL     1      41.322 -16.218   1.344  1.00  0.00     0.090 A 
HETATM   11  C   UNL     1      41.814 -15.499   2.422  1.00  0.00     0.041 A 
ENDROOT
BRANCH   1  12
HETATM   12  N   UNL     1      43.202 -15.392   4.432  1.00  0.00    -0.283 NA
HETATM   13  H   UNL     1      43.755 -14.568   4.190  1.00  0.00     0.128 HD
BRANCH  12  14
HETATM   14  C   UNL     1      42.259 -15.038   5.521  1.00  0.00     0.195 C 
BRANCH  14  15
HETATM   15  C   UNL     1      42.151 -16.179   6.539  1.00  0.00     0.230 C 
HETATM   16  N   UNL     1      43.253 -16.296   7.359  1.00  0.00    -0.360 N 
HETATM   17  H   UNL     1      43.984 -15.597   7.275  1.00  0.00     0.162 HD
HETATM   18  O   UNL     1      41.184 -16.931   6.576  1.00  0.00    -0.272 OA
BRANCH  16  19
HETATM   19  C   UNL     1      43.362 -17.325   8.372  1.00  0.00     0.118 C 
HETATM   20  C   UNL     1      44.176 -18.508   7.881  1.00  0.00     0.026 C 
ENDBRANCH  16  19
ENDBRANCH  14  15
ENDBRANCH  12  14
ENDBRANCH   1  12
BRANCH   5  21
HETATM   21  C   UNL     1      44.120 -21.621   2.262  1.00  0.00     0.417 C 
HETATM   22  F   UNL     1      44.185 -22.368   3.396  1.00  0.00    -0.166 F 
HETATM   23  F   UNL     1      43.220 -22.232   1.452  1.00  0.00    -0.166 F 
HETATM   24  F   UNL     1      45.332 -21.733   1.660  1.00  0.00    -0.166 F 
ENDBRANCH   5  21
TORSDOF 5
ENDMDL
MODEL 4
REMARK VINA RESULT:      -7.4      2.119      4.241
REMARK  5 active torsions:
REMARK  status: ('A' for Active; 'I' for Inactive)
REMARK    1  A    between atoms: C_2  and  N_3 
REMARK       I    between atoms: N_3  and  C_4 
REMARK    2  A    between atoms: C_4  and  C_5 
REMARK    3  A    between atoms: C_5  and  N_6 
REMARK    4  A    between atoms: N_6  and  C_7 
REMARK    5  A    between atoms: C_11  and  C_12 
ROOT
HETATM    1  C   UNL     1      41.354 -15.946   3.914  1.00  0.00     0.022 A 
HETATM    2  C   UNL     1      42.089 -17.136   3.625  1.00  0.00     0.012 A 
HETATM    3  C   UNL     1      41.995 -17.701   2.327  1.00  0.00     0.044 A 
HETATM    4  C   UNL     1      42.719 -18.854   1.978  1.00  0.00     0.046 A 
HETATM    5  C   UNL     1      43.550 -19.491   2.911  1.00  0.00     0.050 A 
HETATM    6  C   UNL     1      43.639 -18.958   4.200  1.00  0.00     0.017 A 
HETATM    7  C   UNL     1      42.922 -17.808   4.550  1.00  0.00     0.016 A 
HETATM    8  N   UNL     1      41.189 -17.126   1.416  1.00  0.00    -0.365 N 
HETATM    9  H   UNL     1      41.125 -17.544   0.487  1.00  0.00     0.165 HD
HETATM   10  C   UNL     1      40.448 -16.045   1.677  1.00  0.00     0.090 A 
HETATM   11  C   UNL     1      40.504 -15.444   2.924  1.00  0.00     0.041 A 
ENDROOT
BRANCH   1  12
HETATM   12  N   UNL     1      41.378 -15.395   5.207  1.00  0.00    -0.283 NA
HETATM   13  H   UNL     1      41.908 -15.969   5.864  1.00  0.00     0.128 HD
BRANCH  12  14
HETATM   14  C   UNL     1      41.751 -13.973   5.401  1.00  0.00     0.195 C 
BRANCH  14  15
HETATM   15  C   UNL     1      43.268 -13.826   5.569  1.00  0.00     0.230 C 
HETATM   16  N   UNL     1      43.688 -13.878   6.881  1.00  0.00    -0.360 N 
HETATM   17  H   UNL     1      42.994 -14.079   7.594  1.00  0.00     0.162 HD
HETATM   18  O   UNL     1      44.014 -13.638   4.615  1.00  0.00    -0.272 OA
BRANCH  16  19
HETATM   19  C   UNL     1      45.079 -13.735   7.258  1.00  0.00     0.118 C 
HETATM   20  C   UNL     1      45.247 -12.773   8.419  1.00  0.00     0.026 C 
ENDBRANCH  16  19
ENDBRANCH  14  15
ENDBRANCH  12  14
ENDBRANCH   1  12
BRANCH   5  21
HETATM   21  C   UNL     1      44.340 -20.732   2.544  1.00  0.00     0.417 C 
HETATM   22  F   UNL     1      43.953 -21.257   1.350  1.00  0.00    -0.166 F 
HETATM   23  F   UNL     1      45.669 -20.482   2.439  1.00  0.00    -0.166 F 
HETATM   24  F   UNL     1      44.197 -21.723   3.461  1.00  0.00    -0.166 F 
ENDBRANCH   5  21
TORSDOF 5
ENDMDL
MODEL 5
REMARK VINA RESULT:      -7.3      2.932      4.363
REMARK  5 active torsions:
REMARK  status: ('A' for Active; 'I' for Inactive)
REMARK    1  A    between atoms: C_2  and  N_3 
REMARK       I    between atoms: N_3  and  C_4 
REMARK    2  A    between atoms: C_4  and  C_5 
REMARK    3  A    between atoms: C_5  and  N_6 
REMARK    4  A    between atoms: N_6  and  C_7 
REMARK    5  A    between atoms: C_11  and  C_12 
ROOT
HETATM    1  C   UNL     1      43.073 -16.469   6.828  1.00  0.00     0.022 A 
HETATM    2  C   UNL     1      43.238 -17.238   5.637  1.00  0.00     0.012 A 
HETATM    3  C   UNL     1      43.712 -18.571   5.742  1.00  0.00     0.044 A 
HETATM    4  C   UNL     1      43.866 -19.384   4.606  1.00  0.00     0.046 A 
HETATM    5  C   UNL     1      43.566 -18.895   3.326  1.00  0.00     0.050 A 
HETATM    6  C   UNL     1      43.115 -17.577   3.204  1.00  0.00     0.017 A 
HETATM    7  C   UNL     1      42.958 -16.766   4.334  1.00  0.00     0.016 A 
HETATM    8  N   UNL     1      44.030 -19.062   6.954  1.00  0.00    -0.365 N 
HETATM    9  H   UNL     1      44.376 -20.020   7.017  1.00  0.00     0.165 HD
HETATM   10  C   UNL     1      43.938 -18.347   8.078  1.00  0.00     0.090 A 
HETATM   11  C   UNL     1      43.474 -17.042   8.039  1.00  0.00     0.041 A 
ENDROOT
BRANCH   1  12
HETATM   12  N   UNL     1      42.663 -15.126   6.754  1.00  0.00    -0.283 NA
HETATM   13  H   UNL     1      42.322 -14.774   7.650  1.00  0.00     0.128 HD
BRANCH  12  14
HETATM   14  C   UNL     1      43.554 -14.109   6.145  1.00  0.00     0.195 C 
BRANCH  14  15
HETATM   15  C   UNL     1      44.571 -13.593   7.170  1.00  0.00     0.230 C 
HETATM   16  N   UNL     1      43.993 -13.023   8.285  1.00  0.00    -0.360 N 
HETATM   17  H   UNL     1      42.982 -13.060   8.367  1.00  0.00     0.162 HD
HETATM   18  O   UNL     1      45.780 -13.653   6.977  1.00  0.00    -0.272 OA
BRANCH  16  19
HETATM   19  C   UNL     1      44.777 -12.453   9.361  1.00  0.00     0.118 C 
HETATM   20  C   UNL     1      44.317 -11.048   9.703  1.00  0.00     0.026 C 
ENDBRANCH  16  19
ENDBRANCH  14  15
ENDBRANCH  12  14
ENDBRANCH   1  12
BRANCH   5  21
HETATM   21  C   UNL     1      43.722 -19.764   2.094  1.00  0.00     0.417 C 
HETATM   22  F   UNL     1      44.771 -20.623   2.197  1.00  0.00    -0.166 F 
HETATM   23  F   UNL     1      42.625 -20.527   1.862  1.00  0.00    -0.166 F 
HETATM   24  F   UNL     1      43.936 -19.032   0.971  1.00  0.00    -0.166 F 
ENDBRANCH   5  21
TORSDOF 5
ENDMDL
MODEL 6
REMARK VINA RESULT:      -7.2      1.275      1.732
REMARK  5 active torsions:
REMARK  status: ('A' for Active; 'I' for Inactive)
REMARK    1  A    between atoms: C_2  and  N_3 
REMARK       I    between atoms: N_3  and  C_4 
REMARK    2  A    between atoms: C_4  and  C_5 
REMARK    3  A    between atoms: C_5  and  N_6 
REMARK    4  A    between atoms: N_6  and  C_7 
REMARK    5  A    between atoms: C_11  and  C_12 
ROOT
HETATM    1  C   UNL     1      43.313 -16.646   4.765  1.00  0.00     0.022 A 
HETATM    2  C   UNL     1      43.526 -17.887   4.093  1.00  0.00     0.012 A 
HETATM    3  C   UNL     1      44.316 -18.881   4.725  1.00  0.00     0.044 A 
HETATM    4  C   UNL     1      44.536 -20.132   4.124  1.00  0.00     0.046 A 
HETATM    5  C   UNL     1      43.988 -20.432   2.868  1.00  0.00     0.050 A 
HETATM    6  C   UNL     1      43.223 -19.456   2.224  1.00  0.00     0.017 A 
HETATM    7  C   UNL     1      42.999 -18.210   2.821  1.00  0.00     0.016 A 
HETATM    8  N   UNL     1      44.875 -18.616   5.921  1.00  0.00    -0.365 N 
HETATM    9  H   UNL     1      45.446 -19.336   6.364  1.00  0.00     0.165 HD
HETATM   10  C   UNL     1      44.737 -17.443   6.546  1.00  0.00     0.090 A 
HETATM   11  C   UNL     1      43.970 -16.437   5.982  1.00  0.00     0.041 A 
ENDROOT
BRANCH   1  12
HETATM   12  N   UNL     1      42.585 -15.618   4.141  1.00  0.00    -0.283 NA
HETATM   13  H   UNL     1      41.894 -15.196   4.765  1.00  0.00     0.128 HD
BRANCH  12  14
HETATM   14  C   UNL     1      43.297 -14.540   3.412  1.00  0.00     0.195 C 
BRANCH  14  15
HETATM   15  C   UNL     1      42.418 -13.969   2.292  1.00  0.00     0.230 C 
HETATM   16  N   UNL     1      42.319 -12.593   2.313  1.00  0.00    -0.360 N 
HETATM   17  H   UNL     1      42.876 -12.088   2.994  1.00  0.00     0.162 HD
HETATM   18  O   UNL     1      41.834 -14.688   1.490  1.00  0.00    -0.272 OA
BRANCH  16  19
HETATM   19  C   UNL     1      41.518 -11.858   1.357  1.00  0.00     0.118 C 
HETATM   20  C   UNL     1      42.332 -11.448   0.144  1.00  0.00     0.026 C 
ENDBRANCH  16  19
ENDBRANCH  14  15
ENDBRANCH  12  14
ENDBRANCH   1  12
BRANCH   5  21
HETATM   21  C   UNL     1      44.213 -21.780   2.212  1.00  0.00     0.417 C 
HETATM   22  F   UNL     1      44.352 -22.781   3.122  1.00  0.00    -0.166 F 
HETATM   23  F   UNL     1      43.182 -22.137   1.407  1.00  0.00    -0.166 F 
HETATM   24  F   UNL     1      45.335 -21.800   1.448  1.00  0.00    -0.166 F 
ENDBRANCH   5  21
TORSDOF 5
ENDMDL
MODEL 7
REMARK VINA RESULT:      -7.2      2.364      3.371
REMARK  5 active torsions:
REMARK  status: ('A' for Active; 'I' for Inactive)
REMARK    1  A    between atoms: C_2  and  N_3 
REMARK       I    between atoms: N_3  and  C_4 
REMARK    2  A    between atoms: C_4  and  C_5 
REMARK    3  A    between atoms: C_5  and  N_6 
REMARK    4  A    between atoms: N_6  and  C_7 
REMARK    5  A    between atoms: C_11  and  C_12 
ROOT
HETATM    1  C   UNL     1      40.785 -16.272   2.452  1.00  0.00     0.022 A 
HETATM    2  C   UNL     1      41.772 -17.280   2.669  1.00  0.00     0.012 A 
HETATM    3  C   UNL     1      42.294 -17.458   3.976  1.00  0.00     0.044 A 
HETATM    4  C   UNL     1      43.246 -18.454   4.255  1.00  0.00     0.046 A 
HETATM    5  C   UNL     1      43.720 -19.298   3.240  1.00  0.00     0.050 A 
HETATM    6  C   UNL     1      43.230 -19.124   1.943  1.00  0.00     0.017 A 
HETATM    7  C   UNL     1      42.280 -18.134   1.663  1.00  0.00     0.016 A 
HETATM    8  N   UNL     1      41.876 -16.649   4.967  1.00  0.00    -0.365 N 
HETATM    9  H   UNL     1      42.262 -16.782   5.903  1.00  0.00     0.165 HD
HETATM   10  C   UNL     1      40.995 -15.662   4.780  1.00  0.00     0.090 A 
HETATM   11  C   UNL     1      40.445 -15.445   3.528  1.00  0.00     0.041 A 
ENDROOT
BRANCH   1  12
HETATM   12  N   UNL     1      40.292 -16.030   1.158  1.00  0.00    -0.283 NA
HETATM   13  H   UNL     1      39.363 -16.428   1.016  1.00  0.00     0.128 HD
BRANCH  12  14
HETATM   14  C   UNL     1      40.318 -14.657   0.597  1.00  0.00     0.195 C 
BRANCH  14  15
HETATM   15  C   UNL     1      40.853 -14.667  -0.840  1.00  0.00     0.230 C 
HETATM   16  N   UNL     1      40.156 -15.505  -1.685  1.00  0.00    -0.360 N 
HETATM   17  H   UNL     1      39.332 -15.970  -1.318  1.00  0.00     0.162 HD
HETATM   18  O   UNL     1      41.835 -14.016  -1.176  1.00  0.00    -0.272 OA
BRANCH  16  19
HETATM   19  C   UNL     1      40.514 -15.679  -3.076  1.00  0.00     0.118 C 
HETATM   20  C   UNL     1      39.345 -16.195  -3.894  1.00  0.00     0.026 C 
ENDBRANCH  16  19
ENDBRANCH  14  15
ENDBRANCH  12  14
ENDBRANCH   1  12
BRANCH   5  21
HETATM   21  C   UNL     1      44.742 -20.380   3.529  1.00  0.00     0.417 C 
HETATM   22  F   UNL     1      45.599 -20.571   2.490  1.00  0.00    -0.166 F 
HETATM   23  F   UNL     1      45.509 -20.087   4.608  1.00  0.00    -0.166 F 
HETATM   24  F   UNL     1      44.163 -21.583   3.772  1.00  0.00    -0.166 F 
ENDBRANCH   5  21
TORSDOF 5
ENDMDL
MODEL 8
REMARK VINA RESULT:      -7.1      2.363      4.392
REMARK  5 active torsions:
REMARK  status: ('A' for Active; 'I' for Inactive)
REMARK    1  A    between atoms: C_2  and  N_3 
REMARK       I    between atoms: N_3  and  C_4 
REMARK    2  A    between atoms: C_4  and  C_5 
REMARK    3  A    between atoms: C_5  and  N_6 
REMARK    4  A    between atoms: N_6  and  C_7 
REMARK    5  A    between atoms: C_11  and  C_12 
ROOT
HETATM    1  C   UNL     1      43.269 -16.242   4.444  1.00  0.00     0.022 A 
HETATM    2  C   UNL     1      43.493 -17.571   3.972  1.00  0.00     0.012 A 
HETATM    3  C   UNL     1      43.509 -17.808   2.574  1.00  0.00     0.044 A 
HETATM    4  C   UNL     1      43.753 -19.090   2.052  1.00  0.00     0.046 A 
HETATM    5  C   UNL     1      43.976 -20.182   2.903  1.00  0.00     0.050 A 
HETATM    6  C   UNL     1      43.944 -19.968   4.285  1.00  0.00     0.017 A 
HETATM    7  C   UNL     1      43.704 -18.692   4.808  1.00  0.00     0.016 A 
HETATM    8  N   UNL     1      43.276 -16.785   1.731  1.00  0.00    -0.365 N 
HETATM    9  H   UNL     1      43.284 -16.968   0.727  1.00  0.00     0.165 HD
HETATM   10  C   UNL     1      43.009 -15.543   2.146  1.00  0.00     0.090 A 
HETATM   11  C   UNL     1      42.987 -15.250   3.500  1.00  0.00     0.041 A 
ENDROOT
BRANCH   1  12
HETATM   12  N   UNL     1      43.187 -15.984   5.823  1.00  0.00    -0.283 NA
HETATM   13  H   UNL     1      42.592 -16.657   6.310  1.00  0.00     0.128 HD
BRANCH  12  14
HETATM   14  C   UNL     1      44.423 -15.774   6.615  1.00  0.00     0.195 C 
BRANCH  14  15
HETATM   15  C   UNL     1      44.683 -14.278   6.831  1.00  0.00     0.230 C 
HETATM   16  N   UNL     1      44.488 -13.864   8.133  1.00  0.00    -0.360 N 
HETATM   17  H   UNL     1      44.272 -14.571   8.828  1.00  0.00     0.162 HD
HETATM   18  O   UNL     1      44.993 -13.530   5.912  1.00  0.00    -0.272 OA
BRANCH  16  19
HETATM   19  C   UNL     1      44.656 -12.486   8.543  1.00  0.00     0.118 C 
HETATM   20  C   UNL     1      44.413 -12.313  10.030  1.00  0.00     0.026 C 
ENDBRANCH  16  19
ENDBRANCH  14  15
ENDBRANCH  12  14
ENDBRANCH   1  12
BRANCH   5  21
HETATM   21  C   UNL     1      44.246 -21.568   2.353  1.00  0.00     0.417 C 
HETATM   22  F   UNL     1      43.310 -21.955   1.446  1.00  0.00    -0.166 F 
HETATM   23  F   UNL     1      45.444 -21.645   1.722  1.00  0.00    -0.166 F 
HETATM   24  F   UNL     1      44.252 -22.516   3.325  1.00  0.00    -0.166 F 
ENDBRANCH   5  21
TORSDOF 5
ENDMDL
MODEL 9
REMARK VINA RESULT:      -7.1      1.837      2.740
REMARK  5 active torsions:
REMARK  status: ('A' for Active; 'I' for Inactive)
REMARK    1  A    between atoms: C_2  and  N_3 
REMARK       I    between atoms: N_3  and  C_4 
REMARK    2  A    between atoms: C_4  and  C_5 
REMARK    3  A    between atoms: C_5  and  N_6 
REMARK    4  A    between atoms: N_6  and  C_7 
REMARK    5  A    between atoms: C_11  and  C_12 
ROOT
HETATM    1  C   UNL     1      43.277 -16.666   4.564  1.00  0.00     0.022 A 
HETATM    2  C   UNL     1      43.523 -17.926   3.938  1.00  0.00     0.012 A 
HETATM    3  C   UNL     1      44.247 -18.915   4.651  1.00  0.00     0.044 A 
HETATM    4  C   UNL     1      44.494 -20.182   4.096  1.00  0.00     0.046 A 
HETATM    5  C   UNL     1      44.041 -20.504   2.808  1.00  0.00     0.050 A 
HETATM    6  C   UNL     1      43.342 -19.533   2.084  1.00  0.00     0.017 A 
HETATM    7  C   UNL     1      43.092 -18.270   2.636  1.00  0.00     0.016 A 
HETATM    8  N   UNL     1      44.715 -18.630   5.880  1.00  0.00    -0.365 N 
HETATM    9  H   UNL     1      45.239 -19.348   6.382  1.00  0.00     0.165 HD
HETATM   10  C   UNL     1      44.546 -17.442   6.467  1.00  0.00     0.090 A 
HETATM   11  C   UNL     1      43.841 -16.438   5.823  1.00  0.00     0.041 A 
ENDROOT
BRANCH   1  12
HETATM   12  N   UNL     1      42.615 -15.643   3.863  1.00  0.00    -0.283 NA
HETATM   13  H   UNL     1      42.900 -15.597   2.883  1.00  0.00     0.128 HD
BRANCH  12  14
HETATM   14  C   UNL     1      41.139 -15.523   3.941  1.00  0.00     0.195 C 
BRANCH  14  15
HETATM   15  C   UNL     1      40.736 -14.366   4.862  1.00  0.00     0.230 C 
HETATM   16  N   UNL     1      41.741 -13.444   5.066  1.00  0.00    -0.360 N 
HETATM   17  H   UNL     1      42.606 -13.563   4.549  1.00  0.00     0.162 HD
HETATM   18  O   UNL     1      39.632 -14.306   5.391  1.00  0.00    -0.272 OA
BRANCH  16  19
HETATM   19  C   UNL     1      41.574 -12.289   5.923  1.00  0.00     0.118 C 
HETATM   20  C   UNL     1      41.279 -11.036   5.121  1.00  0.00     0.026 C 
ENDBRANCH  16  19
ENDBRANCH  14  15
ENDBRANCH  12  14
ENDBRANCH   1  12
BRANCH   5  21
HETATM   21  C   UNL     1      44.296 -21.869   2.200  1.00  0.00     0.417 C 
HETATM   22  F   UNL     1      43.299 -22.253   1.357  1.00  0.00    -0.166 F 
HETATM   23  F   UNL     1      45.442 -21.902   1.476  1.00  0.00    -0.166 F 
HETATM   24  F   UNL     1      44.396 -22.841   3.142  1.00  0.00    -0.166 F 
ENDBRANCH   5  21
TORSDOF 5
ENDMDL
MODEL 10
REMARK VINA RESULT:      -7.0      3.059      4.485
REMARK  5 active torsions:
REMARK  status: ('A' for Active; 'I' for Inactive)
REMARK    1  A    between atoms: C_2  and  N_3 
REMARK       I    between atoms: N_3  and  C_4 
REMARK    2  A    between atoms: C_4  and  C_5 
REMARK    3  A    between atoms: C_5  and  N_6 
REMARK    4  A    between atoms: N_6  and  C_7 
REMARK    5  A    between atoms: C_11  and  C_12 
ROOT
HETATM    1  C   UNL     1      41.226 -17.051   2.055  1.00  0.00     0.022 A 
HETATM    2  C   UNL     1      41.911 -17.487   3.230  1.00  0.00     0.012 A 
HETATM    3  C   UNL     1      43.295 -17.786   3.145  1.00  0.00     0.044 A 
HETATM    4  C   UNL     1      44.026 -18.191   4.274  1.00  0.00     0.046 A 
HETATM    5  C   UNL     1      43.403 -18.324   5.524  1.00  0.00     0.050 A 
HETATM    6  C   UNL     1      42.036 -18.051   5.621  1.00  0.00     0.017 A 
HETATM    7  C   UNL     1      41.305 -17.645   4.498  1.00  0.00     0.016 A 
HETATM    8  N   UNL     1      43.917 -17.690   1.955  1.00  0.00    -0.365 N 
HETATM    9  H   UNL     1      44.911 -17.913   1.904  1.00  0.00     0.165 HD
HETATM   10  C   UNL     1      43.288 -17.338   0.830  1.00  0.00     0.090 A 
HETATM   11  C   UNL     1      41.939 -17.026   0.852  1.00  0.00     0.041 A 
ENDROOT
BRANCH   1  12
HETATM   12  N   UNL     1      39.843 -16.804   2.092  1.00  0.00    -0.283 NA
HETATM   13  H   UNL     1      39.405 -17.172   2.938  1.00  0.00     0.128 HD
BRANCH  12  14
HETATM   14  C   UNL     1      39.324 -15.438   1.836  1.00  0.00     0.195 C 
BRANCH  14  15
HETATM   15  C   UNL     1      39.967 -14.426   2.792  1.00  0.00     0.230 C 
HETATM   16  N   UNL     1      39.632 -14.623   4.115  1.00  0.00    -0.360 N 
HETATM   17  H   UNL     1      39.072 -15.437   4.346  1.00  0.00     0.162 HD
HETATM   18  O   UNL     1      40.674 -13.508   2.392  1.00  0.00    -0.272 OA
BRANCH  16  19
HETATM   19  C   UNL     1      40.113 -13.762   5.175  1.00  0.00     0.118 C 
HETATM   20  C   UNL     1      41.478 -14.198   5.674  1.00  0.00     0.026 C 
ENDBRANCH  16  19
ENDBRANCH  14  15
ENDBRANCH  12  14
ENDBRANCH   1  12
BRANCH   5  21
HETATM   21  C   UNL     1      44.182 -18.755   6.751  1.00  0.00     0.417 C 
HETATM   22  F   UNL     1      45.473 -18.327   6.719  1.00  0.00    -0.166 F 
HETATM   23  F   UNL     1      43.646 -18.265   7.897  1.00  0.00    -0.166 F 
HETATM   24  F   UNL     1      44.230 -20.105   6.884  1.00  0.00    -0.166 F 
ENDBRANCH   5  21
TORSDOF 5
ENDMDL
