MODEL 1
REMARK VINA RESULT:     -10.5      0.000      0.000
REMARK  5 active torsions:
REMARK  status: ('A' for Active; 'I' for Inactive)
REMARK    1  A    between atoms: C_2  and  N_3 
REMARK    2  A    between atoms: C_10  and  C_11 
REMARK    3  A    between atoms: C_11  and  C_12 
REMARK    4  A    between atoms: C_12  and  C_13 
REMARK       I    between atoms: C_13  and  N_14 
REMARK    5  A    between atoms: N_14  and  C_15 
ROOT
HETATM    1  C   UNL     1      45.477 -13.157   7.667  1.00  0.00     0.222 C 
HETATM    2  N   UNL     1      44.345 -13.943   7.742  1.00  0.00    -0.327 N 
HETATM    3  O   UNL     1      46.292 -13.177   6.747  1.00  0.00    -0.273 OA
HETATM    4  H   UNL     1      43.712 -13.783   8.511  1.00  0.00     0.169 HD
ENDROOT
BRANCH   2   5
HETATM    5  C   UNL     1      43.929 -14.950   6.841  1.00  0.00     0.035 A 
HETATM    6  C   UNL     1      44.067 -16.320   7.061  1.00  0.00     0.049 A 
HETATM    7  C   UNL     1      43.658 -17.266   6.092  1.00  0.00     0.061 A 
HETATM    8  C   UNL     1      43.104 -16.825   4.883  1.00  0.00     0.050 A 
HETATM    9  C   UNL     1      43.715 -18.689   6.521  1.00  0.00     0.256 C 
HETATM   10  N   UNL     1      42.705 -17.630   3.803  1.00  0.00    -0.324 N 
HETATM   11  C   UNL     1      42.905 -15.449   4.698  1.00  0.00     0.033 A 
HETATM   12  C   UNL     1      43.212 -18.835   3.402  1.00  0.00     0.245 C 
HETATM   13  H   UNL     1      42.109 -17.221   3.092  1.00  0.00     0.169 HD
HETATM   14  O   UNL     1      42.838 -19.285   2.317  1.00  0.00    -0.271 OA
HETATM   15  C   UNL     1      44.358 -19.444   4.205  1.00  0.00     0.180 C 
HETATM   16  N   UNL     1      43.958 -19.665   5.585  1.00  0.00    -0.334 N 
HETATM   17  C   UNL     1      44.751 -20.836   3.693  1.00  0.00     0.037 C 
HETATM   18  C   UNL     1      44.146 -21.051   5.977  1.00  0.00     0.127 C 
HETATM   19  C   UNL     1      45.137 -21.588   4.959  1.00  0.00     0.022 C 
HETATM   20  C   UNL     1      43.326 -14.524   5.657  1.00  0.00     0.032 A 
HETATM   21  O   UNL     1      43.540 -18.957   7.707  1.00  0.00    -0.267 OA
ENDBRANCH   2   5
BRANCH   1  22
HETATM   22  C   UNL     1      45.672 -12.147   8.795  1.00  0.00     0.108 C 
BRANCH  22  23
HETATM   23  C   UNL     1      44.701 -12.221   9.968  1.00  0.00     0.050 C 
BRANCH  23  24
HETATM   24  C   UNL     1      43.640 -11.162   9.996  1.00  0.00    -0.030 A 
HETATM   25  C   UNL     1      43.325 -10.338  11.126  1.00  0.00    -0.002 A 
HETATM   26  C   UNL     1      42.298  -9.465  10.751  1.00  0.00     0.045 A 
HETATM   27  C   UNL     1      43.836 -10.261  12.440  1.00  0.00     0.014 A 
HETATM   28  N   UNL     1      41.995  -9.747   9.433  1.00  0.00    -0.352 N 
HETATM   29  C   UNL     1      41.769  -8.521  11.649  1.00  0.00     0.030 A 
HETATM   30  C   UNL     1      42.795 -10.768   8.979  1.00  0.00     0.099 A 
HETATM   31  C   UNL     1      42.293  -8.467  12.944  1.00  0.00     0.002 A 
HETATM   32  C   UNL     1      43.313  -9.325  13.338  1.00  0.00     0.001 A 
BRANCH  28  33
HETATM   33  C   UNL     1      40.989  -9.062   8.618  1.00  0.00     0.081 C 
HETATM   34  C   UNL     1      39.602  -9.682   8.796  1.00  0.00     0.032 C 
HETATM   35  C   UNL     1      41.396  -9.014   7.144  1.00  0.00     0.032 C 
ENDBRANCH  28  33
ENDBRANCH  23  24
ENDBRANCH  22  23
ENDBRANCH   1  22
TORSDOF 5
ENDMDL
MODEL 2
REMARK VINA RESULT:     -10.2      4.283     10.546
REMARK  5 active torsions:
REMARK  status: ('A' for Active; 'I' for Inactive)
REMARK    1  A    between atoms: C_2  and  N_3 
REMARK    2  A    between atoms: C_10  and  C_11 
REMARK    3  A    between atoms: C_11  and  C_12 
REMARK    4  A    between atoms: C_12  and  C_13 
REMARK       I    between atoms: C_13  and  N_14 
REMARK    5  A    between atoms: N_14  and  C_15 
ROOT
HETATM    1  C   UNL     1      41.084 -16.910   2.027  1.00  0.00     0.222 C 
HETATM    2  N   UNL     1      41.660 -15.944   2.826  1.00  0.00    -0.327 N 
HETATM    3  O   UNL     1      39.885 -17.179   1.995  1.00  0.00    -0.273 OA
HETATM    4  H   UNL     1      42.646 -15.765   2.710  1.00  0.00     0.169 HD
ENDROOT
BRANCH   2   5
HETATM    5  C   UNL     1      41.027 -15.128   3.791  1.00  0.00     0.035 A 
HETATM    6  C   UNL     1      40.424 -13.900   3.522  1.00  0.00     0.049 A 
HETATM    7  C   UNL     1      39.842 -13.123   4.551  1.00  0.00     0.061 A 
HETATM    8  C   UNL     1      39.868 -13.592   5.872  1.00  0.00     0.050 A 
HETATM    9  C   UNL     1      39.097 -11.917   4.103  1.00  0.00     0.256 C 
HETATM   10  N   UNL     1      39.389 -12.919   7.007  1.00  0.00    -0.324 N 
HETATM   11  C   UNL     1      40.414 -14.859   6.124  1.00  0.00     0.033 A 
HETATM   12  C   UNL     1      39.321 -11.573   7.238  1.00  0.00     0.245 C 
HETATM   13  H   UNL     1      39.250 -13.450   7.860  1.00  0.00     0.169 HD
HETATM   14  O   UNL     1      39.036 -11.197   8.377  1.00  0.00    -0.271 OA
HETATM   15  C   UNL     1      39.804 -10.623   6.146  1.00  0.00     0.180 C 
HETATM   16  N   UNL     1      39.042 -10.816   4.923  1.00  0.00    -0.334 N 
HETATM   17  C   UNL     1      39.575  -9.150   6.511  1.00  0.00     0.037 C 
HETATM   18  C   UNL     1      38.435  -9.575   4.474  1.00  0.00     0.127 C 
HETATM   19  C   UNL     1      39.242  -8.498   5.177  1.00  0.00     0.022 C 
HETATM   20  C   UNL     1      40.999 -15.610   5.101  1.00  0.00     0.032 A 
HETATM   21  O   UNL     1      38.546 -11.936   3.004  1.00  0.00    -0.267 OA
ENDBRANCH   2   5
BRANCH   1  22
HETATM   22  C   UNL     1      42.022 -17.643   1.072  1.00  0.00     0.108 C 
BRANCH  22  23
HETATM   23  C   UNL     1      43.506 -17.646   1.424  1.00  0.00     0.050 C 
BRANCH  23  24
HETATM   24  C   UNL     1      43.879 -18.438   2.642  1.00  0.00    -0.030 A 
HETATM   25  C   UNL     1      44.091 -19.855   2.673  1.00  0.00    -0.002 A 
HETATM   26  C   UNL     1      44.441 -20.211   3.981  1.00  0.00     0.045 A 
HETATM   27  C   UNL     1      44.018 -20.866   1.691  1.00  0.00     0.014 A 
HETATM   28  N   UNL     1      44.442 -19.047   4.725  1.00  0.00    -0.352 N 
HETATM   29  C   UNL     1      44.718 -21.544   4.332  1.00  0.00     0.030 A 
HETATM   30  C   UNL     1      44.100 -17.982   3.925  1.00  0.00     0.099 A 
HETATM   31  C   UNL     1      44.638 -22.524   3.339  1.00  0.00     0.002 A 
HETATM   32  C   UNL     1      44.292 -22.194   2.034  1.00  0.00     0.001 A 
BRANCH  28  33
HETATM   33  C   UNL     1      44.771 -18.938   6.148  1.00  0.00     0.081 C 
HETATM   34  C   UNL     1      43.714 -19.610   7.025  1.00  0.00     0.032 C 
HETATM   35  C   UNL     1      45.002 -17.483   6.562  1.00  0.00     0.032 C 
ENDBRANCH  28  33
ENDBRANCH  23  24
ENDBRANCH  22  23
ENDBRANCH   1  22
TORSDOF 5
ENDMDL
MODEL 3
REMARK VINA RESULT:     -10.1      0.697      2.447
REMARK  5 active torsions:
REMARK  status: ('A' for Active; 'I' for Inactive)
REMARK    1  A    between atoms: C_2  and  N_3 
REMARK    2  A    between atoms: C_10  and  C_11 
REMARK    3  A    between atoms: C_11  and  C_12 
REMARK    4  A    between atoms: C_12  and  C_13 
REMARK       I    between atoms: C_13  and  N_14 
REMARK    5  A    between atoms: N_14  and  C_15 
ROOT
HETATM    1  C   UNL     1      45.336 -13.191   7.683  1.00  0.00     0.222 C 
HETATM    2  N   UNL     1      44.214 -13.993   7.732  1.00  0.00    -0.327 N 
HETATM    3  O   UNL     1      46.171 -13.197   6.781  1.00  0.00    -0.273 OA
HETATM    4  H   UNL     1      43.563 -13.844   8.488  1.00  0.00     0.169 HD
ENDROOT
BRANCH   2   5
HETATM    5  C   UNL     1      43.831 -15.001   6.819  1.00  0.00     0.035 A 
HETATM    6  C   UNL     1      43.982 -16.370   7.037  1.00  0.00     0.049 A 
HETATM    7  C   UNL     1      43.607 -17.319   6.056  1.00  0.00     0.061 A 
HETATM    8  C   UNL     1      43.073 -16.880   4.837  1.00  0.00     0.050 A 
HETATM    9  C   UNL     1      43.674 -18.742   6.481  1.00  0.00     0.256 C 
HETATM   10  N   UNL     1      42.708 -17.686   3.747  1.00  0.00    -0.324 N 
HETATM   11  C   UNL     1      42.860 -15.507   4.653  1.00  0.00     0.033 A 
HETATM   12  C   UNL     1      43.239 -18.883   3.352  1.00  0.00     0.245 C 
HETATM   13  H   UNL     1      42.122 -17.283   3.024  1.00  0.00     0.169 HD
HETATM   14  O   UNL     1      42.895 -19.334   2.258  1.00  0.00    -0.271 OA
HETATM   15  C   UNL     1      44.376 -19.480   4.177  1.00  0.00     0.180 C 
HETATM   16  N   UNL     1      43.950 -19.711   5.548  1.00  0.00    -0.334 N 
HETATM   17  C   UNL     1      44.799 -20.865   3.669  1.00  0.00     0.037 C 
HETATM   18  C   UNL     1      44.148 -21.096   5.939  1.00  0.00     0.127 C 
HETATM   19  C   UNL     1      45.167 -21.616   4.941  1.00  0.00     0.022 C 
HETATM   20  C   UNL     1      43.248 -14.579   5.623  1.00  0.00     0.032 A 
HETATM   21  O   UNL     1      43.477 -19.017   7.663  1.00  0.00    -0.267 OA
ENDBRANCH   2   5
BRANCH   1  22
HETATM   22  C   UNL     1      45.494 -12.183   8.819  1.00  0.00     0.108 C 
BRANCH  22  23
HETATM   23  C   UNL     1      44.720 -12.458  10.103  1.00  0.00     0.050 C 
BRANCH  23  24
HETATM   24  C   UNL     1      43.797 -11.362  10.547  1.00  0.00    -0.030 A 
HETATM   25  C   UNL     1      42.859 -10.680   9.704  1.00  0.00    -0.002 A 
HETATM   26  C   UNL     1      42.174  -9.745  10.489  1.00  0.00     0.045 A 
HETATM   27  C   UNL     1      42.533 -10.786   8.335  1.00  0.00     0.014 A 
HETATM   28  N   UNL     1      42.678  -9.853  11.770  1.00  0.00    -0.352 N 
HETATM   29  C   UNL     1      41.177  -8.916   9.944  1.00  0.00     0.030 A 
HETATM   30  C   UNL     1      43.656 -10.818  11.807  1.00  0.00     0.099 A 
HETATM   31  C   UNL     1      40.875  -9.043   8.585  1.00  0.00     0.002 A 
HETATM   32  C   UNL     1      41.543  -9.965   7.787  1.00  0.00     0.001 A 
BRANCH  28  33
HETATM   33  C   UNL     1      42.241  -9.076  12.933  1.00  0.00     0.081 C 
HETATM   34  C   UNL     1      43.281  -9.104  14.054  1.00  0.00     0.032 C 
HETATM   35  C   UNL     1      40.868  -9.533  13.429  1.00  0.00     0.032 C 
ENDBRANCH  28  33
ENDBRANCH  23  24
ENDBRANCH  22  23
ENDBRANCH   1  22
TORSDOF 5
ENDMDL
MODEL 4
REMARK VINA RESULT:      -9.9      1.894      3.250
REMARK  5 active torsions:
REMARK  status: ('A' for Active; 'I' for Inactive)
REMARK    1  A    between atoms: C_2  and  N_3 
REMARK    2  A    between atoms: C_10  and  C_11 
REMARK    3  A    between atoms: C_11  and  C_12 
REMARK    4  A    between atoms: C_12  and  C_13 
REMARK       I    between atoms: C_13  and  N_14 
REMARK    5  A    between atoms: N_14  and  C_15 
ROOT
HETATM    1  C   UNL     1      45.456 -12.819   8.255  1.00  0.00     0.222 C 
HETATM    2  N   UNL     1      44.328 -13.581   8.023  1.00  0.00    -0.327 N 
HETATM    3  O   UNL     1      46.440 -12.771   7.520  1.00  0.00    -0.273 OA
HETATM    4  H   UNL     1      43.555 -13.480   8.662  1.00  0.00     0.169 HD
ENDROOT
BRANCH   2   5
HETATM    5  C   UNL     1      44.098 -14.484   6.961  1.00  0.00     0.035 A 
HETATM    6  C   UNL     1      43.645 -14.122   5.693  1.00  0.00     0.049 A 
HETATM    7  C   UNL     1      43.403 -15.092   4.692  1.00  0.00     0.061 A 
HETATM    8  C   UNL     1      43.620 -16.447   4.974  1.00  0.00     0.050 A 
HETATM    9  C   UNL     1      43.077 -14.555   3.344  1.00  0.00     0.256 C 
HETATM   10  N   UNL     1      43.373 -17.530   4.114  1.00  0.00    -0.324 N 
HETATM   11  C   UNL     1      44.141 -16.797   6.228  1.00  0.00     0.033 A 
HETATM   12  C   UNL     1      42.429 -17.643   3.131  1.00  0.00     0.245 C 
HETATM   13  H   UNL     1      43.786 -18.428   4.339  1.00  0.00     0.169 HD
HETATM   14  O   UNL     1      42.263 -18.751   2.616  1.00  0.00    -0.271 OA
HETATM   15  C   UNL     1      41.496 -16.462   2.880  1.00  0.00     0.180 C 
HETATM   16  N   UNL     1      42.255 -15.277   2.513  1.00  0.00    -0.334 N 
HETATM   17  C   UNL     1      40.560 -16.702   1.688  1.00  0.00     0.037 C 
HETATM   18  C   UNL     1      41.810 -14.735   1.241  1.00  0.00     0.127 C 
HETATM   19  C   UNL     1      40.422 -15.323   1.058  1.00  0.00     0.022 C 
HETATM   20  C   UNL     1      44.363 -15.831   7.213  1.00  0.00     0.032 A 
HETATM   21  O   UNL     1      43.555 -13.475   3.005  1.00  0.00    -0.267 OA
ENDBRANCH   2   5
BRANCH   1  22
HETATM   22  C   UNL     1      45.425 -11.930   9.495  1.00  0.00     0.108 C 
BRANCH  22  23
HETATM   23  C   UNL     1      44.235 -12.089  10.434  1.00  0.00     0.050 C 
BRANCH  23  24
HETATM   24  C   UNL     1      43.261 -10.948  10.443  1.00  0.00    -0.030 A 
HETATM   25  C   UNL     1      43.044 -10.057  11.545  1.00  0.00    -0.002 A 
HETATM   26  C   UNL     1      42.078  -9.120  11.158  1.00  0.00     0.045 A 
HETATM   27  C   UNL     1      43.596  -9.967  12.841  1.00  0.00     0.014 A 
HETATM   28  N   UNL     1      41.717  -9.431   9.861  1.00  0.00    -0.352 N 
HETATM   29  C   UNL     1      41.651  -8.102  12.028  1.00  0.00     0.030 A 
HETATM   30  C   UNL     1      42.421 -10.531   9.432  1.00  0.00     0.099 A 
HETATM   31  C   UNL     1      42.214  -8.037  13.305  1.00  0.00     0.002 A 
HETATM   32  C   UNL     1      43.175  -8.957  13.710  1.00  0.00     0.001 A 
BRANCH  28  33
HETATM   33  C   UNL     1      40.745  -8.703   9.043  1.00  0.00     0.081 C 
HETATM   34  C   UNL     1      39.386  -9.404   9.023  1.00  0.00     0.032 C 
HETATM   35  C   UNL     1      41.271  -8.459   7.628  1.00  0.00     0.032 C 
ENDBRANCH  28  33
ENDBRANCH  23  24
ENDBRANCH  22  23
ENDBRANCH   1  22
TORSDOF 5
ENDMDL
MODEL 5
REMARK VINA RESULT:      -9.6      6.602     11.747
REMARK  5 active torsions:
REMARK  status: ('A' for Active; 'I' for Inactive)
REMARK    1  A    between atoms: C_2  and  N_3 
REMARK    2  A    between atoms: C_10  and  C_11 
REMARK    3  A    between atoms: C_11  and  C_12 
REMARK    4  A    between atoms: C_12  and  C_13 
REMARK       I    between atoms: C_13  and  N_14 
REMARK    5  A    between atoms: N_14  and  C_15 
ROOT
HETATM    1  C   UNL     1      41.298 -16.296   0.717  1.00  0.00     0.222 C 
HETATM    2  N   UNL     1      41.641 -16.172  -0.614  1.00  0.00    -0.327 N 
HETATM    3  O   UNL     1      40.616 -15.492   1.349  1.00  0.00    -0.273 OA
HETATM    4  H   UNL     1      42.143 -16.935  -1.042  1.00  0.00     0.169 HD
ENDROOT
BRANCH   2   5
HETATM    5  C   UNL     1      41.345 -15.102  -1.487  1.00  0.00     0.035 A 
HETATM    6  C   UNL     1      41.785 -13.789  -1.315  1.00  0.00     0.049 A 
HETATM    7  C   UNL     1      41.415 -12.763  -2.216  1.00  0.00     0.061 A 
HETATM    8  C   UNL     1      40.589 -13.064  -3.307  1.00  0.00     0.050 A 
HETATM    9  C   UNL     1      42.082 -11.451  -2.003  1.00  0.00     0.256 C 
HETATM   10  N   UNL     1      40.088 -12.154  -4.251  1.00  0.00    -0.324 N 
HETATM   11  C   UNL     1      40.207 -14.398  -3.512  1.00  0.00     0.033 A 
HETATM   12  C   UNL     1      39.787 -10.830  -4.088  1.00  0.00     0.245 C 
HETATM   13  H   UNL     1      39.702 -12.519  -5.115  1.00  0.00     0.169 HD
HETATM   14  O   UNL     1      39.185 -10.259  -4.999  1.00  0.00    -0.271 OA
HETATM   15  C   UNL     1      40.018 -10.197  -2.719  1.00  0.00     0.180 C 
HETATM   16  N   UNL     1      41.417 -10.296  -2.336  1.00  0.00    -0.334 N 
HETATM   17  C   UNL     1      39.728  -8.690  -2.718  1.00  0.00     0.037 C 
HETATM   18  C   UNL     1      41.978  -8.992  -2.030  1.00  0.00     0.127 C 
HETATM   19  C   UNL     1      40.761  -8.126  -1.754  1.00  0.00     0.022 C 
HETATM   20  C   UNL     1      40.567 -15.400  -2.607  1.00  0.00     0.032 A 
HETATM   21  O   UNL     1      43.218 -11.434  -1.534  1.00  0.00    -0.267 OA
ENDBRANCH   2   5
BRANCH   1  22
HETATM   22  C   UNL     1      41.761 -17.571   1.417  1.00  0.00     0.108 C 
BRANCH  22  23
HETATM   23  C   UNL     1      43.265 -17.785   1.546  1.00  0.00     0.050 C 
BRANCH  23  24
HETATM   24  C   UNL     1      43.707 -18.551   2.757  1.00  0.00    -0.030 A 
HETATM   25  C   UNL     1      44.003 -19.953   2.785  1.00  0.00    -0.002 A 
HETATM   26  C   UNL     1      44.398 -20.285   4.086  1.00  0.00     0.045 A 
HETATM   27  C   UNL     1      43.973 -20.968   1.804  1.00  0.00     0.014 A 
HETATM   28  N   UNL     1      44.344 -19.122   4.829  1.00  0.00    -0.352 N 
HETATM   29  C   UNL     1      44.761 -21.599   4.432  1.00  0.00     0.030 A 
HETATM   30  C   UNL     1      43.924 -18.081   4.036  1.00  0.00     0.099 A 
HETATM   31  C   UNL     1      44.721 -22.584   3.442  1.00  0.00     0.002 A 
HETATM   32  C   UNL     1      44.332 -22.276   2.143  1.00  0.00     0.001 A 
BRANCH  28  33
HETATM   33  C   UNL     1      44.692 -18.992   6.246  1.00  0.00     0.081 C 
HETATM   34  C   UNL     1      43.601 -19.566   7.151  1.00  0.00     0.032 C 
HETATM   35  C   UNL     1      45.021 -17.544   6.613  1.00  0.00     0.032 C 
ENDBRANCH  28  33
ENDBRANCH  23  24
ENDBRANCH  22  23
ENDBRANCH   1  22
TORSDOF 5
ENDMDL
MODEL 6
REMARK VINA RESULT:      -9.5      4.830      9.952
REMARK  5 active torsions:
REMARK  status: ('A' for Active; 'I' for Inactive)
REMARK    1  A    between atoms: C_2  and  N_3 
REMARK    2  A    between atoms: C_10  and  C_11 
REMARK    3  A    between atoms: C_11  and  C_12 
REMARK    4  A    between atoms: C_12  and  C_13 
REMARK       I    between atoms: C_13  and  N_14 
REMARK    5  A    between atoms: N_14  and  C_15 
ROOT
HETATM    1  C   UNL     1      41.396 -16.594   6.457  1.00  0.00     0.222 C 
HETATM    2  N   UNL     1      41.716 -15.412   5.821  1.00  0.00    -0.327 N 
HETATM    3  O   UNL     1      40.271 -17.085   6.513  1.00  0.00    -0.273 OA
HETATM    4  H   UNL     1      42.689 -15.149   5.781  1.00  0.00     0.169 HD
ENDROOT
BRANCH   2   5
HETATM    5  C   UNL     1      40.839 -14.511   5.176  1.00  0.00     0.035 A 
HETATM    6  C   UNL     1      40.337 -14.676   3.885  1.00  0.00     0.049 A 
HETATM    7  C   UNL     1      39.491 -13.709   3.294  1.00  0.00     0.061 A 
HETATM    8  C   UNL     1      39.144 -12.558   4.015  1.00  0.00     0.050 A 
HETATM    9  C   UNL     1      38.903 -14.087   1.981  1.00  0.00     0.256 C 
HETATM   10  N   UNL     1      38.367 -11.484   3.552  1.00  0.00    -0.324 N 
HETATM   11  C   UNL     1      39.596 -12.432   5.337  1.00  0.00     0.033 A 
HETATM   12  C   UNL     1      38.238 -11.009   2.276  1.00  0.00     0.245 C 
HETATM   13  H   UNL     1      37.993 -10.831   4.232  1.00  0.00     0.169 HD
HETATM   14  O   UNL     1      37.646  -9.940   2.116  1.00  0.00    -0.271 OA
HETATM   15  C   UNL     1      39.010 -11.707   1.160  1.00  0.00     0.180 C 
HETATM   16  N   UNL     1      38.621 -13.105   1.063  1.00  0.00    -0.334 N 
HETATM   17  C   UNL     1      38.689 -11.124  -0.223  1.00  0.00     0.037 C 
HETATM   18  C   UNL     1      38.166 -13.438  -0.276  1.00  0.00     0.127 C 
HETATM   19  C   UNL     1      38.745 -12.334  -1.144  1.00  0.00     0.022 C 
HETATM   20  C   UNL     1      40.444 -13.387   5.904  1.00  0.00     0.032 A 
HETATM   21  O   UNL     1      38.683 -15.274   1.751  1.00  0.00    -0.267 OA
ENDBRANCH   2   5
BRANCH   1  22
HETATM   22  C   UNL     1      42.561 -17.364   7.075  1.00  0.00     0.108 C 
BRANCH  22  23
HETATM   23  C   UNL     1      43.899 -17.297   6.349  1.00  0.00     0.050 C 
BRANCH  23  24
HETATM   24  C   UNL     1      44.041 -18.215   5.171  1.00  0.00    -0.030 A 
HETATM   25  C   UNL     1      43.826 -17.842   3.803  1.00  0.00    -0.002 A 
HETATM   26  C   UNL     1      44.076 -18.965   3.005  1.00  0.00     0.045 A 
HETATM   27  C   UNL     1      43.443 -16.636   3.177  1.00  0.00     0.014 A 
HETATM   28  N   UNL     1      44.432 -19.990   3.859  1.00  0.00    -0.352 N 
HETATM   29  C   UNL     1      43.952 -18.915   1.605  1.00  0.00     0.030 A 
HETATM   30  C   UNL     1      44.407 -19.545   5.159  1.00  0.00     0.099 A 
HETATM   31  C   UNL     1      43.571 -17.708   1.013  1.00  0.00     0.002 A 
HETATM   32  C   UNL     1      43.318 -16.581   1.786  1.00  0.00     0.001 A 
BRANCH  28  33
HETATM   33  C   UNL     1      44.801 -21.351   3.460  1.00  0.00     0.081 C 
HETATM   34  C   UNL     1      43.953 -21.844   2.286  1.00  0.00     0.032 C 
HETATM   35  C   UNL     1      44.739 -22.319   4.643  1.00  0.00     0.032 C 
ENDBRANCH  28  33
ENDBRANCH  23  24
ENDBRANCH  22  23
ENDBRANCH   1  22
TORSDOF 5
ENDMDL
MODEL 7
REMARK VINA RESULT:      -9.5      2.748      4.394
REMARK  5 active torsions:
REMARK  status: ('A' for Active; 'I' for Inactive)
REMARK    1  A    between atoms: C_2  and  N_3 
REMARK    2  A    between atoms: C_10  and  C_11 
REMARK    3  A    between atoms: C_11  and  C_12 
REMARK    4  A    between atoms: C_12  and  C_13 
REMARK       I    between atoms: C_13  and  N_14 
REMARK    5  A    between atoms: N_14  and  C_15 
ROOT
HETATM    1  C   UNL     1      40.164 -11.888   6.902  1.00  0.00     0.222 C 
HETATM    2  N   UNL     1      39.701 -13.139   6.547  1.00  0.00    -0.327 N 
HETATM    3  O   UNL     1      40.810 -11.140   6.171  1.00  0.00    -0.273 OA
HETATM    4  H   UNL     1      39.118 -13.629   7.209  1.00  0.00     0.169 HD
ENDROOT
BRANCH   2   5
HETATM    5  C   UNL     1      39.917 -13.829   5.333  1.00  0.00     0.035 A 
HETATM    6  C   UNL     1      40.580 -15.051   5.220  1.00  0.00     0.049 A 
HETATM    7  C   UNL     1      40.789 -15.662   3.962  1.00  0.00     0.061 A 
HETATM    8  C   UNL     1      40.325 -15.032   2.799  1.00  0.00     0.050 A 
HETATM    9  C   UNL     1      41.365 -17.033   4.002  1.00  0.00     0.256 C 
HETATM   10  N   UNL     1      40.504 -15.477   1.479  1.00  0.00    -0.324 N 
HETATM   11  C   UNL     1      39.600 -13.838   2.927  1.00  0.00     0.033 A 
HETATM   12  C   UNL     1      41.535 -16.205   0.954  1.00  0.00     0.245 C 
HETATM   13  H   UNL     1      39.928 -15.068   0.751  1.00  0.00     0.169 HD
HETATM   14  O   UNL     1      41.586 -16.332  -0.271  1.00  0.00    -0.271 OA
HETATM   15  C   UNL     1      42.668 -16.634   1.883  1.00  0.00     0.180 C 
HETATM   16  N   UNL     1      42.160 -17.460   2.966  1.00  0.00    -0.334 N 
HETATM   17  C   UNL     1      43.697 -17.524   1.173  1.00  0.00     0.037 C 
HETATM   18  C   UNL     1      42.843 -18.740   3.023  1.00  0.00     0.127 C 
HETATM   19  C   UNL     1      44.132 -18.502   2.255  1.00  0.00     0.022 C 
HETATM   20  C   UNL     1      39.412 -13.237   4.174  1.00  0.00     0.032 A 
HETATM   21  O   UNL     1      41.112 -17.754   4.965  1.00  0.00    -0.267 OA
ENDBRANCH   2   5
BRANCH   1  22
HETATM   22  C   UNL     1      39.774 -11.394   8.293  1.00  0.00     0.108 C 
BRANCH  22  23
HETATM   23  C   UNL     1      40.511 -10.172   8.827  1.00  0.00     0.050 C 
BRANCH  23  24
HETATM   24  C   UNL     1      41.466 -10.435   9.953  1.00  0.00    -0.030 A 
HETATM   25  C   UNL     1      42.782 -10.986   9.809  1.00  0.00    -0.002 A 
HETATM   26  C   UNL     1      43.361 -11.058  11.081  1.00  0.00     0.045 A 
HETATM   27  C   UNL     1      43.530 -11.426   8.696  1.00  0.00     0.014 A 
HETATM   28  N   UNL     1      42.429 -10.566  11.974  1.00  0.00    -0.352 N 
HETATM   29  C   UNL     1      44.662 -11.557  11.270  1.00  0.00     0.030 A 
HETATM   30  C   UNL     1      41.289 -10.197  11.300  1.00  0.00     0.099 A 
HETATM   31  C   UNL     1      45.380 -11.985  10.150  1.00  0.00     0.002 A 
HETATM   32  C   UNL     1      44.824 -11.923   8.878  1.00  0.00     0.001 A 
BRANCH  28  33
HETATM   33  C   UNL     1      42.612 -10.435  13.421  1.00  0.00     0.081 C 
HETATM   34  C   UNL     1      41.273 -10.431  14.162  1.00  0.00     0.032 C 
HETATM   35  C   UNL     1      43.451  -9.205  13.772  1.00  0.00     0.032 C 
ENDBRANCH  28  33
ENDBRANCH  23  24
ENDBRANCH  22  23
ENDBRANCH   1  22
TORSDOF 5
ENDMDL
MODEL 8
REMARK VINA RESULT:      -9.4      2.000      4.081
REMARK  5 active torsions:
REMARK  status: ('A' for Active; 'I' for Inactive)
REMARK    1  A    between atoms: C_2  and  N_3 
REMARK    2  A    between atoms: C_10  and  C_11 
REMARK    3  A    between atoms: C_11  and  C_12 
REMARK    4  A    between atoms: C_12  and  C_13 
REMARK       I    between atoms: C_13  and  N_14 
REMARK    5  A    between atoms: N_14  and  C_15 
ROOT
HETATM    1  C   UNL     1      45.483 -12.893   8.134  1.00  0.00     0.222 C 
HETATM    2  N   UNL     1      44.351 -13.653   7.921  1.00  0.00    -0.327 N 
HETATM    3  O   UNL     1      46.447 -12.834   7.374  1.00  0.00    -0.273 OA
HETATM    4  H   UNL     1      43.593 -13.562   8.581  1.00  0.00     0.169 HD
ENDROOT
BRANCH   2   5
HETATM    5  C   UNL     1      44.094 -14.543   6.854  1.00  0.00     0.035 A 
HETATM    6  C   UNL     1      43.632 -14.163   5.594  1.00  0.00     0.049 A 
HETATM    7  C   UNL     1      43.363 -15.121   4.588  1.00  0.00     0.061 A 
HETATM    8  C   UNL     1      43.561 -16.482   4.857  1.00  0.00     0.050 A 
HETATM    9  C   UNL     1      43.030 -14.568   3.248  1.00  0.00     0.256 C 
HETATM   10  N   UNL     1      43.287 -17.553   3.991  1.00  0.00    -0.324 N 
HETATM   11  C   UNL     1      44.091 -16.851   6.102  1.00  0.00     0.033 A 
HETATM   12  C   UNL     1      42.330 -17.643   3.018  1.00  0.00     0.245 C 
HETATM   13  H   UNL     1      43.688 -18.460   4.204  1.00  0.00     0.169 HD
HETATM   14  O   UNL     1      42.140 -18.743   2.496  1.00  0.00    -0.271 OA
HETATM   15  C   UNL     1      41.414 -16.444   2.787  1.00  0.00     0.180 C 
HETATM   16  N   UNL     1      42.188 -15.269   2.421  1.00  0.00    -0.334 N 
HETATM   17  C   UNL     1      40.461 -16.659   1.604  1.00  0.00     0.037 C 
HETATM   18  C   UNL     1      41.737 -14.709   1.159  1.00  0.00     0.127 C 
HETATM   19  C   UNL     1      40.338 -15.274   0.987  1.00  0.00     0.022 C 
HETATM   20  C   UNL     1      44.339 -15.897   7.092  1.00  0.00     0.032 A 
HETATM   21  O   UNL     1      43.522 -13.493   2.913  1.00  0.00    -0.267 OA
ENDBRANCH   2   5
BRANCH   1  22
HETATM   22  C   UNL     1      45.483 -12.019   9.385  1.00  0.00     0.108 C 
BRANCH  22  23
HETATM   23  C   UNL     1      44.445 -12.338  10.454  1.00  0.00     0.050 C 
BRANCH  23  24
HETATM   24  C   UNL     1      43.577 -11.189  10.874  1.00  0.00    -0.030 A 
HETATM   25  C   UNL     1      42.710 -10.448  10.006  1.00  0.00    -0.002 A 
HETATM   26  C   UNL     1      42.059  -9.475  10.773  1.00  0.00     0.045 A 
HETATM   27  C   UNL     1      42.422 -10.529   8.626  1.00  0.00     0.014 A 
HETATM   28  N   UNL     1      42.514  -9.619  12.070  1.00  0.00    -0.352 N 
HETATM   29  C   UNL     1      41.133  -8.585  10.201  1.00  0.00     0.030 A 
HETATM   30  C   UNL     1      43.429 -10.642  12.132  1.00  0.00     0.099 A 
HETATM   31  C   UNL     1      40.867  -8.688   8.833  1.00  0.00     0.002 A 
HETATM   32  C   UNL     1      41.503  -9.647   8.052  1.00  0.00     0.001 A 
BRANCH  28  33
HETATM   33  C   UNL     1      42.088  -8.821  13.222  1.00  0.00     0.081 C 
HETATM   34  C   UNL     1      43.045  -8.980  14.404  1.00  0.00     0.032 C 
HETATM   35  C   UNL     1      40.645  -9.137  13.621  1.00  0.00     0.032 C 
ENDBRANCH  28  33
ENDBRANCH  23  24
ENDBRANCH  22  23
ENDBRANCH   1  22
TORSDOF 5
ENDMDL
MODEL 9
REMARK VINA RESULT:      -9.4      7.005     11.932
REMARK  5 active torsions:
REMARK  status: ('A' for Active; 'I' for Inactive)
REMARK    1  A    between atoms: C_2  and  N_3 
REMARK    2  A    between atoms: C_10  and  C_11 
REMARK    3  A    between atoms: C_11  and  C_12 
REMARK    4  A    between atoms: C_12  and  C_13 
REMARK       I    between atoms: C_13  and  N_14 
REMARK    5  A    between atoms: N_14  and  C_15 
ROOT
HETATM    1  C   UNL     1      41.577 -16.016   0.560  1.00  0.00     0.222 C 
HETATM    2  N   UNL     1      40.944 -16.045  -0.666  1.00  0.00    -0.327 N 
HETATM    3  O   UNL     1      41.789 -15.003   1.222  1.00  0.00    -0.273 OA
HETATM    4  H   UNL     1      40.763 -16.948  -1.079  1.00  0.00     0.169 HD
ENDROOT
BRANCH   2   5
HETATM    5  C   UNL     1      40.477 -14.949  -1.425  1.00  0.00     0.035 A 
HETATM    6  C   UNL     1      39.445 -14.095  -1.037  1.00  0.00     0.049 A 
HETATM    7  C   UNL     1      39.009 -13.039  -1.871  1.00  0.00     0.061 A 
HETATM    8  C   UNL     1      39.622 -12.841  -3.116  1.00  0.00     0.050 A 
HETATM    9  C   UNL     1      38.015 -12.113  -1.268  1.00  0.00     0.256 C 
HETATM   10  N   UNL     1      39.269 -11.882  -4.079  1.00  0.00    -0.324 N 
HETATM   11  C   UNL     1      40.704 -13.661  -3.470  1.00  0.00     0.033 A 
HETATM   12  C   UNL     1      38.040 -11.339  -4.334  1.00  0.00     0.245 C 
HETATM   13  H   UNL     1      39.926 -11.683  -4.825  1.00  0.00     0.169 HD
HETATM   14  O   UNL     1      37.914 -10.647  -5.347  1.00  0.00    -0.271 OA
HETATM   15  C   UNL     1      36.856 -11.787  -3.481  1.00  0.00     0.180 C 
HETATM   16  N   UNL     1      37.094 -11.493  -2.078  1.00  0.00    -0.334 N 
HETATM   17  C   UNL     1      35.571 -11.020  -3.821  1.00  0.00     0.037 C 
HETATM   18  C   UNL     1      36.028 -10.681  -1.517  1.00  0.00     0.127 C 
HETATM   19  C   UNL     1      34.869 -10.886  -2.477  1.00  0.00     0.022 C 
HETATM   20  C   UNL     1      41.116 -14.709  -2.643  1.00  0.00     0.032 A 
HETATM   21  O   UNL     1      38.043 -11.922  -0.054  1.00  0.00    -0.267 OA
ENDBRANCH   2   5
BRANCH   1  22
HETATM   22  C   UNL     1      41.978 -17.368   1.144  1.00  0.00     0.108 C 
BRANCH  22  23
HETATM   23  C   UNL     1      43.468 -17.628   1.333  1.00  0.00     0.050 C 
BRANCH  23  24
HETATM   24  C   UNL     1      43.838 -18.400   2.565  1.00  0.00    -0.030 A 
HETATM   25  C   UNL     1      44.064 -19.815   2.615  1.00  0.00    -0.002 A 
HETATM   26  C   UNL     1      44.405 -20.151   3.931  1.00  0.00     0.045 A 
HETATM   27  C   UNL     1      44.012 -20.839   1.645  1.00  0.00     0.014 A 
HETATM   28  N   UNL     1      44.388 -18.978   4.660  1.00  0.00    -0.352 N 
HETATM   29  C   UNL     1      44.693 -21.477   4.301  1.00  0.00     0.030 A 
HETATM   30  C   UNL     1      44.042 -17.927   3.844  1.00  0.00     0.099 A 
HETATM   31  C   UNL     1      44.633 -22.470   3.319  1.00  0.00     0.002 A 
HETATM   32  C   UNL     1      44.296 -22.159   2.007  1.00  0.00     0.001 A 
BRANCH  28  33
HETATM   33  C   UNL     1      44.701 -18.848   6.085  1.00  0.00     0.081 C 
HETATM   34  C   UNL     1      43.629 -19.498   6.961  1.00  0.00     0.032 C 
HETATM   35  C   UNL     1      44.938 -17.389   6.478  1.00  0.00     0.032 C 
ENDBRANCH  28  33
ENDBRANCH  23  24
ENDBRANCH  22  23
ENDBRANCH   1  22
TORSDOF 5
ENDMDL
MODEL 10
REMARK VINA RESULT:      -9.4      2.596      4.079
REMARK  5 active torsions:
REMARK  status: ('A' for Active; 'I' for Inactive)
REMARK    1  A    between atoms: C_2  and  N_3 
REMARK    2  A    between atoms: C_10  and  C_11 
REMARK    3  A    between atoms: C_11  and  C_12 
REMARK    4  A    between atoms: C_12  and  C_13 
REMARK       I    between atoms: C_13  and  N_14 
REMARK    5  A    between atoms: N_14  and  C_15 
ROOT
HETATM    1  C   UNL     1      39.418 -11.576   7.525  1.00  0.00     0.222 C 
HETATM    2  N   UNL     1      40.047 -11.692   6.302  1.00  0.00    -0.327 N 
HETATM    3  O   UNL     1      38.821 -12.483   8.101  1.00  0.00    -0.273 OA
HETATM    4  H   UNL     1      40.567 -10.896   5.965  1.00  0.00     0.169 HD
ENDROOT
BRANCH   2   5
HETATM    5  C   UNL     1      40.083 -12.819   5.451  1.00  0.00     0.035 A 
HETATM    6  C   UNL     1      40.655 -14.048   5.782  1.00  0.00     0.049 A 
HETATM    7  C   UNL     1      40.684 -15.119   4.859  1.00  0.00     0.061 A 
HETATM    8  C   UNL     1      40.130 -14.950   3.583  1.00  0.00     0.050 A 
HETATM    9  C   UNL     1      41.178 -16.415   5.396  1.00  0.00     0.256 C 
HETATM   10  N   UNL     1      40.132 -15.891   2.540  1.00  0.00    -0.324 N 
HETATM   11  C   UNL     1      39.496 -13.736   3.281  1.00  0.00     0.033 A 
HETATM   12  C   UNL     1      41.052 -16.865   2.268  1.00  0.00     0.245 C 
HETATM   13  H   UNL     1      39.503 -15.744   1.758  1.00  0.00     0.169 HD
HETATM   14  O   UNL     1      40.957 -17.465   1.195  1.00  0.00    -0.271 OA
HETATM   15  C   UNL     1      42.255 -17.007   3.196  1.00  0.00     0.180 C 
HETATM   16  N   UNL     1      41.825 -17.289   4.556  1.00  0.00    -0.334 N 
HETATM   17  C   UNL     1      43.143 -18.201   2.820  1.00  0.00     0.037 C 
HETATM   18  C   UNL     1      42.432 -18.507   5.063  1.00  0.00     0.127 C 
HETATM   19  C   UNL     1      43.638 -18.716   4.163  1.00  0.00     0.022 C 
HETATM   20  C   UNL     1      39.486 -12.680   4.197  1.00  0.00     0.032 A 
HETATM   21  O   UNL     1      40.993 -16.673   6.583  1.00  0.00    -0.267 OA
ENDBRANCH   2   5
BRANCH   1  22
HETATM   22  C   UNL     1      39.544 -10.225   8.223  1.00  0.00     0.108 C 
BRANCH  22  23
HETATM   23  C   UNL     1      40.869  -9.486   8.071  1.00  0.00     0.050 C 
BRANCH  23  24
HETATM   24  C   UNL     1      42.041 -10.114   8.764  1.00  0.00    -0.030 A 
HETATM   25  C   UNL     1      42.416  -9.882  10.128  1.00  0.00    -0.002 A 
HETATM   26  C   UNL     1      43.545 -10.661  10.404  1.00  0.00     0.045 A 
HETATM   27  C   UNL     1      41.880  -9.075  11.155  1.00  0.00     0.014 A 
HETATM   28  N   UNL     1      43.851 -11.347   9.244  1.00  0.00    -0.352 N 
HETATM   29  C   UNL     1      44.152 -10.655  11.673  1.00  0.00     0.030 A 
HETATM   30  C   UNL     1      42.954 -11.016   8.257  1.00  0.00     0.099 A 
HETATM   31  C   UNL     1      43.600  -9.846  12.670  1.00  0.00     0.002 A 
HETATM   32  C   UNL     1      42.479  -9.064  12.418  1.00  0.00     0.001 A 
BRANCH  28  33
HETATM   33  C   UNL     1      44.951 -12.299   9.075  1.00  0.00     0.081 C 
HETATM   34  C   UNL     1      46.278 -11.587   8.805  1.00  0.00     0.032 C 
HETATM   35  C   UNL     1      44.639 -13.332   7.991  1.00  0.00     0.032 C 
ENDBRANCH  28  33
ENDBRANCH  23  24
ENDBRANCH  22  23
ENDBRANCH   1  22
TORSDOF 5
ENDMDL
