MODEL 1
REMARK VINA RESULT:      -8.5      0.000      0.000
REMARK  3 active torsions:
REMARK  status: ('A' for Active; 'I' for Inactive)
REMARK    1  A    between atoms: C_3  and  N_4 
REMARK       I    between atoms: N_4  and  C_5 
REMARK    2  A    between atoms: C_5  and  C_6 
REMARK    3  A    between atoms: C_7  and  C_8 
ROOT
HETATM    1  C   UNL     1      43.239 -16.875   5.929  1.00  0.00     0.063 C 
HETATM    2  C   UNL     1      43.449 -15.544   5.207  1.00  0.00     0.216 C 
HETATM    3  N   UNL     1      44.213 -14.619   6.033  1.00  0.00    -0.091 N 
HETATM    4  C   UNL     1      44.360 -14.745   7.384  1.00  0.00     0.735 A 
HETATM    5  N   UNL     1      43.843 -15.831   7.994  1.00  0.00    -0.191 N 
HETATM    6  N   UNL     1      44.809 -13.501   5.598  1.00  0.00     0.012 NA
HETATM    7  N   UNL     1      45.304 -12.942   6.699  1.00  0.00     0.033 NA
HETATM    8  N   UNL     1      45.026 -13.704   7.820  1.00  0.00     0.030 NA
HETATM    9  C   UNL     1      43.397 -16.946   7.280  1.00  0.00     0.037 C 
HETATM   10  C   UNL     1      43.138 -18.179   8.113  1.00  0.00     0.070 C 
HETATM   11  H   UNL     1      44.061 -15.979   8.978  1.00  0.00     0.184 HD
ENDROOT
BRANCH   1  12
HETATM   12  C   UNL     1      43.054 -18.117   5.100  1.00  0.00     0.256 C 
HETATM   13  N   UNL     1      44.208 -18.781   4.752  1.00  0.00    -0.323 N 
HETATM   14  H   UNL     1      45.083 -18.261   4.806  1.00  0.00     0.169 HD
HETATM   15  O   UNL     1      41.921 -18.465   4.784  1.00  0.00    -0.267 OA
BRANCH  13  16
HETATM   16  C   UNL     1      44.310 -20.007   4.050  1.00  0.00     0.041 A 
HETATM   17  C   UNL     1      44.101 -20.192   2.672  1.00  0.00    -0.035 A 
HETATM   18  C   UNL     1      43.614 -19.129   1.727  1.00  0.00     0.050 C 
HETATM   19  C   UNL     1      44.304 -21.476   2.122  1.00  0.00     0.009 A 
HETATM   20  C   UNL     1      44.640 -22.566   2.923  1.00  0.00     0.001 A 
HETATM   21  C   UNL     1      44.771 -22.394   4.293  1.00  0.00     0.002 A 
HETATM   22  C   UNL     1      44.599 -21.127   4.851  1.00  0.00     0.030 A 
ENDBRANCH  13  16
ENDBRANCH   1  12
BRANCH   2  23
HETATM   23  C   UNL     1      42.115 -14.915   4.799  1.00  0.00     0.064 A 
HETATM   24  N   UNL     1      42.044 -14.456   3.517  1.00  0.00    -0.263 NA
HETATM   25  C   UNL     1      40.882 -13.894   3.106  1.00  0.00     0.117 A 
HETATM   26  C   UNL     1      39.750 -13.810   3.892  1.00  0.00     0.019 A 
HETATM   27  C   UNL     1      39.810 -14.326   5.178  1.00  0.00     0.003 A 
HETATM   28  C   UNL     1      40.998 -14.889   5.639  1.00  0.00     0.030 A 
ENDBRANCH   2  23
TORSDOF 3
ENDMDL
MODEL 2
REMARK VINA RESULT:      -8.3      1.970      4.392
REMARK  3 active torsions:
REMARK  status: ('A' for Active; 'I' for Inactive)
REMARK    1  A    between atoms: C_3  and  N_4 
REMARK       I    between atoms: N_4  and  C_5 
REMARK    2  A    between atoms: C_5  and  C_6 
REMARK    3  A    between atoms: C_7  and  C_8 
ROOT
HETATM    1  C   UNL     1      41.493 -15.596   3.299  1.00  0.00     0.063 C 
HETATM    2  C   UNL     1      41.097 -15.202   4.721  1.00  0.00     0.216 C 
HETATM    3  N   UNL     1      40.270 -14.003   4.718  1.00  0.00    -0.091 N 
HETATM    4  C   UNL     1      40.201 -13.126   3.674  1.00  0.00     0.735 A 
HETATM    5  N   UNL     1      40.868 -13.416   2.539  1.00  0.00    -0.191 N 
HETATM    6  N   UNL     1      39.527 -13.569   5.746  1.00  0.00     0.012 NA
HETATM    7  N   UNL     1      39.022 -12.413   5.321  1.00  0.00     0.033 NA
HETATM    8  N   UNL     1      39.439 -12.123   4.035  1.00  0.00     0.030 NA
HETATM    9  C   UNL     1      41.407 -14.682   2.293  1.00  0.00     0.037 C 
HETATM   10  C   UNL     1      41.847 -14.925   0.868  1.00  0.00     0.070 C 
HETATM   11  H   UNL     1      40.715 -12.821   1.726  1.00  0.00     0.184 HD
ENDROOT
BRANCH   1  12
HETATM   12  C   UNL     1      41.783 -17.044   3.012  1.00  0.00     0.256 C 
HETATM   13  N   UNL     1      43.057 -17.469   3.315  1.00  0.00    -0.323 N 
HETATM   14  H   UNL     1      43.778 -16.756   3.417  1.00  0.00     0.169 HD
HETATM   15  O   UNL     1      40.901 -17.752   2.537  1.00  0.00    -0.267 OA
BRANCH  13  16
HETATM   16  C   UNL     1      43.563 -18.788   3.218  1.00  0.00     0.041 A 
HETATM   17  C   UNL     1      44.329 -19.455   4.189  1.00  0.00    -0.035 A 
HETATM   18  C   UNL     1      44.843 -18.828   5.457  1.00  0.00     0.050 C 
HETATM   19  C   UNL     1      44.704 -20.795   3.956  1.00  0.00     0.009 A 
HETATM   20  C   UNL     1      44.387 -21.442   2.763  1.00  0.00     0.001 A 
HETATM   21  C   UNL     1      43.696 -20.756   1.775  1.00  0.00     0.002 A 
HETATM   22  C   UNL     1      43.296 -19.438   1.999  1.00  0.00     0.030 A 
ENDBRANCH  13  16
ENDBRANCH   1  12
BRANCH   2  23
HETATM   23  C   UNL     1      42.329 -14.995   5.606  1.00  0.00     0.064 A 
HETATM   24  N   UNL     1      42.632 -16.025   6.447  1.00  0.00    -0.263 NA
HETATM   25  C   UNL     1      43.717 -15.892   7.248  1.00  0.00     0.117 A 
HETATM   26  C   UNL     1      44.561 -14.799   7.222  1.00  0.00     0.019 A 
HETATM   27  C   UNL     1      44.278 -13.778   6.328  1.00  0.00     0.003 A 
HETATM   28  C   UNL     1      43.156 -13.873   5.507  1.00  0.00     0.030 A 
ENDBRANCH   2  23
TORSDOF 3
ENDMDL
MODEL 3
REMARK VINA RESULT:      -8.1      2.672      3.666
REMARK  3 active torsions:
REMARK  status: ('A' for Active; 'I' for Inactive)
REMARK    1  A    between atoms: C_3  and  N_4 
REMARK       I    between atoms: N_4  and  C_5 
REMARK    2  A    between atoms: C_5  and  C_6 
REMARK    3  A    between atoms: C_7  and  C_8 
ROOT
HETATM    1  C   UNL     1      41.392 -15.175   4.659  1.00  0.00     0.063 C 
HETATM    2  C   UNL     1      41.264 -13.827   3.950  1.00  0.00     0.216 C 
HETATM    3  N   UNL     1      40.618 -12.846   4.811  1.00  0.00    -0.091 N 
HETATM    4  C   UNL     1      39.868 -13.167   5.906  1.00  0.00     0.735 A 
HETATM    5  N   UNL     1      39.778 -14.461   6.273  1.00  0.00    -0.191 N 
HETATM    6  N   UNL     1      40.616 -11.520   4.613  1.00  0.00     0.012 NA
HETATM    7  N   UNL     1      39.844 -11.043   5.587  1.00  0.00     0.033 NA
HETATM    8  N   UNL     1      39.367 -12.060   6.395  1.00  0.00     0.030 NA
HETATM    9  C   UNL     1      40.619 -15.446   5.746  1.00  0.00     0.037 C 
HETATM   10  C   UNL     1      40.594 -16.767   6.478  1.00  0.00     0.070 C 
HETATM   11  H   UNL     1      39.320 -14.679   7.156  1.00  0.00     0.184 HD
ENDROOT
BRANCH   1  12
HETATM   12  C   UNL     1      42.512 -16.093   4.251  1.00  0.00     0.256 C 
HETATM   13  N   UNL     1      42.198 -17.432   4.200  1.00  0.00    -0.323 N 
HETATM   14  H   UNL     1      41.369 -17.739   4.708  1.00  0.00     0.169 HD
HETATM   15  O   UNL     1      43.615 -15.620   3.995  1.00  0.00    -0.267 OA
BRANCH  13  16
HETATM   16  C   UNL     1      43.037 -18.491   3.775  1.00  0.00     0.041 A 
HETATM   17  C   UNL     1      44.056 -19.096   4.531  1.00  0.00    -0.035 A 
HETATM   18  C   UNL     1      44.507 -18.633   5.889  1.00  0.00     0.050 C 
HETATM   19  C   UNL     1      44.760 -20.184   3.973  1.00  0.00     0.009 A 
HETATM   20  C   UNL     1      44.510 -20.623   2.674  1.00  0.00     0.001 A 
HETATM   21  C   UNL     1      43.556 -19.975   1.904  1.00  0.00     0.002 A 
HETATM   22  C   UNL     1      42.833 -18.913   2.448  1.00  0.00     0.030 A 
ENDBRANCH  13  16
ENDBRANCH   1  12
BRANCH   2  23
HETATM   23  C   UNL     1      40.499 -13.961   2.631  1.00  0.00     0.064 A 
HETATM   24  N   UNL     1      41.246 -13.827   1.498  1.00  0.00    -0.263 NA
HETATM   25  C   UNL     1      40.616 -13.942   0.304  1.00  0.00     0.117 A 
HETATM   26  C   UNL     1      39.275 -14.241   0.170  1.00  0.00     0.019 A 
HETATM   27  C   UNL     1      38.530 -14.429   1.325  1.00  0.00     0.003 A 
HETATM   28  C   UNL     1      39.143 -14.294   2.569  1.00  0.00     0.030 A 
ENDBRANCH   2  23
TORSDOF 3
ENDMDL
MODEL 4
REMARK VINA RESULT:      -8.0      4.470      6.816
REMARK  3 active torsions:
REMARK  status: ('A' for Active; 'I' for Inactive)
REMARK    1  A    between atoms: C_3  and  N_4 
REMARK       I    between atoms: N_4  and  C_5 
REMARK    2  A    between atoms: C_5  and  C_6 
REMARK    3  A    between atoms: C_7  and  C_8 
ROOT
HETATM    1  C   UNL     1      41.350 -14.342   0.349  1.00  0.00     0.063 C 
HETATM    2  C   UNL     1      41.697 -14.250  -1.136  1.00  0.00     0.216 C 
HETATM    3  N   UNL     1      42.108 -12.899  -1.492  1.00  0.00    -0.091 N 
HETATM    4  C   UNL     1      41.831 -11.794  -0.741  1.00  0.00     0.735 A 
HETATM    5  N   UNL     1      41.213 -11.956   0.447  1.00  0.00    -0.191 N 
HETATM    6  N   UNL     1      42.745 -12.553  -2.620  1.00  0.00     0.012 NA
HETATM    7  N   UNL     1      42.835 -11.227  -2.552  1.00  0.00     0.033 NA
HETATM    8  N   UNL     1      42.264 -10.741  -1.389  1.00  0.00     0.030 NA
HETATM    9  C   UNL     1      41.080 -13.208   1.054  1.00  0.00     0.037 C 
HETATM   10  C   UNL     1      40.644 -13.176   2.500  1.00  0.00     0.070 C 
HETATM   11  H   UNL     1      41.119 -11.144   1.055  1.00  0.00     0.184 HD
ENDROOT
BRANCH   1  12
HETATM   12  C   UNL     1      41.507 -15.670   1.041  1.00  0.00     0.256 C 
HETATM   13  N   UNL     1      42.780 -15.975   1.463  1.00  0.00    -0.323 N 
HETATM   14  H   UNL     1      43.552 -15.463   1.038  1.00  0.00     0.169 HD
HETATM   15  O   UNL     1      40.525 -16.391   1.187  1.00  0.00    -0.267 OA
BRANCH  13  16
HETATM   16  C   UNL     1      43.184 -17.114   2.203  1.00  0.00     0.041 A 
HETATM   17  C   UNL     1      43.321 -17.189   3.600  1.00  0.00    -0.035 A 
HETATM   18  C   UNL     1      43.172 -16.025   4.541  1.00  0.00     0.050 C 
HETATM   19  C   UNL     1      43.678 -18.424   4.181  1.00  0.00     0.009 A 
HETATM   20  C   UNL     1      43.959 -19.542   3.399  1.00  0.00     0.001 A 
HETATM   21  C   UNL     1      43.896 -19.444   2.017  1.00  0.00     0.002 A 
HETATM   22  C   UNL     1      43.521 -18.238   1.426  1.00  0.00     0.030 A 
ENDBRANCH  13  16
ENDBRANCH   1  12
BRANCH   2  23
HETATM   23  C   UNL     1      40.524 -14.697  -2.011  1.00  0.00     0.064 A 
HETATM   24  N   UNL     1      39.372 -13.983  -1.866  1.00  0.00    -0.263 NA
HETATM   25  C   UNL     1      38.305 -14.337  -2.622  1.00  0.00     0.117 A 
HETATM   26  C   UNL     1      38.335 -15.342  -3.569  1.00  0.00     0.019 A 
HETATM   27  C   UNL     1      39.525 -16.031  -3.751  1.00  0.00     0.003 A 
HETATM   28  C   UNL     1      40.633 -15.707  -2.972  1.00  0.00     0.030 A 
ENDBRANCH   2  23
TORSDOF 3
ENDMDL
MODEL 5
REMARK VINA RESULT:      -7.4      1.628      4.137
REMARK  3 active torsions:
REMARK  status: ('A' for Active; 'I' for Inactive)
REMARK    1  A    between atoms: C_3  and  N_4 
REMARK       I    between atoms: N_4  and  C_5 
REMARK    2  A    between atoms: C_5  and  C_6 
REMARK    3  A    between atoms: C_7  and  C_8 
ROOT
HETATM    1  C   UNL     1      42.316 -16.449   3.249  1.00  0.00     0.063 C 
HETATM    2  C   UNL     1      41.756 -15.603   4.392  1.00  0.00     0.216 C 
HETATM    3  N   UNL     1      41.117 -14.398   3.883  1.00  0.00    -0.091 N 
HETATM    4  C   UNL     1      41.339 -13.883   2.638  1.00  0.00     0.735 A 
HETATM    5  N   UNL     1      42.133 -14.565   1.787  1.00  0.00    -0.191 N 
HETATM    6  N   UNL     1      40.287 -13.606   4.577  1.00  0.00     0.012 NA
HETATM    7  N   UNL     1      40.024 -12.599   3.748  1.00  0.00     0.033 NA
HETATM    8  N   UNL     1      40.678 -12.756   2.539  1.00  0.00     0.030 NA
HETATM    9  C   UNL     1      42.521 -15.886   2.026  1.00  0.00     0.037 C 
HETATM   10  C   UNL     1      43.145 -16.593   0.846  1.00  0.00     0.070 C 
HETATM   11  H   UNL     1      42.196 -14.239   0.824  1.00  0.00     0.184 HD
ENDROOT
BRANCH   1  12
HETATM   12  C   UNL     1      42.443 -17.934   3.454  1.00  0.00     0.256 C 
HETATM   13  N   UNL     1      43.709 -18.392   3.738  1.00  0.00    -0.323 N 
HETATM   14  H   UNL     1      44.492 -17.783   3.503  1.00  0.00     0.169 HD
HETATM   15  O   UNL     1      41.445 -18.641   3.359  1.00  0.00    -0.267 OA
BRANCH  13  16
HETATM   16  C   UNL     1      44.087 -19.721   4.050  1.00  0.00     0.041 A 
HETATM   17  C   UNL     1      44.263 -20.251   5.339  1.00  0.00    -0.035 A 
HETATM   18  C   UNL     1      44.193 -19.454   6.613  1.00  0.00     0.050 C 
HETATM   19  C   UNL     1      44.586 -21.619   5.472  1.00  0.00     0.009 A 
HETATM   20  C   UNL     1      44.795 -22.428   4.358  1.00  0.00     0.001 A 
HETATM   21  C   UNL     1      44.694 -21.883   3.087  1.00  0.00     0.002 A 
HETATM   22  C   UNL     1      44.352 -20.539   2.936  1.00  0.00     0.030 A 
ENDBRANCH  13  16
ENDBRANCH   1  12
BRANCH   2  23
HETATM   23  C   UNL     1      42.847 -15.239   5.402  1.00  0.00     0.064 A 
HETATM   24  N   UNL     1      43.581 -14.128   5.106  1.00  0.00    -0.263 NA
HETATM   25  C   UNL     1      44.556 -13.762   5.972  1.00  0.00     0.117 A 
HETATM   26  C   UNL     1      44.812 -14.416   7.162  1.00  0.00     0.019 A 
HETATM   27  C   UNL     1      44.028 -15.513   7.484  1.00  0.00     0.003 A 
HETATM   28  C   UNL     1      43.033 -15.930   6.603  1.00  0.00     0.030 A 
ENDBRANCH   2  23
TORSDOF 3
ENDMDL
MODEL 6
REMARK VINA RESULT:      -7.4      2.552      6.021
REMARK  3 active torsions:
REMARK  status: ('A' for Active; 'I' for Inactive)
REMARK    1  A    between atoms: C_3  and  N_4 
REMARK       I    between atoms: N_4  and  C_5 
REMARK    2  A    between atoms: C_5  and  C_6 
REMARK    3  A    between atoms: C_7  and  C_8 
ROOT
HETATM    1  C   UNL     1      42.385 -15.766   3.999  1.00  0.00     0.063 C 
HETATM    2  C   UNL     1      42.264 -17.094   4.745  1.00  0.00     0.216 C 
HETATM    3  N   UNL     1      42.711 -16.958   6.125  1.00  0.00    -0.091 N 
HETATM    4  C   UNL     1      43.500 -15.940   6.575  1.00  0.00     0.735 A 
HETATM    5  N   UNL     1      43.827 -14.948   5.722  1.00  0.00    -0.191 N 
HETATM    6  N   UNL     1      42.466 -17.834   7.110  1.00  0.00     0.012 NA
HETATM    7  N   UNL     1      43.129 -17.346   8.155  1.00  0.00     0.033 NA
HETATM    8  N   UNL     1      43.783 -16.169   7.833  1.00  0.00     0.030 NA
HETATM    9  C   UNL     1      43.189 -14.782   4.490  1.00  0.00     0.037 C 
HETATM   10  C   UNL     1      43.455 -13.464   3.803  1.00  0.00     0.070 C 
HETATM   11  H   UNL     1      44.313 -14.134   6.096  1.00  0.00     0.184 HD
ENDROOT
BRANCH   1  12
HETATM   12  C   UNL     1      41.459 -15.509   2.841  1.00  0.00     0.256 C 
HETATM   13  N   UNL     1      42.062 -15.107   1.672  1.00  0.00    -0.323 N 
HETATM   14  H   UNL     1      43.007 -14.730   1.736  1.00  0.00     0.169 HD
HETATM   15  O   UNL     1      40.251 -15.663   2.992  1.00  0.00    -0.267 OA
BRANCH  13  16
HETATM   16  C   UNL     1      41.436 -14.877   0.422  1.00  0.00     0.041 A 
HETATM   17  C   UNL     1      40.781 -13.697   0.028  1.00  0.00    -0.035 A 
HETATM   18  C   UNL     1      40.531 -12.514   0.923  1.00  0.00     0.050 C 
HETATM   19  C   UNL     1      40.261 -13.615  -1.281  1.00  0.00     0.009 A 
HETATM   20  C   UNL     1      40.326 -14.695  -2.159  1.00  0.00     0.001 A 
HETATM   21  C   UNL     1      40.906 -15.883  -1.741  1.00  0.00     0.002 A 
HETATM   22  C   UNL     1      41.448 -15.974  -0.459  1.00  0.00     0.030 A 
ENDBRANCH  13  16
ENDBRANCH   1  12
BRANCH   2  23
HETATM   23  C   UNL     1      43.049 -18.203   4.040  1.00  0.00     0.064 A 
HETATM   24  N   UNL     1      43.950 -18.874   4.813  1.00  0.00    -0.263 NA
HETATM   25  C   UNL     1      44.667 -19.868   4.236  1.00  0.00     0.117 A 
HETATM   26  C   UNL     1      44.498 -20.276   2.927  1.00  0.00     0.019 A 
HETATM   27  C   UNL     1      43.543 -19.626   2.160  1.00  0.00     0.003 A 
HETATM   28  C   UNL     1      42.806 -18.583   2.717  1.00  0.00     0.030 A 
ENDBRANCH   2  23
TORSDOF 3
ENDMDL
MODEL 7
REMARK VINA RESULT:      -7.3      4.058      8.252
REMARK  3 active torsions:
REMARK  status: ('A' for Active; 'I' for Inactive)
REMARK    1  A    between atoms: C_3  and  N_4 
REMARK       I    between atoms: N_4  and  C_5 
REMARK    2  A    between atoms: C_5  and  C_6 
REMARK    3  A    between atoms: C_7  and  C_8 
ROOT
HETATM    1  C   UNL     1      41.552 -11.787   5.813  1.00  0.00     0.063 C 
HETATM    2  C   UNL     1      42.591 -12.619   5.062  1.00  0.00     0.216 C 
HETATM    3  N   UNL     1      42.183 -12.839   3.682  1.00  0.00    -0.091 N 
HETATM    4  C   UNL     1      40.902 -12.697   3.232  1.00  0.00     0.735 A 
HETATM    5  N   UNL     1      39.961 -12.247   4.087  1.00  0.00    -0.191 N 
HETATM    6  N   UNL     1      42.982 -13.268   2.694  1.00  0.00     0.012 NA
HETATM    7  N   UNL     1      42.170 -13.400   1.648  1.00  0.00     0.033 NA
HETATM    8  N   UNL     1      40.870 -13.054   1.972  1.00  0.00     0.030 NA
HETATM    9  C   UNL     1      40.286 -11.679   5.322  1.00  0.00     0.037 C 
HETATM   10  C   UNL     1      39.153 -10.957   6.012  1.00  0.00     0.070 C 
HETATM   11  H   UNL     1      39.039 -12.029   3.715  1.00  0.00     0.184 HD
ENDROOT
BRANCH   1  12
HETATM   12  C   UNL     1      42.011 -10.947   6.974  1.00  0.00     0.256 C 
HETATM   13  N   UNL     1      42.389 -11.642   8.100  1.00  0.00    -0.323 N 
HETATM   14  H   UNL     1      42.064 -12.605   8.190  1.00  0.00     0.169 HD
HETATM   15  O   UNL     1      42.024  -9.726   6.865  1.00  0.00    -0.267 OA
BRANCH  13  16
HETATM   16  C   UNL     1      42.930 -11.105   9.294  1.00  0.00     0.041 A 
HETATM   17  C   UNL     1      44.280 -11.145   9.683  1.00  0.00    -0.035 A 
HETATM   18  C   UNL     1      45.366 -11.876   8.942  1.00  0.00     0.050 C 
HETATM   19  C   UNL     1      44.660 -10.506  10.882  1.00  0.00     0.009 A 
HETATM   20  C   UNL     1      43.719  -9.900  11.713  1.00  0.00     0.001 A 
HETATM   21  C   UNL     1      42.378  -9.929  11.363  1.00  0.00     0.002 A 
HETATM   22  C   UNL     1      41.987 -10.534  10.169  1.00  0.00     0.030 A 
ENDBRANCH  13  16
ENDBRANCH   1  12
BRANCH   2  23
HETATM   23  C   UNL     1      42.843 -13.958   5.761  1.00  0.00     0.064 A 
HETATM   24  N   UNL     1      43.993 -14.036   6.491  1.00  0.00    -0.263 NA
HETATM   25  C   UNL     1      44.259 -15.199   7.133  1.00  0.00     0.117 A 
HETATM   26  C   UNL     1      43.409 -16.288   7.135  1.00  0.00     0.019 A 
HETATM   27  C   UNL     1      42.216 -16.184   6.434  1.00  0.00     0.003 A 
HETATM   28  C   UNL     1      41.923 -15.010   5.744  1.00  0.00     0.030 A 
ENDBRANCH   2  23
TORSDOF 3
ENDMDL
MODEL 8
REMARK VINA RESULT:      -7.2      2.472      6.051
REMARK  3 active torsions:
REMARK  status: ('A' for Active; 'I' for Inactive)
REMARK    1  A    between atoms: C_3  and  N_4 
REMARK       I    between atoms: N_4  and  C_5 
REMARK    2  A    between atoms: C_5  and  C_6 
REMARK    3  A    between atoms: C_7  and  C_8 
ROOT
HETATM    1  C   UNL     1      41.721 -15.107   4.684  1.00  0.00     0.063 C 
HETATM    2  C   UNL     1      41.884 -16.592   5.009  1.00  0.00     0.216 C 
HETATM    3  N   UNL     1      42.534 -16.774   6.299  1.00  0.00    -0.091 N 
HETATM    4  C   UNL     1      43.261 -15.808   6.931  1.00  0.00     0.735 A 
HETATM    5  N   UNL     1      43.323 -14.579   6.379  1.00  0.00    -0.191 N 
HETATM    6  N   UNL     1      42.562 -17.916   7.000  1.00  0.00     0.012 NA
HETATM    7  N   UNL     1      43.327 -17.637   8.053  1.00  0.00     0.033 NA
HETATM    8  N   UNL     1      43.774 -16.329   8.018  1.00  0.00     0.030 NA
HETATM    9  C   UNL     1      42.474 -14.183   5.343  1.00  0.00     0.037 C 
HETATM   10  C   UNL     1      42.464 -12.700   5.053  1.00  0.00     0.070 C 
HETATM   11  H   UNL     1      43.764 -13.833   6.915  1.00  0.00     0.184 HD
ENDROOT
BRANCH   1  12
HETATM   12  C   UNL     1      40.591 -14.692   3.781  1.00  0.00     0.256 C 
HETATM   13  N   UNL     1      40.867 -14.710   2.433  1.00  0.00    -0.323 N 
HETATM   14  H   UNL     1      41.848 -14.703   2.154  1.00  0.00     0.169 HD
HETATM   15  O   UNL     1      39.516 -14.367   4.274  1.00  0.00    -0.267 OA
BRANCH  13  16
HETATM   16  C   UNL     1      39.967 -14.443   1.373  1.00  0.00     0.041 A 
HETATM   17  C   UNL     1      40.316 -14.102   0.055  1.00  0.00    -0.035 A 
HETATM   18  C   UNL     1      41.720 -13.844  -0.422  1.00  0.00     0.050 C 
HETATM   19  C   UNL     1      39.288 -13.927  -0.896  1.00  0.00     0.009 A 
HETATM   20  C   UNL     1      37.945 -14.021  -0.540  1.00  0.00     0.001 A 
HETATM   21  C   UNL     1      37.602 -14.284   0.777  1.00  0.00     0.002 A 
HETATM   22  C   UNL     1      38.605 -14.485   1.726  1.00  0.00     0.030 A 
ENDBRANCH  13  16
ENDBRANCH   1  12
BRANCH   2  23
HETATM   23  C   UNL     1      42.665 -17.320   3.912  1.00  0.00     0.064 A 
HETATM   24  N   UNL     1      43.264 -16.521   2.983  1.00  0.00    -0.263 NA
HETATM   25  C   UNL     1      43.972 -17.118   1.994  1.00  0.00     0.117 A 
HETATM   26  C   UNL     1      44.167 -18.483   1.905  1.00  0.00     0.019 A 
HETATM   27  C   UNL     1      43.600 -19.287   2.883  1.00  0.00     0.003 A 
HETATM   28  C   UNL     1      42.846 -18.706   3.900  1.00  0.00     0.030 A 
ENDBRANCH   2  23
TORSDOF 3
ENDMDL
MODEL 9
REMARK VINA RESULT:      -7.1      2.902      4.603
REMARK  3 active torsions:
REMARK  status: ('A' for Active; 'I' for Inactive)
REMARK    1  A    between atoms: C_3  and  N_4 
REMARK       I    between atoms: N_4  and  C_5 
REMARK    2  A    between atoms: C_5  and  C_6 
REMARK    3  A    between atoms: C_7  and  C_8 
ROOT
HETATM    1  C   UNL     1      40.704 -14.618   3.200  1.00  0.00     0.063 C 
HETATM    2  C   UNL     1      40.857 -13.633   2.042  1.00  0.00     0.216 C 
HETATM    3  N   UNL     1      40.936 -12.263   2.531  1.00  0.00    -0.091 N 
HETATM    4  C   UNL     1      40.522 -11.870   3.770  1.00  0.00     0.735 A 
HETATM    5  N   UNL     1      40.088 -12.808   4.636  1.00  0.00    -0.191 N 
HETATM    6  N   UNL     1      41.357 -11.208   1.820  1.00  0.00     0.012 NA
HETATM    7  N   UNL     1      41.177 -10.170   2.634  1.00  0.00     0.033 NA
HETATM    8  N   UNL     1      40.652 -10.569   3.850  1.00  0.00     0.030 NA
HETATM    9  C   UNL     1      40.286 -14.174   4.418  1.00  0.00     0.037 C 
HETATM   10  C   UNL     1      40.018 -15.059   5.611  1.00  0.00     0.070 C 
HETATM   11  H   UNL     1      39.896 -12.525   5.596  1.00  0.00     0.184 HD
ENDROOT
BRANCH   1  12
HETATM   12  C   UNL     1      41.210 -16.023   3.015  1.00  0.00     0.256 C 
HETATM   13  N   UNL     1      42.498 -16.255   3.439  1.00  0.00    -0.323 N 
HETATM   14  H   UNL     1      43.106 -15.446   3.560  1.00  0.00     0.169 HD
HETATM   15  O   UNL     1      40.474 -16.865   2.511  1.00  0.00    -0.267 OA
BRANCH  13  16
HETATM   16  C   UNL     1      43.183 -17.495   3.453  1.00  0.00     0.041 A 
HETATM   17  C   UNL     1      43.750 -18.141   2.341  1.00  0.00    -0.035 A 
HETATM   18  C   UNL     1      43.619 -17.672   0.917  1.00  0.00     0.050 C 
HETATM   19  C   UNL     1      44.452 -19.348   2.542  1.00  0.00     0.009 A 
HETATM   20  C   UNL     1      44.536 -19.940   3.800  1.00  0.00     0.001 A 
HETATM   21  C   UNL     1      43.910 -19.339   4.883  1.00  0.00     0.002 A 
HETATM   22  C   UNL     1      43.233 -18.132   4.707  1.00  0.00     0.030 A 
ENDBRANCH  13  16
ENDBRANCH   1  12
BRANCH   2  23
HETATM   23  C   UNL     1      39.711 -13.773   1.036  1.00  0.00     0.064 A 
HETATM   24  N   UNL     1      38.456 -13.795   1.569  1.00  0.00    -0.263 NA
HETATM   25  C   UNL     1      37.408 -13.914   0.719  1.00  0.00     0.117 A 
HETATM   26  C   UNL     1      37.534 -13.957  -0.655  1.00  0.00     0.019 A 
HETATM   27  C   UNL     1      38.810 -13.880  -1.195  1.00  0.00     0.003 A 
HETATM   28  C   UNL     1      39.911 -13.783  -0.347  1.00  0.00     0.030 A 
ENDBRANCH   2  23
TORSDOF 3
ENDMDL
MODEL 10
REMARK VINA RESULT:      -7.1      4.089      6.496
REMARK  3 active torsions:
REMARK  status: ('A' for Active; 'I' for Inactive)
REMARK    1  A    between atoms: C_3  and  N_4 
REMARK       I    between atoms: N_4  and  C_5 
REMARK    2  A    between atoms: C_5  and  C_6 
REMARK    3  A    between atoms: C_7  and  C_8 
ROOT
HETATM    1  C   UNL     1      41.705 -12.834   1.663  1.00  0.00     0.063 C 
HETATM    2  C   UNL     1      42.212 -12.228   0.355  1.00  0.00     0.216 C 
HETATM    3  N   UNL     1      41.831 -10.826   0.248  1.00  0.00    -0.091 N 
HETATM    4  C   UNL     1      40.833 -10.249   0.979  1.00  0.00     0.735 A 
HETATM    5  N   UNL     1      40.208 -10.986   1.919  1.00  0.00    -0.191 N 
HETATM    6  N   UNL     1      42.354  -9.942  -0.613  1.00  0.00     0.012 NA
HETATM    7  N   UNL     1      41.652  -8.830  -0.410  1.00  0.00     0.033 NA
HETATM    8  N   UNL     1      40.697  -9.010   0.575  1.00  0.00     0.030 NA
HETATM    9  C   UNL     1      40.705 -12.218   2.353  1.00  0.00     0.037 C 
HETATM   10  C   UNL     1      40.064 -12.761   3.608  1.00  0.00     0.070 C 
HETATM   11  H   UNL     1      39.551 -10.517   2.539  1.00  0.00     0.184 HD
ENDROOT
BRANCH   1  12
HETATM   12  C   UNL     1      42.460 -13.993   2.255  1.00  0.00     0.256 C 
HETATM   13  N   UNL     1      41.963 -15.241   1.962  1.00  0.00    -0.323 N 
HETATM   14  H   UNL     1      40.997 -15.299   1.641  1.00  0.00     0.169 HD
HETATM   15  O   UNL     1      43.449 -13.775   2.948  1.00  0.00    -0.267 OA
BRANCH  13  16
HETATM   16  C   UNL     1      42.523 -16.491   2.323  1.00  0.00     0.041 A 
HETATM   17  C   UNL     1      42.224 -17.230   3.481  1.00  0.00    -0.035 A 
HETATM   18  C   UNL     1      41.336 -16.753   4.598  1.00  0.00     0.050 C 
HETATM   19  C   UNL     1      42.832 -18.491   3.658  1.00  0.00     0.009 A 
HETATM   20  C   UNL     1      43.765 -18.983   2.747  1.00  0.00     0.001 A 
HETATM   21  C   UNL     1      44.114 -18.218   1.644  1.00  0.00     0.002 A 
HETATM   22  C   UNL     1      43.504 -16.979   1.441  1.00  0.00     0.030 A 
ENDBRANCH  13  16
ENDBRANCH   1  12
BRANCH   2  23
HETATM   23  C   UNL     1      41.702 -13.011  -0.857  1.00  0.00     0.064 A 
HETATM   24  N   UNL     1      40.507 -13.647  -0.690  1.00  0.00    -0.263 NA
HETATM   25  C   UNL     1      40.010 -14.350  -1.735  1.00  0.00     0.117 A 
HETATM   26  C   UNL     1      40.615 -14.414  -2.975  1.00  0.00     0.019 A 
HETATM   27  C   UNL     1      41.804 -13.722  -3.156  1.00  0.00     0.003 A 
HETATM   28  C   UNL     1      42.354 -13.009  -2.093  1.00  0.00     0.030 A 
ENDBRANCH   2  23
TORSDOF 3
ENDMDL
