MODEL 1
REMARK VINA RESULT:      -7.3      0.000      0.000
REMARK  7 active torsions:
REMARK  status: ('A' for Active; 'I' for Inactive)
REMARK    1  A    between atoms: C_2  and  C_3 
REMARK    2  A    between atoms: C_3  and  N_4 
REMARK    3  A    between atoms: C_7  and  C_8 
REMARK    4  A    between atoms: C_8  and  N_9 
REMARK       I    between atoms: N_9  and  C_10 
REMARK       I    between atoms: C_10  and  N_11 
REMARK    5  A    between atoms: N_11  and  C_12 
REMARK    6  A    between atoms: C_15  and  N_16 
REMARK       I    between atoms: N_16  and  C_17 
REMARK    7  A    between atoms: C_17  and  C_18 
ROOT
HETATM    1  N   UNL     1      39.779 -12.925   4.372  1.00  0.00    -0.342 N 
HETATM    2  C   UNL     1      40.180 -12.715   5.658  1.00  0.00     0.320 C 
HETATM    3  N   UNL     1      40.870 -13.718   6.268  1.00  0.00    -0.309 N 
HETATM    4  O   UNL     1      39.925 -11.682   6.273  1.00  0.00    -0.247 OA
HETATM    5  H   UNL     1      39.675 -13.914   4.175  1.00  0.00     0.164 HD
HETATM    6  H   UNL     1      40.906 -13.591   7.274  1.00  0.00     0.170 HD
ENDROOT
BRANCH   3   7
HETATM    7  C   UNL     1      41.476 -14.884   5.765  1.00  0.00     0.036 A 
HETATM    8  C   UNL     1      42.676 -14.892   5.053  1.00  0.00     0.032 A 
HETATM    9  C   UNL     1      43.186 -16.085   4.525  1.00  0.00     0.032 A 
HETATM   10  C   UNL     1      42.510 -17.290   4.711  1.00  0.00     0.035 A 
HETATM   11  C   UNL     1      41.349 -17.293   5.490  1.00  0.00     0.032 A 
HETATM   12  C   UNL     1      40.844 -16.102   6.023  1.00  0.00     0.032 A 
BRANCH  10  13
HETATM   13  N   UNL     1      42.908 -18.510   4.139  1.00  0.00    -0.321 N 
HETATM   14  C   UNL     1      44.073 -19.225   4.365  1.00  0.00     0.279 C 
HETATM   15  O   UNL     1      44.926 -18.944   5.202  1.00  0.00    -0.265 OA
HETATM   16  H   UNL     1      42.314 -18.901   3.413  1.00  0.00     0.169 HD
BRANCH  14  17
HETATM   17  C   UNL     1      44.207 -20.365   3.475  1.00  0.00     0.142 A 
HETATM   18  O   UNL     1      44.643 -21.564   3.980  1.00  0.00    -0.317 OA
HETATM   19  C   UNL     1      44.645 -22.454   2.954  1.00  0.00     0.143 A 
HETATM   20  C   UNL     1      44.224 -21.851   1.792  1.00  0.00     0.027 A 
HETATM   21  C   UNL     1      43.945 -20.504   2.126  1.00  0.00     0.045 A 
ENDBRANCH  14  17
ENDBRANCH  10  13
ENDBRANCH   3   7
BRANCH   1  22
HETATM   22  C   UNL     1      38.838 -12.085   3.649  1.00  0.00     0.130 C 
BRANCH  22  23
HETATM   23  C   UNL     1      39.050 -11.901   2.138  1.00  0.00     0.031 C 
HETATM   24  C   UNL     1      40.377 -12.435   1.617  1.00  0.00     0.241 C 
HETATM   25  N   UNL     1      40.083 -13.834   1.080  1.00  0.00    -0.071 N 
HETATM   26  H   UNL     1      40.299 -13.792   0.075  1.00  0.00     0.279 HD
HETATM   27  C   UNL     1      38.597 -14.066   1.216  1.00  0.00     0.235 C 
HETATM   28  C   UNL     1      38.017 -12.670   1.320  1.00  0.00     0.035 C 
BRANCH  25  29
HETATM   29  C   UNL     1      40.959 -14.893   1.694  1.00  0.00     0.234 C 
BRANCH  29  30
HETATM   30  C   UNL     1      40.165 -16.139   2.082  1.00  0.00     0.023 C 
HETATM   31  C   UNL     1      40.742 -17.430   1.519  1.00  0.00     0.007 C 
ENDBRANCH  29  30
ENDBRANCH  25  29
ENDBRANCH  22  23
ENDBRANCH   1  22
TORSDOF 7
ENDMDL
MODEL 2
REMARK VINA RESULT:      -7.1      3.746      6.327
REMARK  7 active torsions:
REMARK  status: ('A' for Active; 'I' for Inactive)
REMARK    1  A    between atoms: C_2  and  C_3 
REMARK    2  A    between atoms: C_3  and  N_4 
REMARK    3  A    between atoms: C_7  and  C_8 
REMARK    4  A    between atoms: C_8  and  N_9 
REMARK       I    between atoms: N_9  and  C_10 
REMARK       I    between atoms: C_10  and  N_11 
REMARK    5  A    between atoms: N_11  and  C_12 
REMARK    6  A    between atoms: C_15  and  N_16 
REMARK       I    between atoms: N_16  and  C_17 
REMARK    7  A    between atoms: C_17  and  C_18 
ROOT
HETATM    1  N   UNL     1      40.210 -15.775   2.659  1.00  0.00    -0.342 N 
HETATM    2  C   UNL     1      41.109 -16.723   2.271  1.00  0.00     0.320 C 
HETATM    3  N   UNL     1      42.331 -16.707   2.873  1.00  0.00    -0.309 N 
HETATM    4  O   UNL     1      40.862 -17.557   1.403  1.00  0.00    -0.247 OA
HETATM    5  H   UNL     1      40.676 -14.950   3.021  1.00  0.00     0.164 HD
HETATM    6  H   UNL     1      43.008 -17.264   2.361  1.00  0.00     0.170 HD
ENDROOT
BRANCH   3   7
HETATM    7  C   UNL     1      42.810 -16.036   4.012  1.00  0.00     0.036 A 
HETATM    8  C   UNL     1      43.020 -16.650   5.247  1.00  0.00     0.032 A 
HETATM    9  C   UNL     1      43.435 -15.903   6.356  1.00  0.00     0.032 A 
HETATM   10  C   UNL     1      43.659 -14.532   6.246  1.00  0.00     0.035 A 
HETATM   11  C   UNL     1      43.523 -13.931   4.990  1.00  0.00     0.032 A 
HETATM   12  C   UNL     1      43.115 -14.679   3.881  1.00  0.00     0.032 A 
BRANCH  10  13
HETATM   13  N   UNL     1      43.989 -13.699   7.328  1.00  0.00    -0.321 N 
HETATM   14  C   UNL     1      45.213 -13.123   7.626  1.00  0.00     0.279 C 
HETATM   15  O   UNL     1      46.212 -13.172   6.914  1.00  0.00    -0.265 OA
HETATM   16  H   UNL     1      43.273 -13.543   8.032  1.00  0.00     0.169 HD
BRANCH  14  17
HETATM   17  C   UNL     1      45.212 -12.451   8.914  1.00  0.00     0.142 A 
HETATM   18  O   UNL     1      44.612 -13.058   9.988  1.00  0.00    -0.317 OA
HETATM   19  C   UNL     1      44.784 -12.239  11.058  1.00  0.00     0.143 A 
HETATM   20  C   UNL     1      45.479 -11.110  10.695  1.00  0.00     0.027 A 
HETATM   21  C   UNL     1      45.752 -11.243   9.312  1.00  0.00     0.045 A 
ENDBRANCH  14  17
ENDBRANCH  10  13
ENDBRANCH   3   7
BRANCH   1  22
HETATM   22  C   UNL     1      38.963 -15.484   1.971  1.00  0.00     0.130 C 
BRANCH  22  23
HETATM   23  C   UNL     1      38.677 -14.024   1.585  1.00  0.00     0.031 C 
HETATM   24  C   UNL     1      39.900 -13.240   1.130  1.00  0.00     0.241 C 
HETATM   25  N   UNL     1      39.897 -13.307  -0.395  1.00  0.00    -0.071 N 
HETATM   26  H   UNL     1      39.800 -12.334  -0.711  1.00  0.00     0.279 HD
HETATM   27  C   UNL     1      38.650 -14.048  -0.811  1.00  0.00     0.235 C 
HETATM   28  C   UNL     1      37.733 -13.925   0.390  1.00  0.00     0.035 C 
BRANCH  25  29
HETATM   29  C   UNL     1      41.185 -13.847  -0.959  1.00  0.00     0.234 C 
BRANCH  29  30
HETATM   30  C   UNL     1      41.021 -15.263  -1.506  1.00  0.00     0.023 C 
HETATM   31  C   UNL     1      41.155 -15.351  -3.020  1.00  0.00     0.007 C 
ENDBRANCH  29  30
ENDBRANCH  25  29
ENDBRANCH  22  23
ENDBRANCH   1  22
TORSDOF 7
ENDMDL
MODEL 3
REMARK VINA RESULT:      -7.1      3.121      7.388
REMARK  7 active torsions:
REMARK  status: ('A' for Active; 'I' for Inactive)
REMARK    1  A    between atoms: C_2  and  C_3 
REMARK    2  A    between atoms: C_3  and  N_4 
REMARK    3  A    between atoms: C_7  and  C_8 
REMARK    4  A    between atoms: C_8  and  N_9 
REMARK       I    between atoms: N_9  and  C_10 
REMARK       I    between atoms: C_10  and  N_11 
REMARK    5  A    between atoms: N_11  and  C_12 
REMARK    6  A    between atoms: C_15  and  N_16 
REMARK       I    between atoms: N_16  and  C_17 
REMARK    7  A    between atoms: C_17  and  C_18 
ROOT
HETATM    1  N   UNL     1      44.314 -17.932   5.240  1.00  0.00    -0.342 N 
HETATM    2  C   UNL     1      44.388 -19.177   4.689  1.00  0.00     0.320 C 
HETATM    3  N   UNL     1      43.664 -19.402   3.558  1.00  0.00    -0.309 N 
HETATM    4  O   UNL     1      45.056 -20.083   5.182  1.00  0.00    -0.247 OA
HETATM    5  H   UNL     1      43.442 -17.473   5.000  1.00  0.00     0.164 HD
HETATM    6  H   UNL     1      43.572 -20.393   3.363  1.00  0.00     0.170 HD
ENDROOT
BRANCH   3   7
HETATM    7  C   UNL     1      43.004 -18.529   2.675  1.00  0.00     0.036 A 
HETATM    8  C   UNL     1      41.721 -18.025   2.891  1.00  0.00     0.032 A 
HETATM    9  C   UNL     1      41.100 -17.212   1.934  1.00  0.00     0.032 A 
HETATM   10  C   UNL     1      41.758 -16.880   0.751  1.00  0.00     0.035 A 
HETATM   11  C   UNL     1      43.072 -17.321   0.570  1.00  0.00     0.032 A 
HETATM   12  C   UNL     1      43.694 -18.127   1.529  1.00  0.00     0.032 A 
BRANCH  10  13
HETATM   13  N   UNL     1      41.172 -16.147  -0.294  1.00  0.00    -0.321 N 
HETATM   14  C   UNL     1      41.177 -14.775  -0.489  1.00  0.00     0.279 C 
HETATM   15  O   UNL     1      41.799 -13.965   0.193  1.00  0.00    -0.265 OA
HETATM   16  H   UNL     1      40.608 -16.660  -0.966  1.00  0.00     0.169 HD
BRANCH  14  17
HETATM   17  C   UNL     1      40.333 -14.368  -1.598  1.00  0.00     0.142 A 
HETATM   18  O   UNL     1      39.493 -13.294  -1.444  1.00  0.00    -0.317 OA
HETATM   19  C   UNL     1      38.853 -13.113  -2.629  1.00  0.00     0.143 A 
HETATM   20  C   UNL     1      39.259 -14.053  -3.545  1.00  0.00     0.027 A 
HETATM   21  C   UNL     1      40.210 -14.865  -2.882  1.00  0.00     0.045 A 
ENDBRANCH  14  17
ENDBRANCH  10  13
ENDBRANCH   3   7
BRANCH   1  22
HETATM   22  C   UNL     1      44.813 -17.578   6.559  1.00  0.00     0.130 C 
BRANCH  22  23
HETATM   23  C   UNL     1      43.833 -16.935   7.553  1.00  0.00     0.031 C 
HETATM   24  C   UNL     1      43.845 -15.412   7.555  1.00  0.00     0.241 C 
HETATM   25  N   UNL     1      42.700 -14.983   6.642  1.00  0.00    -0.071 N 
HETATM   26  H   UNL     1      42.050 -14.461   7.245  1.00  0.00     0.279 HD
HETATM   27  C   UNL     1      41.991 -16.237   6.187  1.00  0.00     0.235 C 
HETATM   28  C   UNL     1      42.382 -17.273   7.222  1.00  0.00     0.035 C 
BRANCH  25  29
HETATM   29  C   UNL     1      43.145 -14.060   5.539  1.00  0.00     0.234 C 
BRANCH  29  30
HETATM   30  C   UNL     1      42.576 -14.471   4.183  1.00  0.00     0.023 C 
HETATM   31  C   UNL     1      43.638 -14.676   3.112  1.00  0.00     0.007 C 
ENDBRANCH  29  30
ENDBRANCH  25  29
ENDBRANCH  22  23
ENDBRANCH   1  22
TORSDOF 7
ENDMDL
MODEL 4
REMARK VINA RESULT:      -7.0      2.710      7.871
REMARK  7 active torsions:
REMARK  status: ('A' for Active; 'I' for Inactive)
REMARK    1  A    between atoms: C_2  and  C_3 
REMARK    2  A    between atoms: C_3  and  N_4 
REMARK    3  A    between atoms: C_7  and  C_8 
REMARK    4  A    between atoms: C_8  and  N_9 
REMARK       I    between atoms: N_9  and  C_10 
REMARK       I    between atoms: C_10  and  N_11 
REMARK    5  A    between atoms: N_11  and  C_12 
REMARK    6  A    between atoms: C_15  and  N_16 
REMARK       I    between atoms: N_16  and  C_17 
REMARK    7  A    between atoms: C_17  and  C_18 
ROOT
HETATM    1  N   UNL     1      43.909 -19.284   4.853  1.00  0.00    -0.342 N 
HETATM    2  C   UNL     1      44.587 -19.953   3.878  1.00  0.00     0.320 C 
HETATM    3  N   UNL     1      44.238 -19.695   2.587  1.00  0.00    -0.309 N 
HETATM    4  O   UNL     1      45.468 -20.774   4.125  1.00  0.00    -0.247 OA
HETATM    5  H   UNL     1      42.985 -19.009   4.538  1.00  0.00     0.164 HD
HETATM    6  H   UNL     1      44.599 -20.401   1.953  1.00  0.00     0.170 HD
ENDROOT
BRANCH   3   7
HETATM    7  C   UNL     1      43.448 -18.684   2.010  1.00  0.00     0.036 A 
HETATM    8  C   UNL     1      43.932 -17.423   1.662  1.00  0.00     0.032 A 
HETATM    9  C   UNL     1      43.071 -16.442   1.152  1.00  0.00     0.032 A 
HETATM   10  C   UNL     1      41.715 -16.712   0.971  1.00  0.00     0.035 A 
HETATM   11  C   UNL     1      41.247 -18.001   1.247  1.00  0.00     0.032 A 
HETATM   12  C   UNL     1      42.109 -18.982   1.750  1.00  0.00     0.032 A 
BRANCH  10  13
HETATM   13  N   UNL     1      40.774 -15.758   0.551  1.00  0.00    -0.321 N 
HETATM   14  C   UNL     1      40.164 -14.766   1.301  1.00  0.00     0.279 C 
HETATM   15  O   UNL     1      40.434 -14.493   2.468  1.00  0.00    -0.265 OA
HETATM   16  H   UNL     1      40.429 -15.830  -0.402  1.00  0.00     0.169 HD
BRANCH  14  17
HETATM   17  C   UNL     1      39.127 -14.068   0.562  1.00  0.00     0.142 A 
HETATM   18  O   UNL     1      39.192 -14.025  -0.808  1.00  0.00    -0.317 OA
HETATM   19  C   UNL     1      38.096 -13.348  -1.239  1.00  0.00     0.143 A 
HETATM   20  C   UNL     1      37.326 -12.947  -0.173  1.00  0.00     0.027 A 
HETATM   21  C   UNL     1      37.991 -13.407   0.989  1.00  0.00     0.045 A 
ENDBRANCH  14  17
ENDBRANCH  10  13
ENDBRANCH   3   7
BRANCH   1  22
HETATM   22  C   UNL     1      43.971 -19.599   6.271  1.00  0.00     0.130 C 
BRANCH  22  23
HETATM   23  C   UNL     1      44.782 -18.665   7.183  1.00  0.00     0.031 C 
HETATM   24  C   UNL     1      45.055 -17.288   6.592  1.00  0.00     0.241 C 
HETATM   25  N   UNL     1      43.971 -16.370   7.154  1.00  0.00    -0.071 N 
HETATM   26  H   UNL     1      44.473 -15.661   7.705  1.00  0.00     0.279 HD
HETATM   27  C   UNL     1      43.141 -17.187   8.114  1.00  0.00     0.235 C 
HETATM   28  C   UNL     1      44.042 -18.350   8.479  1.00  0.00     0.035 C 
BRANCH  25  29
HETATM   29  C   UNL     1      43.196 -15.654   6.081  1.00  0.00     0.234 C 
BRANCH  29  30
HETATM   30  C   UNL     1      41.731 -16.083   6.049  1.00  0.00     0.023 C 
HETATM   31  C   UNL     1      41.367 -16.919   4.830  1.00  0.00     0.007 C 
ENDBRANCH  29  30
ENDBRANCH  25  29
ENDBRANCH  22  23
ENDBRANCH   1  22
TORSDOF 7
ENDMDL
MODEL 5
REMARK VINA RESULT:      -6.9      4.203      6.634
REMARK  7 active torsions:
REMARK  status: ('A' for Active; 'I' for Inactive)
REMARK    1  A    between atoms: C_2  and  C_3 
REMARK    2  A    between atoms: C_3  and  N_4 
REMARK    3  A    between atoms: C_7  and  C_8 
REMARK    4  A    between atoms: C_8  and  N_9 
REMARK       I    between atoms: N_9  and  C_10 
REMARK       I    between atoms: C_10  and  N_11 
REMARK    5  A    between atoms: N_11  and  C_12 
REMARK    6  A    between atoms: C_15  and  N_16 
REMARK       I    between atoms: N_16  and  C_17 
REMARK    7  A    between atoms: C_17  and  C_18 
ROOT
HETATM    1  N   UNL     1      40.937 -11.373   8.228  1.00  0.00    -0.342 N 
HETATM    2  C   UNL     1      40.001 -11.208   7.250  1.00  0.00     0.320 C 
HETATM    3  N   UNL     1      40.133 -11.967   6.128  1.00  0.00    -0.309 N 
HETATM    4  O   UNL     1      39.079 -10.401   7.342  1.00  0.00    -0.247 OA
HETATM    5  H   UNL     1      41.813 -11.711   7.848  1.00  0.00     0.164 HD
HETATM    6  H   UNL     1      39.565 -11.612   5.366  1.00  0.00     0.170 HD
ENDROOT
BRANCH   3   7
HETATM    7  C   UNL     1      40.930 -13.090   5.839  1.00  0.00     0.036 A 
HETATM    8  C   UNL     1      42.305 -13.029   5.605  1.00  0.00     0.032 A 
HETATM    9  C   UNL     1      43.022 -14.181   5.258  1.00  0.00     0.032 A 
HETATM   10  C   UNL     1      42.380 -15.413   5.152  1.00  0.00     0.035 A 
HETATM   11  C   UNL     1      41.019 -15.487   5.463  1.00  0.00     0.032 A 
HETATM   12  C   UNL     1      40.303 -14.337   5.816  1.00  0.00     0.032 A 
BRANCH  10  13
HETATM   13  N   UNL     1      43.010 -16.593   4.723  1.00  0.00    -0.321 N 
HETATM   14  C   UNL     1      43.375 -16.952   3.436  1.00  0.00     0.279 C 
HETATM   15  O   UNL     1      43.289 -16.228   2.447  1.00  0.00    -0.265 OA
HETATM   16  H   UNL     1      43.164 -17.319   5.417  1.00  0.00     0.169 HD
BRANCH  14  17
HETATM   17  C   UNL     1      43.864 -18.317   3.356  1.00  0.00     0.142 A 
HETATM   18  O   UNL     1      44.413 -18.900   4.471  1.00  0.00    -0.317 OA
HETATM   19  C   UNL     1      44.753 -20.170   4.132  1.00  0.00     0.143 A 
HETATM   20  C   UNL     1      44.439 -20.420   2.817  1.00  0.00     0.027 A 
HETATM   21  C   UNL     1      43.870 -19.225   2.315  1.00  0.00     0.045 A 
ENDBRANCH  14  17
ENDBRANCH  10  13
ENDBRANCH   3   7
BRANCH   1  22
HETATM   22  C   UNL     1      41.100 -10.494   9.375  1.00  0.00     0.130 C 
BRANCH  22  23
HETATM   23  C   UNL     1      40.100 -10.628  10.534  1.00  0.00     0.031 C 
HETATM   24  C   UNL     1      40.615 -11.430  11.722  1.00  0.00     0.241 C 
HETATM   25  N   UNL     1      41.145 -10.403  12.721  1.00  0.00    -0.071 N 
HETATM   26  H   UNL     1      40.563 -10.515  13.562  1.00  0.00     0.279 HD
HETATM   27  C   UNL     1      40.864  -9.033  12.152  1.00  0.00     0.235 C 
HETATM   28  C   UNL     1      39.754  -9.275  11.148  1.00  0.00     0.035 C 
BRANCH  25  29
HETATM   29  C   UNL     1      42.575 -10.655  13.117  1.00  0.00     0.234 C 
BRANCH  29  30
HETATM   30  C   UNL     1      43.557  -9.876  12.245  1.00  0.00     0.023 C 
HETATM   31  C   UNL     1      44.331 -10.749  11.267  1.00  0.00     0.007 C 
ENDBRANCH  29  30
ENDBRANCH  25  29
ENDBRANCH  22  23
ENDBRANCH   1  22
TORSDOF 7
ENDMDL
MODEL 6
REMARK VINA RESULT:      -6.9      3.505      5.756
REMARK  7 active torsions:
REMARK  status: ('A' for Active; 'I' for Inactive)
REMARK    1  A    between atoms: C_2  and  C_3 
REMARK    2  A    between atoms: C_3  and  N_4 
REMARK    3  A    between atoms: C_7  and  C_8 
REMARK    4  A    between atoms: C_8  and  N_9 
REMARK       I    between atoms: N_9  and  C_10 
REMARK       I    between atoms: C_10  and  N_11 
REMARK    5  A    between atoms: N_11  and  C_12 
REMARK    6  A    between atoms: C_15  and  N_16 
REMARK       I    between atoms: N_16  and  C_17 
REMARK    7  A    between atoms: C_17  and  C_18 
ROOT
HETATM    1  N   UNL     1      41.966 -11.178   8.130  1.00  0.00    -0.342 N 
HETATM    2  C   UNL     1      40.802 -10.891   7.482  1.00  0.00     0.320 C 
HETATM    3  N   UNL     1      40.526 -11.600   6.352  1.00  0.00    -0.309 N 
HETATM    4  O   UNL     1      40.025 -10.020   7.866  1.00  0.00    -0.247 OA
HETATM    5  H   UNL     1      42.656 -11.564   7.495  1.00  0.00     0.164 HD
HETATM    6  H   UNL     1      39.791 -11.163   5.805  1.00  0.00     0.170 HD
ENDROOT
BRANCH   3   7
HETATM    7  C   UNL     1      41.097 -12.766   5.810  1.00  0.00     0.036 A 
HETATM    8  C   UNL     1      42.175 -12.764   4.924  1.00  0.00     0.032 A 
HETATM    9  C   UNL     1      42.649 -13.962   4.373  1.00  0.00     0.032 A 
HETATM   10  C   UNL     1      42.061 -15.180   4.709  1.00  0.00     0.035 A 
HETATM   11  C   UNL     1      41.033 -15.188   5.656  1.00  0.00     0.032 A 
HETATM   12  C   UNL     1      40.564 -13.992   6.212  1.00  0.00     0.032 A 
BRANCH  10  13
HETATM   13  N   UNL     1      42.419 -16.410   4.133  1.00  0.00    -0.321 N 
HETATM   14  C   UNL     1      43.332 -17.343   4.598  1.00  0.00     0.279 C 
HETATM   15  O   UNL     1      43.921 -17.283   5.673  1.00  0.00    -0.265 OA
HETATM   16  H   UNL     1      42.022 -16.634   3.225  1.00  0.00     0.169 HD
BRANCH  14  17
HETATM   17  C   UNL     1      43.552 -18.424   3.653  1.00  0.00     0.142 A 
HETATM   18  O   UNL     1      44.450 -19.414   3.963  1.00  0.00    -0.317 OA
HETATM   19  C   UNL     1      44.437 -20.302   2.936  1.00  0.00     0.143 A 
HETATM   20  C   UNL     1      43.551 -19.903   1.964  1.00  0.00     0.027 A 
HETATM   21  C   UNL     1      42.982 -18.690   2.423  1.00  0.00     0.045 A 
ENDBRANCH  14  17
ENDBRANCH  10  13
ENDBRANCH   3   7
BRANCH   1  22
HETATM   22  C   UNL     1      42.541 -10.374   9.196  1.00  0.00     0.130 C 
BRANCH  22  23
HETATM   23  C   UNL     1      43.202 -11.106  10.375  1.00  0.00     0.031 C 
HETATM   24  C   UNL     1      43.862 -12.428  10.007  1.00  0.00     0.241 C 
HETATM   25  N   UNL     1      45.340 -12.111   9.792  1.00  0.00    -0.071 N 
HETATM   26  H   UNL     1      45.843 -12.655  10.506  1.00  0.00     0.279 HD
HETATM   27  C   UNL     1      45.539 -10.649  10.112  1.00  0.00     0.235 C 
HETATM   28  C   UNL     1      44.347 -10.299  10.979  1.00  0.00     0.035 C 
BRANCH  25  29
HETATM   29  C   UNL     1      45.843 -12.549   8.443  1.00  0.00     0.234 C 
BRANCH  29  30
HETATM   30  C   UNL     1      44.786 -13.328   7.663  1.00  0.00     0.023 C 
HETATM   31  C   UNL     1      45.365 -14.221   6.575  1.00  0.00     0.007 C 
ENDBRANCH  29  30
ENDBRANCH  25  29
ENDBRANCH  22  23
ENDBRANCH   1  22
TORSDOF 7
ENDMDL
MODEL 7
REMARK VINA RESULT:      -6.8      3.641      7.025
REMARK  7 active torsions:
REMARK  status: ('A' for Active; 'I' for Inactive)
REMARK    1  A    between atoms: C_2  and  C_3 
REMARK    2  A    between atoms: C_3  and  N_4 
REMARK    3  A    between atoms: C_7  and  C_8 
REMARK    4  A    between atoms: C_8  and  N_9 
REMARK       I    between atoms: N_9  and  C_10 
REMARK       I    between atoms: C_10  and  N_11 
REMARK    5  A    between atoms: N_11  and  C_12 
REMARK    6  A    between atoms: C_15  and  N_16 
REMARK       I    between atoms: N_16  and  C_17 
REMARK    7  A    between atoms: C_17  and  C_18 
ROOT
HETATM    1  N   UNL     1      43.500 -15.215   5.646  1.00  0.00    -0.342 N 
HETATM    2  C   UNL     1      43.233 -13.879   5.685  1.00  0.00     0.320 C 
HETATM    3  N   UNL     1      42.741 -13.309   4.550  1.00  0.00    -0.309 N 
HETATM    4  O   UNL     1      43.435 -13.190   6.682  1.00  0.00    -0.247 OA
HETATM    5  H   UNL     1      43.696 -15.525   4.701  1.00  0.00     0.164 HD
HETATM    6  H   UNL     1      42.810 -12.296   4.579  1.00  0.00     0.170 HD
ENDROOT
BRANCH   3   7
HETATM    7  C   UNL     1      42.221 -13.864   3.368  1.00  0.00     0.036 A 
HETATM    8  C   UNL     1      42.909 -14.777   2.568  1.00  0.00     0.032 A 
HETATM    9  C   UNL     1      42.352 -15.238   1.367  1.00  0.00     0.032 A 
HETATM   10  C   UNL     1      41.094 -14.802   0.954  1.00  0.00     0.035 A 
HETATM   11  C   UNL     1      40.373 -13.948   1.794  1.00  0.00     0.032 A 
HETATM   12  C   UNL     1      40.926 -13.493   2.997  1.00  0.00     0.032 A 
BRANCH  10  13
HETATM   13  N   UNL     1      40.508 -15.146  -0.275  1.00  0.00    -0.321 N 
HETATM   14  C   UNL     1      40.696 -14.551  -1.512  1.00  0.00     0.279 C 
HETATM   15  O   UNL     1      41.507 -13.661  -1.754  1.00  0.00    -0.265 OA
HETATM   16  H   UNL     1      39.801 -15.876  -0.268  1.00  0.00     0.169 HD
BRANCH  14  17
HETATM   17  C   UNL     1      39.801 -15.081  -2.525  1.00  0.00     0.142 A 
HETATM   18  O   UNL     1      38.540 -14.554  -2.649  1.00  0.00    -0.317 OA
HETATM   19  C   UNL     1      37.936 -15.201  -3.680  1.00  0.00     0.143 A 
HETATM   20  C   UNL     1      38.781 -16.139  -4.223  1.00  0.00     0.027 A 
HETATM   21  C   UNL     1      39.982 -16.066  -3.477  1.00  0.00     0.045 A 
ENDBRANCH  14  17
ENDBRANCH  10  13
ENDBRANCH   3   7
BRANCH   1  22
HETATM   22  C   UNL     1      44.244 -15.941   6.662  1.00  0.00     0.130 C 
BRANCH  22  23
HETATM   23  C   UNL     1      43.761 -17.350   7.041  1.00  0.00     0.031 C 
HETATM   24  C   UNL     1      42.616 -17.876   6.186  1.00  0.00     0.241 C 
HETATM   25  N   UNL     1      43.263 -18.737   5.104  1.00  0.00    -0.071 N 
HETATM   26  H   UNL     1      42.897 -19.686   5.255  1.00  0.00     0.279 HD
HETATM   27  C   UNL     1      44.747 -18.772   5.382  1.00  0.00     0.235 C 
HETATM   28  C   UNL     1      44.853 -18.399   6.847  1.00  0.00     0.035 C 
BRANCH  25  29
HETATM   29  C   UNL     1      42.879 -18.314   3.711  1.00  0.00     0.234 C 
BRANCH  29  30
HETATM   30  C   UNL     1      43.888 -18.790   2.669  1.00  0.00     0.023 C 
HETATM   31  C   UNL     1      43.494 -20.094   1.990  1.00  0.00     0.007 C 
ENDBRANCH  29  30
ENDBRANCH  25  29
ENDBRANCH  22  23
ENDBRANCH   1  22
TORSDOF 7
ENDMDL
MODEL 8
REMARK VINA RESULT:      -6.7      3.167      6.918
REMARK  7 active torsions:
REMARK  status: ('A' for Active; 'I' for Inactive)
REMARK    1  A    between atoms: C_2  and  C_3 
REMARK    2  A    between atoms: C_3  and  N_4 
REMARK    3  A    between atoms: C_7  and  C_8 
REMARK    4  A    between atoms: C_8  and  N_9 
REMARK       I    between atoms: N_9  and  C_10 
REMARK       I    between atoms: C_10  and  N_11 
REMARK    5  A    between atoms: N_11  and  C_12 
REMARK    6  A    between atoms: C_15  and  N_16 
REMARK       I    between atoms: N_16  and  C_17 
REMARK    7  A    between atoms: C_17  and  C_18 
ROOT
HETATM    1  N   UNL     1      43.822 -15.986   6.167  1.00  0.00    -0.342 N 
HETATM    2  C   UNL     1      44.032 -14.743   6.687  1.00  0.00     0.320 C 
HETATM    3  N   UNL     1      43.576 -13.681   5.967  1.00  0.00    -0.309 N 
HETATM    4  O   UNL     1      44.623 -14.558   7.749  1.00  0.00    -0.247 OA
HETATM    5  H   UNL     1      43.737 -15.953   5.157  1.00  0.00     0.164 HD
HETATM    6  H   UNL     1      43.986 -12.808   6.285  1.00  0.00     0.170 HD
ENDROOT
BRANCH   3   7
HETATM    7  C   UNL     1      42.705 -13.595   4.866  1.00  0.00     0.036 A 
HETATM    8  C   UNL     1      41.314 -13.588   4.973  1.00  0.00     0.032 A 
HETATM    9  C   UNL     1      40.509 -13.568   3.827  1.00  0.00     0.032 A 
HETATM   10  C   UNL     1      41.081 -13.541   2.557  1.00  0.00     0.035 A 
HETATM   11  C   UNL     1      42.474 -13.469   2.452  1.00  0.00     0.032 A 
HETATM   12  C   UNL     1      43.278 -13.483   3.598  1.00  0.00     0.032 A 
BRANCH  10  13
HETATM   13  N   UNL     1      40.346 -13.609   1.362  1.00  0.00    -0.321 N 
HETATM   14  C   UNL     1      40.291 -14.647   0.446  1.00  0.00     0.279 C 
HETATM   15  O   UNL     1      40.820 -15.747   0.589  1.00  0.00    -0.265 OA
HETATM   16  H   UNL     1      39.837 -12.777   1.078  1.00  0.00     0.169 HD
BRANCH  14  17
HETATM   17  C   UNL     1      39.545 -14.296  -0.749  1.00  0.00     0.142 A 
HETATM   18  O   UNL     1      39.998 -14.718  -1.973  1.00  0.00    -0.317 OA
HETATM   19  C   UNL     1      39.107 -14.285  -2.902  1.00  0.00     0.143 A 
HETATM   20  C   UNL     1      38.087 -13.585  -2.302  1.00  0.00     0.027 A 
HETATM   21  C   UNL     1      38.370 -13.588  -0.915  1.00  0.00     0.045 A 
ENDBRANCH  14  17
ENDBRANCH  10  13
ENDBRANCH   3   7
BRANCH   1  22
HETATM   22  C   UNL     1      44.440 -17.205   6.660  1.00  0.00     0.130 C 
BRANCH  22  23
HETATM   23  C   UNL     1      43.713 -18.536   6.405  1.00  0.00     0.031 C 
HETATM   24  C   UNL     1      42.441 -18.411   5.577  1.00  0.00     0.241 C 
HETATM   25  N   UNL     1      42.846 -18.726   4.139  1.00  0.00    -0.071 N 
HETATM   26  H   UNL     1      42.311 -19.566   3.882  1.00  0.00     0.279 HD
HETATM   27  C   UNL     1      44.308 -19.104   4.154  1.00  0.00     0.235 C 
HETATM   28  C   UNL     1      44.566 -19.505   5.593  1.00  0.00     0.035 C 
BRANCH  25  29
HETATM   29  C   UNL     1      42.475 -17.632   3.173  1.00  0.00     0.234 C 
BRANCH  29  30
HETATM   30  C   UNL     1      43.698 -17.052   2.467  1.00  0.00     0.023 C 
HETATM   31  C   UNL     1      43.838 -17.504   1.020  1.00  0.00     0.007 C 
ENDBRANCH  29  30
ENDBRANCH  25  29
ENDBRANCH  22  23
ENDBRANCH   1  22
TORSDOF 7
ENDMDL
MODEL 9
REMARK VINA RESULT:      -6.7      1.729      3.663
REMARK  7 active torsions:
REMARK  status: ('A' for Active; 'I' for Inactive)
REMARK    1  A    between atoms: C_2  and  C_3 
REMARK    2  A    between atoms: C_3  and  N_4 
REMARK    3  A    between atoms: C_7  and  C_8 
REMARK    4  A    between atoms: C_8  and  N_9 
REMARK       I    between atoms: N_9  and  C_10 
REMARK       I    between atoms: C_10  and  N_11 
REMARK    5  A    between atoms: N_11  and  C_12 
REMARK    6  A    between atoms: C_15  and  N_16 
REMARK       I    between atoms: N_16  and  C_17 
REMARK    7  A    between atoms: C_17  and  C_18 
ROOT
HETATM    1  N   UNL     1      39.941 -13.203   2.710  1.00  0.00    -0.342 N 
HETATM    2  C   UNL     1      39.592 -13.403   1.407  1.00  0.00     0.320 C 
HETATM    3  N   UNL     1      40.188 -14.440   0.756  1.00  0.00    -0.309 N 
HETATM    4  O   UNL     1      38.792 -12.683   0.815  1.00  0.00    -0.247 OA
HETATM    5  H   UNL     1      40.869 -13.563   2.904  1.00  0.00     0.164 HD
HETATM    6  H   UNL     1      40.073 -14.366  -0.250  1.00  0.00     0.170 HD
ENDROOT
BRANCH   3   7
HETATM    7  C   UNL     1      40.951 -15.528   1.217  1.00  0.00     0.036 A 
HETATM    8  C   UNL     1      42.085 -16.016   0.567  1.00  0.00     0.032 A 
HETATM    9  C   UNL     1      42.756 -17.146   1.051  1.00  0.00     0.032 A 
HETATM   10  C   UNL     1      42.311 -17.799   2.200  1.00  0.00     0.035 A 
HETATM   11  C   UNL     1      41.221 -17.264   2.893  1.00  0.00     0.032 A 
HETATM   12  C   UNL     1      40.555 -16.130   2.413  1.00  0.00     0.032 A 
BRANCH  10  13
HETATM   13  N   UNL     1      42.873 -18.987   2.696  1.00  0.00    -0.321 N 
HETATM   14  C   UNL     1      43.875 -19.133   3.642  1.00  0.00     0.279 C 
HETATM   15  O   UNL     1      44.378 -18.218   4.288  1.00  0.00    -0.265 OA
HETATM   16  H   UNL     1      42.572 -19.859   2.271  1.00  0.00     0.169 HD
BRANCH  14  17
HETATM   17  C   UNL     1      44.305 -20.512   3.788  1.00  0.00     0.142 A 
HETATM   18  O   UNL     1      44.769 -20.946   5.004  1.00  0.00    -0.317 OA
HETATM   19  C   UNL     1      45.068 -22.264   4.872  1.00  0.00     0.143 A 
HETATM   20  C   UNL     1      44.811 -22.691   3.590  1.00  0.00     0.027 A 
HETATM   21  C   UNL     1      44.323 -21.562   2.889  1.00  0.00     0.045 A 
ENDBRANCH  14  17
ENDBRANCH  10  13
ENDBRANCH   3   7
BRANCH   1  22
HETATM   22  C   UNL     1      39.601 -12.021   3.486  1.00  0.00     0.130 C 
BRANCH  22  23
HETATM   23  C   UNL     1      39.344 -12.197   4.991  1.00  0.00     0.031 C 
HETATM   24  C   UNL     1      39.696 -13.575   5.535  1.00  0.00     0.241 C 
HETATM   25  N   UNL     1      41.102 -13.449   6.116  1.00  0.00    -0.071 N 
HETATM   26  H   UNL     1      41.002 -13.651   7.120  1.00  0.00     0.279 HD
HETATM   27  C   UNL     1      41.518 -12.004   5.982  1.00  0.00     0.235 C 
HETATM   28  C   UNL     1      40.206 -11.259   5.830  1.00  0.00     0.035 C 
BRANCH  25  29
HETATM   29  C   UNL     1      42.065 -14.452   5.541  1.00  0.00     0.234 C 
BRANCH  29  30
HETATM   30  C   UNL     1      43.305 -13.783   4.950  1.00  0.00     0.023 C 
HETATM   31  C   UNL     1      43.439 -13.967   3.445  1.00  0.00     0.007 C 
ENDBRANCH  29  30
ENDBRANCH  25  29
ENDBRANCH  22  23
ENDBRANCH   1  22
TORSDOF 7
ENDMDL
MODEL 10
REMARK VINA RESULT:      -6.4      3.881      8.228
REMARK  7 active torsions:
REMARK  status: ('A' for Active; 'I' for Inactive)
REMARK    1  A    between atoms: C_2  and  C_3 
REMARK    2  A    between atoms: C_3  and  N_4 
REMARK    3  A    between atoms: C_7  and  C_8 
REMARK    4  A    between atoms: C_8  and  N_9 
REMARK       I    between atoms: N_9  and  C_10 
REMARK       I    between atoms: C_10  and  N_11 
REMARK    5  A    between atoms: N_11  and  C_12 
REMARK    6  A    between atoms: C_15  and  N_16 
REMARK       I    between atoms: N_16  and  C_17 
REMARK    7  A    between atoms: C_17  and  C_18 
ROOT
HETATM    1  N   UNL     1      42.160 -17.638   3.569  1.00  0.00    -0.342 N 
HETATM    2  C   UNL     1      41.266 -17.142   4.471  1.00  0.00     0.320 C 
HETATM    3  N   UNL     1      40.645 -15.972   4.154  1.00  0.00    -0.309 N 
HETATM    4  O   UNL     1      41.028 -17.694   5.543  1.00  0.00    -0.247 OA
HETATM    5  H   UNL     1      42.553 -16.901   2.994  1.00  0.00     0.164 HD
HETATM    6  H   UNL     1      40.203 -15.551   4.965  1.00  0.00     0.170 HD
ENDROOT
BRANCH   3   7
HETATM    7  C   UNL     1      40.556 -15.251   2.950  1.00  0.00     0.036 A 
HETATM    8  C   UNL     1      39.498 -15.370   2.047  1.00  0.00     0.032 A 
HETATM    9  C   UNL     1      39.510 -14.668   0.835  1.00  0.00     0.032 A 
HETATM   10  C   UNL     1      40.574 -13.827   0.512  1.00  0.00     0.035 A 
HETATM   11  C   UNL     1      41.594 -13.648   1.451  1.00  0.00     0.032 A 
HETATM   12  C   UNL     1      41.579 -14.345   2.664  1.00  0.00     0.032 A 
BRANCH  10  13
HETATM   13  N   UNL     1      40.702 -13.161  -0.718  1.00  0.00    -0.321 N 
HETATM   14  C   UNL     1      41.006 -13.699  -1.958  1.00  0.00     0.279 C 
HETATM   15  O   UNL     1      41.119 -14.897  -2.202  1.00  0.00    -0.265 OA
HETATM   16  H   UNL     1      40.638 -12.147  -0.709  1.00  0.00     0.169 HD
BRANCH  14  17
HETATM   17  C   UNL     1      41.208 -12.679  -2.972  1.00  0.00     0.142 A 
HETATM   18  O   UNL     1      42.482 -12.258  -3.258  1.00  0.00    -0.317 OA
HETATM   19  C   UNL     1      42.386 -11.338  -4.252  1.00  0.00     0.143 A 
HETATM   20  C   UNL     1      41.073 -11.151  -4.612  1.00  0.00     0.027 A 
HETATM   21  C   UNL     1      40.311 -12.012  -3.785  1.00  0.00     0.045 A 
ENDBRANCH  14  17
ENDBRANCH  10  13
ENDBRANCH   3   7
BRANCH   1  22
HETATM   22  C   UNL     1      43.086 -18.727   3.833  1.00  0.00     0.130 C 
BRANCH  22  23
HETATM   23  C   UNL     1      44.063 -19.129   2.716  1.00  0.00     0.031 C 
HETATM   24  C   UNL     1      45.104 -20.161   3.130  1.00  0.00     0.241 C 
HETATM   25  N   UNL     1      44.548 -21.514   2.690  1.00  0.00    -0.071 N 
HETATM   26  H   UNL     1      45.221 -21.874   2.001  1.00  0.00     0.279 HD
HETATM   27  C   UNL     1      43.250 -21.254   1.964  1.00  0.00     0.235 C 
HETATM   28  C   UNL     1      43.349 -19.800   1.547  1.00  0.00     0.035 C 
BRANCH  25  29
HETATM   29  C   UNL     1      44.467 -22.508   3.817  1.00  0.00     0.234 C 
BRANCH  29  30
HETATM   30  C   UNL     1      45.123 -21.983   5.092  1.00  0.00     0.023 C 
HETATM   31  C   UNL     1      44.126 -21.585   6.172  1.00  0.00     0.007 C 
ENDBRANCH  29  30
ENDBRANCH  25  29
ENDBRANCH  22  23
ENDBRANCH   1  22
TORSDOF 7
ENDMDL
