MODEL 1
REMARK VINA RESULT:     -10.5      0.000      0.000
REMARK  5 active torsions:
REMARK  status: ('A' for Active; 'I' for Inactive)
REMARK    1  A    between atoms: C_4  and  N_5 
REMARK    2  A    between atoms: C_7  and  C_8 
REMARK       I    between atoms: C_8  and  N_9 
REMARK    3  A    between atoms: N_9  and  N_10 
REMARK       I    between atoms: N_10  and  C_11 
REMARK    4  A    between atoms: C_11  and  C_12 
REMARK    5  A    between atoms: C_16  and  C_17 
ROOT
HETATM    1  C   UNL     1      41.637 -13.830   5.551  1.00  0.00     0.286 C 
HETATM    2  N   UNL     1      42.851 -13.865   6.197  1.00  0.00    -0.262 N 
HETATM    3  O   UNL     1      40.751 -13.020   5.796  1.00  0.00    -0.264 OA
HETATM    4  H   UNL     1      43.580 -14.547   5.981  1.00  0.00     0.190 HD
ENDROOT
BRANCH   2   5
HETATM    5  N   UNL     1      43.085 -12.896   7.176  1.00  0.00    -0.262 N 
HETATM    6  C   UNL     1      44.219 -12.938   7.957  1.00  0.00     0.288 C 
HETATM    7  O   UNL     1      45.100 -13.780   7.799  1.00  0.00    -0.264 OA
HETATM    8  H   UNL     1      42.334 -12.230   7.335  1.00  0.00     0.190 HD
BRANCH   6   9
HETATM    9  C   UNL     1      44.286 -11.914   8.968  1.00  0.00     0.121 A 
HETATM   10  N   UNL     1      45.412 -11.172   9.185  1.00  0.00    -0.272 N 
HETATM   11  H   UNL     1      46.298 -11.247   8.695  1.00  0.00     0.189 HD
HETATM   12  N   UNL     1      45.284 -10.250  10.153  1.00  0.00    -0.174 NA
HETATM   13  C   UNL     1      44.032 -10.405  10.611  1.00  0.00     0.089 A 
HETATM   14  C   UNL     1      43.373 -11.437   9.888  1.00  0.00     0.071 A 
BRANCH  13  15
HETATM   15  C   UNL     1      43.487  -9.579  11.695  1.00  0.00    -0.006 A 
HETATM   16  C   UNL     1      43.658  -9.958  13.035  1.00  0.00     0.014 A 
HETATM   17  C   UNL     1      43.161  -9.164  14.072  1.00  0.00     0.001 A 
HETATM   18  C   UNL     1      42.478  -7.985  13.782  1.00  0.00     0.000 A 
HETATM   19  C   UNL     1      42.292  -7.598  12.458  1.00  0.00     0.001 A 
HETATM   20  C   UNL     1      42.793  -8.391  11.420  1.00  0.00     0.014 A 
ENDBRANCH  13  15
ENDBRANCH   6   9
ENDBRANCH   2   5
BRANCH   1  21
HETATM   21  C   UNL     1      41.439 -14.875   4.466  1.00  0.00     0.125 C 
HETATM   22  N   UNL     1      42.324 -15.816   4.320  1.00  0.00    -0.164 NA
HETATM   23  N   UNL     1      42.117 -16.770   3.328  1.00  0.00    -0.200 N 
HETATM   24  C   UNL     1      41.068 -16.695   2.400  1.00  0.00     0.245 C 
HETATM   25  C   UNL     1      40.450 -15.327   2.291  1.00  0.00     0.111 C 
HETATM   26  O   UNL     1      40.656 -17.607   1.684  1.00  0.00    -0.271 OA
HETATM   27  C   UNL     1      40.177 -14.781   3.666  1.00  0.00     0.076 C 
BRANCH  23  28
HETATM   28  C   UNL     1      43.002 -17.896   3.404  1.00  0.00     0.068 A 
HETATM   29  C   UNL     1      43.139 -18.552   4.647  1.00  0.00     0.039 A 
HETATM   30  C   UNL     1      43.930 -19.700   4.796  1.00  0.00    -0.060 A 
HETATM   31  C   UNL     1      44.002 -20.420   6.110  1.00  0.00     0.048 C 
HETATM   32  C   UNL     1      44.597 -20.209   3.684  1.00  0.00     0.007 A 
HETATM   33  C   UNL     1      44.514 -19.551   2.458  1.00  0.00     0.009 A 
HETATM   34  C   UNL     1      43.748 -18.379   2.307  1.00  0.00    -0.033 A 
HETATM   35  C   UNL     1      43.834 -17.693   0.968  1.00  0.00     0.050 C 
ENDBRANCH  23  28
ENDBRANCH   1  21
TORSDOF 5
ENDMDL
MODEL 2
REMARK VINA RESULT:     -10.0      1.407      2.098
REMARK  5 active torsions:
REMARK  status: ('A' for Active; 'I' for Inactive)
REMARK    1  A    between atoms: C_4  and  N_5 
REMARK    2  A    between atoms: C_7  and  C_8 
REMARK       I    between atoms: C_8  and  N_9 
REMARK    3  A    between atoms: N_9  and  N_10 
REMARK       I    between atoms: N_10  and  C_11 
REMARK    4  A    between atoms: C_11  and  C_12 
REMARK    5  A    between atoms: C_16  and  C_17 
ROOT
HETATM    1  C   UNL     1      42.685 -14.491   5.592  1.00  0.00     0.286 C 
HETATM    2  N   UNL     1      43.808 -14.458   6.387  1.00  0.00    -0.262 N 
HETATM    3  O   UNL     1      41.660 -13.862   5.825  1.00  0.00    -0.264 OA
HETATM    4  H   UNL     1      44.655 -14.989   6.181  1.00  0.00     0.190 HD
ENDROOT
BRANCH   2   5
HETATM    5  N   UNL     1      43.772 -13.633   7.514  1.00  0.00    -0.262 N 
HETATM    6  C   UNL     1      44.914 -13.015   7.976  1.00  0.00     0.288 C 
HETATM    7  O   UNL     1      45.994 -13.105   7.399  1.00  0.00    -0.264 OA
HETATM    8  H   UNL     1      42.888 -13.598   8.015  1.00  0.00     0.190 HD
BRANCH   6   9
HETATM    9  C   UNL     1      44.732 -12.254   9.186  1.00  0.00     0.121 A 
HETATM   10  N   UNL     1      45.725 -11.484   9.722  1.00  0.00    -0.272 N 
HETATM   11  H   UNL     1      46.667 -11.362   9.362  1.00  0.00     0.189 HD
HETATM   12  N   UNL     1      45.371 -10.830  10.839  1.00  0.00    -0.174 NA
HETATM   13  C   UNL     1      44.101 -11.201  11.066  1.00  0.00     0.089 A 
HETATM   14  C   UNL     1      43.664 -12.091  10.046  1.00  0.00     0.071 A 
BRANCH  13  15
HETATM   15  C   UNL     1      43.332 -10.705  12.213  1.00  0.00    -0.006 A 
HETATM   16  C   UNL     1      43.795  -9.612  12.962  1.00  0.00     0.014 A 
HETATM   17  C   UNL     1      43.055  -9.122  14.042  1.00  0.00     0.001 A 
HETATM   18  C   UNL     1      41.848  -9.723  14.392  1.00  0.00     0.000 A 
HETATM   19  C   UNL     1      41.379 -10.814  13.665  1.00  0.00     0.001 A 
HETATM   20  C   UNL     1      42.117 -11.303  12.582  1.00  0.00     0.014 A 
ENDBRANCH  13  15
ENDBRANCH   6   9
ENDBRANCH   2   5
BRANCH   1  21
HETATM   21  C   UNL     1      42.781 -15.369   4.356  1.00  0.00     0.125 C 
HETATM   22  N   UNL     1      43.378 -16.520   4.438  1.00  0.00    -0.164 NA
HETATM   23  N   UNL     1      43.444 -17.313   3.296  1.00  0.00    -0.200 N 
HETATM   24  C   UNL     1      43.007 -16.879   2.035  1.00  0.00     0.245 C 
HETATM   25  C   UNL     1      42.859 -15.385   1.925  1.00  0.00     0.111 C 
HETATM   26  O   UNL     1      42.779 -17.586   1.055  1.00  0.00    -0.271 OA
HETATM   27  C   UNL     1      42.108 -14.860   3.119  1.00  0.00     0.076 C 
BRANCH  23  28
HETATM   28  C   UNL     1      43.892 -18.654   3.538  1.00  0.00     0.068 A 
HETATM   29  C   UNL     1      43.689 -19.616   2.526  1.00  0.00     0.039 A 
HETATM   30  C   UNL     1      44.154 -20.934   2.651  1.00  0.00    -0.060 A 
HETATM   31  C   UNL     1      43.989 -21.918   1.531  1.00  0.00     0.048 C 
HETATM   32  C   UNL     1      44.840 -21.300   3.807  1.00  0.00     0.007 A 
HETATM   33  C   UNL     1      45.011 -20.379   4.839  1.00  0.00     0.009 A 
HETATM   34  C   UNL     1      44.518 -19.063   4.736  1.00  0.00    -0.033 A 
HETATM   35  C   UNL     1      44.657 -18.199   5.963  1.00  0.00     0.050 C 
ENDBRANCH  23  28
ENDBRANCH   1  21
TORSDOF 5
ENDMDL
MODEL 3
REMARK VINA RESULT:      -9.9      2.941     10.778
REMARK  5 active torsions:
REMARK  status: ('A' for Active; 'I' for Inactive)
REMARK    1  A    between atoms: C_4  and  N_5 
REMARK    2  A    between atoms: C_7  and  C_8 
REMARK       I    between atoms: C_8  and  N_9 
REMARK    3  A    between atoms: N_9  and  N_10 
REMARK       I    between atoms: N_10  and  C_11 
REMARK    4  A    between atoms: C_11  and  C_12 
REMARK    5  A    between atoms: C_16  and  C_17 
ROOT
HETATM    1  C   UNL     1      39.888 -12.169   6.572  1.00  0.00     0.286 C 
HETATM    2  N   UNL     1      41.151 -12.714   6.542  1.00  0.00    -0.262 N 
HETATM    3  O   UNL     1      38.904 -12.686   6.056  1.00  0.00    -0.264 OA
HETATM    4  H   UNL     1      41.962 -12.271   6.976  1.00  0.00     0.190 HD
ENDROOT
BRANCH   2   5
HETATM    5  N   UNL     1      41.304 -13.945   5.899  1.00  0.00    -0.262 N 
HETATM    6  C   UNL     1      42.550 -14.398   5.523  1.00  0.00     0.288 C 
HETATM    7  O   UNL     1      43.582 -13.784   5.782  1.00  0.00    -0.264 OA
HETATM    8  H   UNL     1      40.445 -14.427   5.646  1.00  0.00     0.190 HD
BRANCH   6   9
HETATM    9  C   UNL     1      42.540 -15.648   4.809  1.00  0.00     0.121 A 
HETATM   10  N   UNL     1      41.520 -16.006   3.973  1.00  0.00    -0.272 N 
HETATM   11  H   UNL     1      40.684 -15.470   3.764  1.00  0.00     0.189 HD
HETATM   12  N   UNL     1      41.690 -17.197   3.376  1.00  0.00    -0.174 NA
HETATM   13  C   UNL     1      42.856 -17.657   3.857  1.00  0.00     0.089 A 
HETATM   14  C   UNL     1      43.421 -16.710   4.755  1.00  0.00     0.071 A 
BRANCH  13  15
HETATM   15  C   UNL     1      43.412 -18.954   3.454  1.00  0.00    -0.006 A 
HETATM   16  C   UNL     1      44.288 -19.649   4.302  1.00  0.00     0.014 A 
HETATM   17  C   UNL     1      44.802 -20.895   3.933  1.00  0.00     0.001 A 
HETATM   18  C   UNL     1      44.453 -21.459   2.708  1.00  0.00     0.000 A 
HETATM   19  C   UNL     1      43.592 -20.780   1.851  1.00  0.00     0.001 A 
HETATM   20  C   UNL     1      43.074 -19.534   2.221  1.00  0.00     0.014 A 
ENDBRANCH  13  15
ENDBRANCH   6   9
ENDBRANCH   2   5
BRANCH   1  21
HETATM   21  C   UNL     1      39.759 -10.850   7.315  1.00  0.00     0.125 C 
HETATM   22  N   UNL     1      39.979 -10.817   8.595  1.00  0.00    -0.164 NA
HETATM   23  N   UNL     1      39.866  -9.596   9.254  1.00  0.00    -0.200 N 
HETATM   24  C   UNL     1      39.408  -8.427   8.628  1.00  0.00     0.245 C 
HETATM   25  C   UNL     1      38.666  -8.678   7.343  1.00  0.00     0.111 C 
HETATM   26  O   UNL     1      39.532  -7.276   9.044  1.00  0.00    -0.271 OA
HETATM   27  C   UNL     1      39.442  -9.642   6.488  1.00  0.00     0.076 C 
BRANCH  23  28
HETATM   28  C   UNL     1      40.365  -9.608  10.599  1.00  0.00     0.068 A 
HETATM   29  C   UNL     1      41.739  -9.862  10.797  1.00  0.00     0.039 A 
HETATM   30  C   UNL     1      42.324  -9.827  12.071  1.00  0.00    -0.060 A 
HETATM   31  C   UNL     1      43.799 -10.031  12.247  1.00  0.00     0.048 C 
HETATM   32  C   UNL     1      41.524  -9.528  13.172  1.00  0.00     0.007 A 
HETATM   33  C   UNL     1      40.156  -9.320  13.006  1.00  0.00     0.009 A 
HETATM   34  C   UNL     1      39.554  -9.386  11.734  1.00  0.00    -0.033 A 
HETATM   35  C   UNL     1      38.053  -9.263  11.698  1.00  0.00     0.050 C 
ENDBRANCH  23  28
ENDBRANCH   1  21
TORSDOF 5
ENDMDL
MODEL 4
REMARK VINA RESULT:      -9.6      2.690     10.675
REMARK  5 active torsions:
REMARK  status: ('A' for Active; 'I' for Inactive)
REMARK    1  A    between atoms: C_4  and  N_5 
REMARK    2  A    between atoms: C_7  and  C_8 
REMARK       I    between atoms: C_8  and  N_9 
REMARK    3  A    between atoms: N_9  and  N_10 
REMARK       I    between atoms: N_10  and  C_11 
REMARK    4  A    between atoms: C_11  and  C_12 
REMARK    5  A    between atoms: C_16  and  C_17 
ROOT
HETATM    1  C   UNL     1      41.458 -12.828   5.501  1.00  0.00     0.286 C 
HETATM    2  N   UNL     1      42.739 -13.128   5.099  1.00  0.00    -0.262 N 
HETATM    3  O   UNL     1      40.509 -13.597   5.402  1.00  0.00    -0.264 OA
HETATM    4  H   UNL     1      43.520 -12.477   5.188  1.00  0.00     0.190 HD
ENDROOT
BRANCH   2   5
HETATM    5  N   UNL     1      42.963 -14.401   4.566  1.00  0.00    -0.262 N 
HETATM    6  C   UNL     1      43.118 -14.583   3.209  1.00  0.00     0.288 C 
HETATM    7  O   UNL     1      43.126 -13.647   2.413  1.00  0.00    -0.264 OA
HETATM    8  H   UNL     1      42.909 -15.175   5.222  1.00  0.00     0.190 HD
BRANCH   6   9
HETATM    9  C   UNL     1      43.271 -15.957   2.806  1.00  0.00     0.121 A 
HETATM   10  N   UNL     1      43.076 -16.367   1.518  1.00  0.00    -0.272 N 
HETATM   11  H   UNL     1      42.806 -15.791   0.726  1.00  0.00     0.189 HD
HETATM   12  N   UNL     1      43.284 -17.679   1.321  1.00  0.00    -0.174 NA
HETATM   13  C   UNL     1      43.605 -18.160   2.532  1.00  0.00     0.089 A 
HETATM   14  C   UNL     1      43.612 -17.108   3.489  1.00  0.00     0.071 A 
BRANCH  13  15
HETATM   15  C   UNL     1      43.908 -19.579   2.757  1.00  0.00    -0.006 A 
HETATM   16  C   UNL     1      43.589 -20.538   1.784  1.00  0.00     0.014 A 
HETATM   17  C   UNL     1      43.896 -21.887   1.984  1.00  0.00     0.001 A 
HETATM   18  C   UNL     1      44.518 -22.295   3.162  1.00  0.00     0.000 A 
HETATM   19  C   UNL     1      44.833 -21.357   4.141  1.00  0.00     0.001 A 
HETATM   20  C   UNL     1      44.530 -20.006   3.941  1.00  0.00     0.014 A 
ENDBRANCH  13  15
ENDBRANCH   6   9
ENDBRANCH   2   5
BRANCH   1  21
HETATM   21  C   UNL     1      41.266 -11.450   6.111  1.00  0.00     0.125 C 
HETATM   22  N   UNL     1      41.117 -11.339   7.397  1.00  0.00    -0.164 NA
HETATM   23  N   UNL     1      40.954 -10.067   7.937  1.00  0.00    -0.200 N 
HETATM   24  C   UNL     1      40.821  -8.912   7.150  1.00  0.00     0.245 C 
HETATM   25  C   UNL     1      40.452  -9.193   5.718  1.00  0.00     0.111 C 
HETATM   26  O   UNL     1      40.946  -7.749   7.529  1.00  0.00    -0.271 OA
HETATM   27  C   UNL     1      41.330 -10.286   5.171  1.00  0.00     0.076 C 
BRANCH  23  28
HETATM   28  C   UNL     1      41.047 -10.020   9.367  1.00  0.00     0.068 A 
HETATM   29  C   UNL     1      42.317 -10.197   9.958  1.00  0.00     0.039 A 
HETATM   30  C   UNL     1      42.510 -10.101  11.344  1.00  0.00    -0.060 A 
HETATM   31  C   UNL     1      43.882 -10.222  11.940  1.00  0.00     0.048 C 
HETATM   32  C   UNL     1      41.417  -9.818  12.159  1.00  0.00     0.007 A 
HETATM   33  C   UNL     1      40.146  -9.686  11.602  1.00  0.00     0.009 A 
HETATM   34  C   UNL     1      39.937  -9.814  10.215  1.00  0.00    -0.033 A 
HETATM   35  C   UNL     1      38.505  -9.771   9.748  1.00  0.00     0.050 C 
ENDBRANCH  23  28
ENDBRANCH   1  21
TORSDOF 5
ENDMDL
MODEL 5
REMARK VINA RESULT:      -9.5      2.800     10.484
REMARK  5 active torsions:
REMARK  status: ('A' for Active; 'I' for Inactive)
REMARK    1  A    between atoms: C_4  and  N_5 
REMARK    2  A    between atoms: C_7  and  C_8 
REMARK       I    between atoms: C_8  and  N_9 
REMARK    3  A    between atoms: N_9  and  N_10 
REMARK       I    between atoms: N_10  and  C_11 
REMARK    4  A    between atoms: C_11  and  C_12 
REMARK    5  A    between atoms: C_16  and  C_17 
ROOT
HETATM    1  C   UNL     1      41.588 -12.927   5.836  1.00  0.00     0.286 C 
HETATM    2  N   UNL     1      42.595 -13.593   6.494  1.00  0.00    -0.262 N 
HETATM    3  O   UNL     1      40.924 -13.410   4.926  1.00  0.00    -0.264 OA
HETATM    4  H   UNL     1      43.140 -13.177   7.251  1.00  0.00     0.190 HD
ENDROOT
BRANCH   2   5
HETATM    5  N   UNL     1      42.853 -14.911   6.107  1.00  0.00    -0.262 N 
HETATM    6  C   UNL     1      43.736 -15.697   6.814  1.00  0.00     0.288 C 
HETATM    7  O   UNL     1      44.289 -15.311   7.841  1.00  0.00    -0.264 OA
HETATM    8  H   UNL     1      42.431 -15.210   5.232  1.00  0.00     0.190 HD
BRANCH   6   9
HETATM    9  C   UNL     1      43.951 -17.006   6.254  1.00  0.00     0.121 A 
HETATM   10  N   UNL     1      44.432 -18.049   6.993  1.00  0.00    -0.272 N 
HETATM   11  H   UNL     1      44.692 -18.035   7.974  1.00  0.00     0.189 HD
HETATM   12  N   UNL     1      44.548 -19.199   6.310  1.00  0.00    -0.174 NA
HETATM   13  C   UNL     1      44.153 -18.899   5.063  1.00  0.00     0.089 A 
HETATM   14  C   UNL     1      43.765 -17.533   4.990  1.00  0.00     0.071 A 
BRANCH  13  15
HETATM   15  C   UNL     1      44.134 -19.895   3.985  1.00  0.00    -0.006 A 
HETATM   16  C   UNL     1      43.627 -19.566   2.719  1.00  0.00     0.014 A 
HETATM   17  C   UNL     1      43.628 -20.504   1.683  1.00  0.00     0.001 A 
HETATM   18  C   UNL     1      44.129 -21.785   1.901  1.00  0.00     0.000 A 
HETATM   19  C   UNL     1      44.628 -22.131   3.154  1.00  0.00     0.001 A 
HETATM   20  C   UNL     1      44.631 -21.192   4.191  1.00  0.00     0.014 A 
ENDBRANCH  13  15
ENDBRANCH   6   9
ENDBRANCH   2   5
BRANCH   1  21
HETATM   21  C   UNL     1      41.313 -11.512   6.315  1.00  0.00     0.125 C 
HETATM   22  N   UNL     1      41.104 -11.298   7.580  1.00  0.00    -0.164 NA
HETATM   23  N   UNL     1      40.865  -9.992   7.999  1.00  0.00    -0.200 N 
HETATM   24  C   UNL     1      40.719  -8.917   7.110  1.00  0.00     0.245 C 
HETATM   25  C   UNL     1      40.424  -9.335   5.694  1.00  0.00     0.111 C 
HETATM   26  O   UNL     1      40.779  -7.721   7.390  1.00  0.00    -0.271 OA
HETATM   27  C   UNL     1      41.368 -10.430   5.281  1.00  0.00     0.076 C 
BRANCH  23  28
HETATM   28  C   UNL     1      40.894  -9.819   9.423  1.00  0.00     0.068 A 
HETATM   29  C   UNL     1      42.137  -9.932  10.081  1.00  0.00     0.039 A 
HETATM   30  C   UNL     1      42.269  -9.713  11.460  1.00  0.00    -0.060 A 
HETATM   31  C   UNL     1      43.612  -9.768  12.124  1.00  0.00     0.048 C 
HETATM   32  C   UNL     1      41.139  -9.369  12.199  1.00  0.00     0.007 A 
HETATM   33  C   UNL     1      39.893  -9.298  11.578  1.00  0.00     0.009 A 
HETATM   34  C   UNL     1      39.747  -9.549  10.200  1.00  0.00    -0.033 A 
HETATM   35  C   UNL     1      38.337  -9.561   9.669  1.00  0.00     0.050 C 
ENDBRANCH  23  28
ENDBRANCH   1  21
TORSDOF 5
ENDMDL
MODEL 6
REMARK VINA RESULT:      -9.4      1.929      2.526
REMARK  5 active torsions:
REMARK  status: ('A' for Active; 'I' for Inactive)
REMARK    1  A    between atoms: C_4  and  N_5 
REMARK    2  A    between atoms: C_7  and  C_8 
REMARK       I    between atoms: C_8  and  N_9 
REMARK    3  A    between atoms: N_9  and  N_10 
REMARK       I    between atoms: N_10  and  C_11 
REMARK    4  A    between atoms: C_11  and  C_12 
REMARK    5  A    between atoms: C_16  and  C_17 
ROOT
HETATM    1  C   UNL     1      41.691 -13.632   5.678  1.00  0.00     0.286 C 
HETATM    2  N   UNL     1      40.597 -13.052   6.276  1.00  0.00    -0.262 N 
HETATM    3  O   UNL     1      42.852 -13.367   5.966  1.00  0.00    -0.264 OA
HETATM    4  H   UNL     1      39.634 -13.282   6.025  1.00  0.00     0.190 HD
ENDROOT
BRANCH   2   5
HETATM    5  N   UNL     1      40.838 -12.120   7.290  1.00  0.00    -0.262 N 
HETATM    6  C   UNL     1      40.111 -10.952   7.365  1.00  0.00     0.288 C 
HETATM    7  O   UNL     1      39.188 -10.697   6.596  1.00  0.00    -0.264 OA
HETATM    8  H   UNL     1      41.631 -12.313   7.894  1.00  0.00     0.190 HD
BRANCH   6   9
HETATM    9  C   UNL     1      40.521 -10.062   8.420  1.00  0.00     0.121 A 
HETATM   10  N   UNL     1      40.420  -8.704   8.313  1.00  0.00    -0.272 N 
HETATM   11  H   UNL     1      40.069  -8.177   7.518  1.00  0.00     0.189 HD
HETATM   12  N   UNL     1      40.830  -8.034   9.402  1.00  0.00    -0.174 NA
HETATM   13  C   UNL     1      41.242  -8.985  10.254  1.00  0.00     0.089 A 
HETATM   14  C   UNL     1      41.059 -10.271   9.675  1.00  0.00     0.071 A 
BRANCH  13  15
HETATM   15  C   UNL     1      41.779  -8.668  11.582  1.00  0.00    -0.006 A 
HETATM   16  C   UNL     1      41.289  -7.570  12.306  1.00  0.00     0.014 A 
HETATM   17  C   UNL     1      41.781  -7.276  13.581  1.00  0.00     0.001 A 
HETATM   18  C   UNL     1      42.775  -8.072  14.146  1.00  0.00     0.000 A 
HETATM   19  C   UNL     1      43.279  -9.160  13.438  1.00  0.00     0.001 A 
HETATM   20  C   UNL     1      42.785  -9.456  12.163  1.00  0.00     0.014 A 
ENDBRANCH  13  15
ENDBRANCH   6   9
ENDBRANCH   2   5
BRANCH   1  21
HETATM   21  C   UNL     1      41.384 -14.668   4.610  1.00  0.00     0.125 C 
HETATM   22  N   UNL     1      42.250 -15.607   4.367  1.00  0.00    -0.164 NA
HETATM   23  N   UNL     1      41.943 -16.552   3.393  1.00  0.00    -0.200 N 
HETATM   24  C   UNL     1      40.805 -16.471   2.577  1.00  0.00     0.245 C 
HETATM   25  C   UNL     1      40.179 -15.102   2.543  1.00  0.00     0.111 C 
HETATM   26  O   UNL     1      40.322 -17.376   1.899  1.00  0.00    -0.271 OA
HETATM   27  C   UNL     1      40.047 -14.569   3.944  1.00  0.00     0.076 C 
BRANCH  23  28
HETATM   28  C   UNL     1      42.831 -17.678   3.369  1.00  0.00     0.068 A 
HETATM   29  C   UNL     1      43.061 -18.371   4.577  1.00  0.00     0.039 A 
HETATM   30  C   UNL     1      43.861 -19.521   4.632  1.00  0.00    -0.060 A 
HETATM   31  C   UNL     1      44.031 -20.280   5.915  1.00  0.00     0.048 C 
HETATM   32  C   UNL     1      44.443 -19.995   3.459  1.00  0.00     0.007 A 
HETATM   33  C   UNL     1      44.269 -19.300   2.263  1.00  0.00     0.009 A 
HETATM   34  C   UNL     1      43.494 -18.126   2.205  1.00  0.00    -0.033 A 
HETATM   35  C   UNL     1      43.479 -17.399   0.885  1.00  0.00     0.050 C 
ENDBRANCH  23  28
ENDBRANCH   1  21
TORSDOF 5
ENDMDL
MODEL 7
REMARK VINA RESULT:      -9.4      2.432     10.711
REMARK  5 active torsions:
REMARK  status: ('A' for Active; 'I' for Inactive)
REMARK    1  A    between atoms: C_4  and  N_5 
REMARK    2  A    between atoms: C_7  and  C_8 
REMARK       I    between atoms: C_8  and  N_9 
REMARK    3  A    between atoms: N_9  and  N_10 
REMARK       I    between atoms: N_10  and  C_11 
REMARK    4  A    between atoms: C_11  and  C_12 
REMARK    5  A    between atoms: C_16  and  C_17 
ROOT
HETATM    1  C   UNL     1      40.766 -12.100   6.884  1.00  0.00     0.286 C 
HETATM    2  N   UNL     1      41.986 -12.699   6.669  1.00  0.00    -0.262 N 
HETATM    3  O   UNL     1      39.698 -12.555   6.493  1.00  0.00    -0.264 OA
HETATM    4  H   UNL     1      42.868 -12.307   7.001  1.00  0.00     0.190 HD
ENDROOT
BRANCH   2   5
HETATM    5  N   UNL     1      41.991 -13.915   5.981  1.00  0.00    -0.262 N 
HETATM    6  C   UNL     1      43.120 -14.703   5.944  1.00  0.00     0.288 C 
HETATM    7  O   UNL     1      44.148 -14.415   6.554  1.00  0.00    -0.264 OA
HETATM    8  H   UNL     1      41.156 -14.126   5.441  1.00  0.00     0.190 HD
BRANCH   6   9
HETATM    9  C   UNL     1      42.994 -15.890   5.139  1.00  0.00     0.121 A 
HETATM   10  N   UNL     1      41.933 -16.099   4.304  1.00  0.00    -0.272 N 
HETATM   11  H   UNL     1      41.139 -15.482   4.158  1.00  0.00     0.189 HD
HETATM   12  N   UNL     1      41.993 -17.249   3.615  1.00  0.00    -0.174 NA
HETATM   13  C   UNL     1      43.126 -17.838   4.029  1.00  0.00     0.089 A 
HETATM   14  C   UNL     1      43.784 -17.012   4.982  1.00  0.00     0.071 A 
BRANCH  13  15
HETATM   15  C   UNL     1      43.565 -19.140   3.516  1.00  0.00    -0.006 A 
HETATM   16  C   UNL     1      44.398 -19.967   4.286  1.00  0.00     0.014 A 
HETATM   17  C   UNL     1      44.801 -21.218   3.811  1.00  0.00     0.001 A 
HETATM   18  C   UNL     1      44.383 -21.656   2.556  1.00  0.00     0.000 A 
HETATM   19  C   UNL     1      43.564 -20.845   1.775  1.00  0.00     0.001 A 
HETATM   20  C   UNL     1      43.158 -19.594   2.251  1.00  0.00     0.014 A 
ENDBRANCH  13  15
ENDBRANCH   6   9
ENDBRANCH   2   5
BRANCH   1  21
HETATM   21  C   UNL     1      40.802 -10.801   7.671  1.00  0.00     0.125 C 
HETATM   22  N   UNL     1      41.185 -10.819   8.912  1.00  0.00    -0.164 NA
HETATM   23  N   UNL     1      41.221  -9.616   9.611  1.00  0.00    -0.200 N 
HETATM   24  C   UNL     1      40.748  -8.406   9.080  1.00  0.00     0.245 C 
HETATM   25  C   UNL     1      39.837  -8.579   7.894  1.00  0.00     0.111 C 
HETATM   26  O   UNL     1      40.984  -7.277   9.505  1.00  0.00    -0.271 OA
HETATM   27  C   UNL     1      40.446  -9.553   6.922  1.00  0.00     0.076 C 
BRANCH  23  28
HETATM   28  C   UNL     1      41.886  -9.694  10.880  1.00  0.00     0.068 A 
HETATM   29  C   UNL     1      41.188  -9.256  12.025  1.00  0.00     0.039 A 
HETATM   30  C   UNL     1      41.735  -9.357  13.312  1.00  0.00    -0.060 A 
HETATM   31  C   UNL     1      40.944  -8.950  14.520  1.00  0.00     0.048 C 
HETATM   32  C   UNL     1      43.004  -9.911  13.463  1.00  0.00     0.007 A 
HETATM   33  C   UNL     1      43.731 -10.308  12.342  1.00  0.00     0.009 A 
HETATM   34  C   UNL     1      43.202 -10.179  11.043  1.00  0.00    -0.033 A 
HETATM   35  C   UNL     1      44.128 -10.528   9.907  1.00  0.00     0.050 C 
ENDBRANCH  23  28
ENDBRANCH   1  21
TORSDOF 5
ENDMDL
MODEL 8
REMARK VINA RESULT:      -9.2      5.586      9.154
REMARK  5 active torsions:
REMARK  status: ('A' for Active; 'I' for Inactive)
REMARK    1  A    between atoms: C_4  and  N_5 
REMARK    2  A    between atoms: C_7  and  C_8 
REMARK       I    between atoms: C_8  and  N_9 
REMARK    3  A    between atoms: N_9  and  N_10 
REMARK       I    between atoms: N_10  and  C_11 
REMARK    4  A    between atoms: C_11  and  C_12 
REMARK    5  A    between atoms: C_16  and  C_17 
ROOT
HETATM    1  C   UNL     1      41.626 -15.788   4.025  1.00  0.00     0.286 C 
HETATM    2  N   UNL     1      41.870 -15.540   2.694  1.00  0.00    -0.262 N 
HETATM    3  O   UNL     1      40.585 -15.493   4.600  1.00  0.00    -0.264 OA
HETATM    4  H   UNL     1      42.743 -15.792   2.228  1.00  0.00     0.190 HD
ENDROOT
BRANCH   2   5
HETATM    5  N   UNL     1      40.849 -14.932   1.957  1.00  0.00    -0.262 N 
HETATM    6  C   UNL     1      40.784 -15.074   0.588  1.00  0.00     0.288 C 
HETATM    7  O   UNL     1      41.568 -15.779  -0.042  1.00  0.00    -0.264 OA
HETATM    8  H   UNL     1      40.231 -14.314   2.475  1.00  0.00     0.190 HD
BRANCH   6   9
HETATM    9  C   UNL     1      39.719 -14.333  -0.038  1.00  0.00     0.121 A 
HETATM   10  N   UNL     1      39.409 -14.474  -1.361  1.00  0.00    -0.272 N 
HETATM   11  H   UNL     1      39.866 -15.079  -2.036  1.00  0.00     0.189 HD
HETATM   12  N   UNL     1      38.374 -13.720  -1.766  1.00  0.00    -0.174 NA
HETATM   13  C   UNL     1      38.002 -13.034  -0.674  1.00  0.00     0.089 A 
HETATM   14  C   UNL     1      38.820 -13.396   0.431  1.00  0.00     0.071 A 
BRANCH  13  15
HETATM   15  C   UNL     1      36.890 -12.076  -0.692  1.00  0.00    -0.006 A 
HETATM   16  C   UNL     1      36.216 -11.745   0.493  1.00  0.00     0.014 A 
HETATM   17  C   UNL     1      35.171 -10.816   0.486  1.00  0.00     0.001 A 
HETATM   18  C   UNL     1      34.782 -10.213  -0.708  1.00  0.00     0.000 A 
HETATM   19  C   UNL     1      35.434 -10.537  -1.895  1.00  0.00     0.001 A 
HETATM   20  C   UNL     1      36.482 -11.464  -1.887  1.00  0.00     0.014 A 
ENDBRANCH  13  15
ENDBRANCH   6   9
ENDBRANCH   2   5
BRANCH   1  21
HETATM   21  C   UNL     1      42.745 -16.487   4.779  1.00  0.00     0.125 C 
HETATM   22  N   UNL     1      42.859 -17.778   4.695  1.00  0.00    -0.164 NA
HETATM   23  N   UNL     1      43.898 -18.396   5.384  1.00  0.00    -0.200 N 
HETATM   24  C   UNL     1      44.752 -17.709   6.261  1.00  0.00     0.245 C 
HETATM   25  C   UNL     1      44.213 -16.379   6.715  1.00  0.00     0.111 C 
HETATM   26  O   UNL     1      45.835 -18.103   6.689  1.00  0.00    -0.271 OA
HETATM   27  C   UNL     1      43.697 -15.608   5.530  1.00  0.00     0.076 C 
BRANCH  23  28
HETATM   28  C   UNL     1      44.095 -19.774   5.037  1.00  0.00     0.068 A 
HETATM   29  C   UNL     1      44.275 -20.097   3.675  1.00  0.00     0.039 A 
HETATM   30  C   UNL     1      44.539 -21.409   3.253  1.00  0.00    -0.060 A 
HETATM   31  C   UNL     1      44.798 -21.714   1.807  1.00  0.00     0.048 C 
HETATM   32  C   UNL     1      44.629 -22.419   4.207  1.00  0.00     0.007 A 
HETATM   33  C   UNL     1      44.409 -22.131   5.553  1.00  0.00     0.009 A 
HETATM   34  C   UNL     1      44.110 -20.823   5.982  1.00  0.00    -0.033 A 
HETATM   35  C   UNL     1      43.772 -20.659   7.441  1.00  0.00     0.050 C 
ENDBRANCH  23  28
ENDBRANCH   1  21
TORSDOF 5
ENDMDL
MODEL 9
REMARK VINA RESULT:      -9.1      5.637     11.402
REMARK  5 active torsions:
REMARK  status: ('A' for Active; 'I' for Inactive)
REMARK    1  A    between atoms: C_4  and  N_5 
REMARK    2  A    between atoms: C_7  and  C_8 
REMARK       I    between atoms: C_8  and  N_9 
REMARK    3  A    between atoms: N_9  and  N_10 
REMARK       I    between atoms: N_10  and  C_11 
REMARK    4  A    between atoms: C_11  and  C_12 
REMARK    5  A    between atoms: C_16  and  C_17 
ROOT
HETATM    1  C   UNL     1      39.848 -15.228   1.694  1.00  0.00     0.286 C 
HETATM    2  N   UNL     1      40.276 -14.841   0.445  1.00  0.00    -0.262 N 
HETATM    3  O   UNL     1      38.682 -15.477   1.975  1.00  0.00    -0.264 OA
HETATM    4  H   UNL     1      41.252 -14.635   0.227  1.00  0.00     0.190 HD
ENDROOT
BRANCH   2   5
HETATM    5  N   UNL     1      39.313 -14.753  -0.564  1.00  0.00    -0.262 N 
HETATM    6  C   UNL     1      39.674 -14.476  -1.864  1.00  0.00     0.288 C 
HETATM    7  O   UNL     1      40.845 -14.353  -2.214  1.00  0.00    -0.264 OA
HETATM    8  H   UNL     1      38.344 -14.809  -0.263  1.00  0.00     0.190 HD
BRANCH   6   9
HETATM    9  C   UNL     1      38.567 -14.348  -2.776  1.00  0.00     0.121 A 
HETATM   10  N   UNL     1      38.005 -15.425  -3.402  1.00  0.00    -0.272 N 
HETATM   11  H   UNL     1      38.284 -16.397  -3.315  1.00  0.00     0.189 HD
HETATM   12  N   UNL     1      36.969 -15.119  -4.200  1.00  0.00    -0.174 NA
HETATM   13  C   UNL     1      36.857 -13.784  -4.119  1.00  0.00     0.089 A 
HETATM   14  C   UNL     1      37.840 -13.265  -3.231  1.00  0.00     0.071 A 
BRANCH  13  15
HETATM   15  C   UNL     1      35.833 -13.038  -4.858  1.00  0.00    -0.006 A 
HETATM   16  C   UNL     1      35.437 -13.449  -6.140  1.00  0.00     0.014 A 
HETATM   17  C   UNL     1      34.445 -12.755  -6.839  1.00  0.00     0.001 A 
HETATM   18  C   UNL     1      33.842 -11.636  -6.269  1.00  0.00     0.000 A 
HETATM   19  C   UNL     1      34.229 -11.209  -5.001  1.00  0.00     0.001 A 
HETATM   20  C   UNL     1      35.219 -11.905  -4.300  1.00  0.00     0.014 A 
ENDBRANCH  13  15
ENDBRANCH   6   9
ENDBRANCH   2   5
BRANCH   1  21
HETATM   21  C   UNL     1      40.932 -15.350   2.752  1.00  0.00     0.125 C 
HETATM   22  N   UNL     1      41.510 -16.498   2.941  1.00  0.00    -0.164 NA
HETATM   23  N   UNL     1      42.509 -16.585   3.906  1.00  0.00    -0.200 N 
HETATM   24  C   UNL     1      42.836 -15.526   4.768  1.00  0.00     0.245 C 
HETATM   25  C   UNL     1      41.773 -14.463   4.855  1.00  0.00     0.111 C 
HETATM   26  O   UNL     1      43.857 -15.421   5.445  1.00  0.00    -0.271 OA
HETATM   27  C   UNL     1      41.311 -14.092   3.472  1.00  0.00     0.076 C 
BRANCH  23  28
HETATM   28  C   UNL     1      43.253 -17.810   3.872  1.00  0.00     0.068 A 
HETATM   29  C   UNL     1      43.325 -18.577   5.055  1.00  0.00     0.039 A 
HETATM   30  C   UNL     1      43.975 -19.820   5.094  1.00  0.00    -0.060 A 
HETATM   31  C   UNL     1      43.976 -20.649   6.344  1.00  0.00     0.048 C 
HETATM   32  C   UNL     1      44.562 -20.311   3.930  1.00  0.00     0.007 A 
HETATM   33  C   UNL     1      44.543 -19.549   2.763  1.00  0.00     0.009 A 
HETATM   34  C   UNL     1      43.922 -18.286   2.723  1.00  0.00    -0.033 A 
HETATM   35  C   UNL     1      44.073 -17.507   1.443  1.00  0.00     0.050 C 
ENDBRANCH  23  28
ENDBRANCH   1  21
TORSDOF 5
ENDMDL
MODEL 10
REMARK VINA RESULT:      -8.9      5.618      9.981
REMARK  5 active torsions:
REMARK  status: ('A' for Active; 'I' for Inactive)
REMARK    1  A    between atoms: C_4  and  N_5 
REMARK    2  A    between atoms: C_7  and  C_8 
REMARK       I    between atoms: C_8  and  N_9 
REMARK    3  A    between atoms: N_9  and  N_10 
REMARK       I    between atoms: N_10  and  C_11 
REMARK    4  A    between atoms: C_11  and  C_12 
REMARK    5  A    between atoms: C_16  and  C_17 
ROOT
HETATM    1  C   UNL     1      41.806 -15.802   3.333  1.00  0.00     0.286 C 
HETATM    2  N   UNL     1      42.270 -15.558   2.061  1.00  0.00    -0.262 N 
HETATM    3  O   UNL     1      40.667 -15.551   3.710  1.00  0.00    -0.264 OA
HETATM    4  H   UNL     1      43.222 -15.772   1.762  1.00  0.00     0.190 HD
ENDROOT
BRANCH   2   5
HETATM    5  N   UNL     1      41.369 -15.010   1.144  1.00  0.00    -0.262 N 
HETATM    6  C   UNL     1      41.461 -13.689   0.764  1.00  0.00     0.288 C 
HETATM    7  O   UNL     1      42.360 -12.949   1.157  1.00  0.00    -0.264 OA
HETATM    8  H   UNL     1      40.601 -15.611   0.858  1.00  0.00     0.190 HD
BRANCH   6   9
HETATM    9  C   UNL     1      40.422 -13.252  -0.133  1.00  0.00     0.121 A 
HETATM   10  N   UNL     1      39.968 -11.964  -0.155  1.00  0.00    -0.272 N 
HETATM   11  H   UNL     1      40.282 -11.194   0.429  1.00  0.00     0.189 HD
HETATM   12  N   UNL     1      39.012 -11.733  -1.069  1.00  0.00    -0.174 NA
HETATM   13  C   UNL     1      38.807 -12.922  -1.657  1.00  0.00     0.089 A 
HETATM   14  C   UNL     1      39.678 -13.899  -1.100  1.00  0.00     0.071 A 
BRANCH  13  15
HETATM   15  C   UNL     1      37.820 -13.107  -2.727  1.00  0.00    -0.006 A 
HETATM   16  C   UNL     1      37.101 -12.012  -3.231  1.00  0.00     0.014 A 
HETATM   17  C   UNL     1      36.176 -12.179  -4.265  1.00  0.00     0.001 A 
HETATM   18  C   UNL     1      35.953 -13.444  -4.805  1.00  0.00     0.000 A 
HETATM   19  C   UNL     1      36.651 -14.542  -4.311  1.00  0.00     0.001 A 
HETATM   20  C   UNL     1      37.579 -14.376  -3.278  1.00  0.00     0.014 A 
ENDBRANCH  13  15
ENDBRANCH   6   9
ENDBRANCH   2   5
BRANCH   1  21
HETATM   21  C   UNL     1      42.805 -16.435   4.287  1.00  0.00     0.125 C 
HETATM   22  N   UNL     1      42.919 -17.729   4.323  1.00  0.00    -0.164 NA
HETATM   23  N   UNL     1      43.848 -18.287   5.195  1.00  0.00    -0.200 N 
HETATM   24  C   UNL     1      44.579 -17.530   6.123  1.00  0.00     0.245 C 
HETATM   25  C   UNL     1      43.995 -16.169   6.391  1.00  0.00     0.111 C 
HETATM   26  O   UNL     1      45.590 -17.886   6.726  1.00  0.00    -0.271 OA
HETATM   27  C   UNL     1      43.653 -15.497   5.089  1.00  0.00     0.076 C 
BRANCH  23  28
HETATM   28  C   UNL     1      44.078 -19.688   4.989  1.00  0.00     0.068 A 
HETATM   29  C   UNL     1      44.292 -20.139   3.669  1.00  0.00     0.039 A 
HETATM   30  C   UNL     1      44.590 -21.480   3.382  1.00  0.00    -0.060 A 
HETATM   31  C   UNL     1      44.883 -21.920   1.979  1.00  0.00     0.048 C 
HETATM   32  C   UNL     1      44.681 -22.389   4.433  1.00  0.00     0.007 A 
HETATM   33  C   UNL     1      44.428 -21.975   5.740  1.00  0.00     0.009 A 
HETATM   34  C   UNL     1      44.095 -20.638   6.033  1.00  0.00    -0.033 A 
HETATM   35  C   UNL     1      43.726 -20.339   7.462  1.00  0.00     0.050 C 
ENDBRANCH  23  28
ENDBRANCH   1  21
TORSDOF 5
ENDMDL
