MODEL 1
REMARK VINA RESULT:      -7.6      0.000      0.000
REMARK  8 active torsions:
REMARK  status: ('A' for Active; 'I' for Inactive)
REMARK    1  A    between atoms: N_4  and  C_5 
REMARK    2  A    between atoms: C_5  and  C_6 
REMARK    3  A    between atoms: C_6  and  C_7 
REMARK       I    between atoms: C_7  and  N_8 
REMARK    4  A    between atoms: N_8  and  N_9 
REMARK    5  A    between atoms: N_9  and  C_10 
REMARK    6  A    between atoms: C_10  and  N_11 
REMARK    7  A    between atoms: N_11  and  C_12 
REMARK    8  A    between atoms: C_13  and  O_14 
ROOT
HETATM    1  C   UNL     1      41.801 -16.810   0.931  1.00  0.00     0.237 C 
HETATM    2  N   UNL     1      41.005 -16.986   2.044  1.00  0.00    -0.268 N 
HETATM    3  O   UNL     1      41.355 -16.461  -0.159  1.00  0.00    -0.272 OA
HETATM    4  H   UNL     1      41.393 -17.055   2.984  1.00  0.00     0.190 HD
ENDROOT
BRANCH   2   5
HETATM    5  N   UNL     1      39.660 -16.584   1.954  1.00  0.00    -0.274 N 
HETATM    6  H   UNL     1      39.131 -17.091   1.243  1.00  0.00     0.189 HD
BRANCH   5   7
HETATM    7  C   UNL     1      39.295 -15.262   2.229  1.00  0.00     0.191 C 
HETATM    8  S   UNL     1      38.416 -14.335   1.142  1.00  0.00    -0.039 SA
BRANCH   7   9
HETATM    9  N   UNL     1      39.825 -14.878   3.448  1.00  0.00    -0.330 N 
HETATM   10  H   UNL     1      39.176 -14.932   4.228  1.00  0.00     0.168 HD
BRANCH   9  11
HETATM   11  C   UNL     1      41.141 -14.590   3.886  1.00  0.00     0.068 A 
HETATM   12  C   UNL     1      41.501 -15.099   5.156  1.00  0.00     0.095 A 
HETATM   13  C   UNL     1      42.772 -14.841   5.679  1.00  0.00     0.039 A 
HETATM   14  C   UNL     1      43.684 -14.074   4.953  1.00  0.00     0.003 A 
HETATM   15  C   UNL     1      43.325 -13.554   3.712  1.00  0.00     0.002 A 
HETATM   16  C   UNL     1      42.056 -13.805   3.184  1.00  0.00     0.032 A 
BRANCH  12  17
HETATM   17  O   UNL     1      40.523 -15.832   5.795  1.00  0.00    -0.354 OA
HETATM   18  C   UNL     1      40.937 -17.021   6.457  1.00  0.00     0.210 C 
ENDBRANCH  12  17
ENDBRANCH   9  11
ENDBRANCH   7   9
ENDBRANCH   5   7
ENDBRANCH   2   5
BRANCH   1  19
HETATM   19  C   UNL     1      43.263 -17.057   1.200  1.00  0.00     0.126 C 
BRANCH  19  20
HETATM   20  C   UNL     1      43.499 -17.292   2.685  1.00  0.00     0.160 C 
BRANCH  20  21
HETATM   21  N   UNL     1      43.842 -18.677   2.960  1.00  0.00    -0.272 N 
HETATM   22  N   UNL     1      43.750 -19.566   1.949  1.00  0.00    -0.176 NA
HETATM   23  C   UNL     1      44.123 -20.730   2.497  1.00  0.00     0.070 A 
HETATM   24  C   UNL     1      44.156 -21.963   1.674  1.00  0.00     0.074 C 
HETATM   25  C   UNL     1      44.446 -20.564   3.857  1.00  0.00     0.060 A 
HETATM   26  C   UNL     1      44.252 -19.233   4.146  1.00  0.00     0.046 A 
HETATM   27 BR   UNL     1      45.029 -21.924   5.006  1.00  0.00    -0.047 Br
HETATM   28  C   UNL     1      44.425 -18.462   5.402  1.00  0.00     0.071 C 
ENDBRANCH  20  21
ENDBRANCH  19  20
ENDBRANCH   1  19
TORSDOF 8
ENDMDL
MODEL 2
REMARK VINA RESULT:      -7.5      3.717      4.754
REMARK  8 active torsions:
REMARK  status: ('A' for Active; 'I' for Inactive)
REMARK    1  A    between atoms: N_4  and  C_5 
REMARK    2  A    between atoms: C_5  and  C_6 
REMARK    3  A    between atoms: C_6  and  C_7 
REMARK       I    between atoms: C_7  and  N_8 
REMARK    4  A    between atoms: N_8  and  N_9 
REMARK    5  A    between atoms: N_9  and  C_10 
REMARK    6  A    between atoms: C_10  and  N_11 
REMARK    7  A    between atoms: N_11  and  C_12 
REMARK    8  A    between atoms: C_13  and  O_14 
ROOT
HETATM    1  C   UNL     1      42.097 -16.738   0.740  1.00  0.00     0.237 C 
HETATM    2  N   UNL     1      42.067 -15.652  -0.111  1.00  0.00    -0.268 N 
HETATM    3  O   UNL     1      41.099 -17.404   1.007  1.00  0.00    -0.272 OA
HETATM    4  H   UNL     1      42.915 -15.244  -0.502  1.00  0.00     0.190 HD
ENDROOT
BRANCH   2   5
HETATM    5  N   UNL     1      40.876 -15.414  -0.822  1.00  0.00    -0.274 N 
HETATM    6  H   UNL     1      40.144 -16.098  -0.629  1.00  0.00     0.189 HD
BRANCH   5   7
HETATM    7  C   UNL     1      40.913 -14.829  -2.092  1.00  0.00     0.191 C 
HETATM    8  S   UNL     1      39.719 -15.106  -3.236  1.00  0.00    -0.039 SA
BRANCH   7   9
HETATM    9  N   UNL     1      42.077 -14.093  -2.230  1.00  0.00    -0.330 N 
HETATM   10  H   UNL     1      42.923 -14.650  -2.319  1.00  0.00     0.168 HD
BRANCH   9  11
HETATM   11  C   UNL     1      42.335 -12.718  -2.455  1.00  0.00     0.068 A 
HETATM   12  C   UNL     1      42.612 -11.939  -1.306  1.00  0.00     0.095 A 
HETATM   13  C   UNL     1      42.853 -10.568  -1.432  1.00  0.00     0.039 A 
HETATM   14  C   UNL     1      42.811  -9.964  -2.689  1.00  0.00     0.003 A 
HETATM   15  C   UNL     1      42.518 -10.723  -3.818  1.00  0.00     0.002 A 
HETATM   16  C   UNL     1      42.273 -12.094  -3.701  1.00  0.00     0.032 A 
BRANCH  12  17
HETATM   17  O   UNL     1      42.615 -12.631  -0.114  1.00  0.00    -0.354 OA
HETATM   18  C   UNL     1      41.741 -12.163   0.907  1.00  0.00     0.210 C 
ENDBRANCH  12  17
ENDBRANCH   9  11
ENDBRANCH   7   9
ENDBRANCH   5   7
ENDBRANCH   2   5
BRANCH   1  19
HETATM   19  C   UNL     1      43.473 -17.036   1.275  1.00  0.00     0.126 C 
BRANCH  19  20
HETATM   20  C   UNL     1      43.407 -17.381   2.756  1.00  0.00     0.160 C 
BRANCH  20  21
HETATM   21  N   UNL     1      43.786 -18.762   3.001  1.00  0.00    -0.272 N 
HETATM   22  N   UNL     1      43.715 -19.632   1.973  1.00  0.00    -0.176 NA
HETATM   23  C   UNL     1      44.120 -20.797   2.496  1.00  0.00     0.070 A 
HETATM   24  C   UNL     1      44.182 -22.012   1.648  1.00  0.00     0.074 C 
HETATM   25  C   UNL     1      44.442 -20.650   3.858  1.00  0.00     0.060 A 
HETATM   26  C   UNL     1      44.214 -19.331   4.175  1.00  0.00     0.046 A 
HETATM   27 BR   UNL     1      45.063 -22.018   4.978  1.00  0.00    -0.047 Br
HETATM   28  C   UNL     1      44.370 -18.582   5.446  1.00  0.00     0.071 C 
ENDBRANCH  20  21
ENDBRANCH  19  20
ENDBRANCH   1  19
TORSDOF 8
ENDMDL
MODEL 3
REMARK VINA RESULT:      -7.4      2.272      4.095
REMARK  8 active torsions:
REMARK  status: ('A' for Active; 'I' for Inactive)
REMARK    1  A    between atoms: N_4  and  C_5 
REMARK    2  A    between atoms: C_5  and  C_6 
REMARK    3  A    between atoms: C_6  and  C_7 
REMARK       I    between atoms: C_7  and  N_8 
REMARK    4  A    between atoms: N_8  and  N_9 
REMARK    5  A    between atoms: N_9  and  C_10 
REMARK    6  A    between atoms: C_10  and  N_11 
REMARK    7  A    between atoms: N_11  and  C_12 
REMARK    8  A    between atoms: C_13  and  O_14 
ROOT
HETATM    1  C   UNL     1      43.037 -16.683   6.938  1.00  0.00     0.237 C 
HETATM    2  N   UNL     1      41.986 -16.262   6.148  1.00  0.00    -0.268 N 
HETATM    3  O   UNL     1      43.698 -15.915   7.632  1.00  0.00    -0.272 OA
HETATM    4  H   UNL     1      41.307 -16.912   5.755  1.00  0.00     0.190 HD
ENDROOT
BRANCH   2   5
HETATM    5  N   UNL     1      41.563 -14.927   6.285  1.00  0.00    -0.274 N 
HETATM    6  H   UNL     1      41.702 -14.550   7.223  1.00  0.00     0.189 HD
BRANCH   5   7
HETATM    7  C   UNL     1      40.487 -14.443   5.533  1.00  0.00     0.191 C 
HETATM    8  S   UNL     1      39.586 -13.115   6.019  1.00  0.00    -0.039 SA
BRANCH   7   9
HETATM    9  N   UNL     1      40.284 -15.260   4.434  1.00  0.00    -0.330 N 
HETATM   10  H   UNL     1      39.888 -16.171   4.651  1.00  0.00     0.168 HD
BRANCH   9  11
HETATM   11  C   UNL     1      40.343 -15.037   3.037  1.00  0.00     0.068 A 
HETATM   12  C   UNL     1      41.637 -14.978   2.468  1.00  0.00     0.095 A 
HETATM   13  C   UNL     1      41.790 -14.737   1.100  1.00  0.00     0.039 A 
HETATM   14  C   UNL     1      40.667 -14.545   0.294  1.00  0.00     0.003 A 
HETATM   15  C   UNL     1      39.394 -14.582   0.854  1.00  0.00     0.002 A 
HETATM   16  C   UNL     1      39.232 -14.820   2.222  1.00  0.00     0.032 A 
BRANCH  12  17
HETATM   17  O   UNL     1      42.677 -15.167   3.354  1.00  0.00    -0.354 OA
HETATM   18  C   UNL     1      43.650 -14.132   3.436  1.00  0.00     0.210 C 
ENDBRANCH  12  17
ENDBRANCH   9  11
ENDBRANCH   7   9
ENDBRANCH   5   7
ENDBRANCH   2   5
BRANCH   1  19
HETATM   19  C   UNL     1      43.262 -18.172   6.883  1.00  0.00     0.126 C 
BRANCH  19  20
HETATM   20  C   UNL     1      44.582 -18.486   6.195  1.00  0.00     0.160 C 
BRANCH  20  21
HETATM   21  N   UNL     1      44.375 -18.993   4.848  1.00  0.00    -0.272 N 
HETATM   22  N   UNL     1      44.058 -18.111   3.879  1.00  0.00    -0.176 NA
HETATM   23  C   UNL     1      43.936 -18.859   2.775  1.00  0.00     0.070 A 
HETATM   24  C   UNL     1      43.594 -18.225   1.480  1.00  0.00     0.074 C 
HETATM   25  C   UNL     1      44.176 -20.217   3.061  1.00  0.00     0.060 A 
HETATM   26  C   UNL     1      44.451 -20.291   4.407  1.00  0.00     0.046 A 
HETATM   27 BR   UNL     1      44.124 -21.612   1.812  1.00  0.00    -0.047 Br
HETATM   28  C   UNL     1      44.779 -21.442   5.283  1.00  0.00     0.071 C 
ENDBRANCH  20  21
ENDBRANCH  19  20
ENDBRANCH   1  19
TORSDOF 8
ENDMDL
MODEL 4
REMARK VINA RESULT:      -7.3      2.388      3.989
REMARK  8 active torsions:
REMARK  status: ('A' for Active; 'I' for Inactive)
REMARK    1  A    between atoms: N_4  and  C_5 
REMARK    2  A    between atoms: C_5  and  C_6 
REMARK    3  A    between atoms: C_6  and  C_7 
REMARK       I    between atoms: C_7  and  N_8 
REMARK    4  A    between atoms: N_8  and  N_9 
REMARK    5  A    between atoms: N_9  and  C_10 
REMARK    6  A    between atoms: C_10  and  N_11 
REMARK    7  A    between atoms: N_11  and  C_12 
REMARK    8  A    between atoms: C_13  and  O_14 
ROOT
HETATM    1  C   UNL     1      41.650 -17.349   5.740  1.00  0.00     0.237 C 
HETATM    2  N   UNL     1      41.108 -16.257   6.386  1.00  0.00    -0.268 N 
HETATM    3  O   UNL     1      41.100 -17.903   4.791  1.00  0.00    -0.272 OA
HETATM    4  H   UNL     1      41.656 -15.669   7.014  1.00  0.00     0.190 HD
ENDROOT
BRANCH   2   5
HETATM    5  N   UNL     1      39.965 -15.665   5.819  1.00  0.00    -0.274 N 
HETATM    6  H   UNL     1      39.227 -16.335   5.600  1.00  0.00     0.189 HD
BRANCH   5   7
HETATM    7  C   UNL     1      40.080 -14.525   5.017  1.00  0.00     0.191 C 
HETATM    8  S   UNL     1      40.582 -13.049   5.633  1.00  0.00    -0.039 SA
BRANCH   7   9
HETATM    9  N   UNL     1      39.660 -14.818   3.731  1.00  0.00    -0.330 N 
HETATM   10  H   UNL     1      38.651 -14.869   3.617  1.00  0.00     0.168 HD
BRANCH   9  11
HETATM   11  C   UNL     1      40.329 -14.889   2.485  1.00  0.00     0.068 A 
HETATM   12  C   UNL     1      39.643 -14.338   1.376  1.00  0.00     0.095 A 
HETATM   13  C   UNL     1      40.218 -14.387   0.103  1.00  0.00     0.039 A 
HETATM   14  C   UNL     1      41.464 -14.988  -0.079  1.00  0.00     0.003 A 
HETATM   15  C   UNL     1      42.131 -15.550   1.006  1.00  0.00     0.002 A 
HETATM   16  C   UNL     1      41.562 -15.507   2.281  1.00  0.00     0.032 A 
BRANCH  12  17
HETATM   17  O   UNL     1      38.415 -13.782   1.662  1.00  0.00    -0.354 OA
HETATM   18  C   UNL     1      37.349 -14.072   0.764  1.00  0.00     0.210 C 
ENDBRANCH  12  17
ENDBRANCH   9  11
ENDBRANCH   7   9
ENDBRANCH   5   7
ENDBRANCH   2   5
BRANCH   1  19
HETATM   19  C   UNL     1      42.989 -17.764   6.293  1.00  0.00     0.126 C 
BRANCH  19  20
HETATM   20  C   UNL     1      44.048 -17.738   5.201  1.00  0.00     0.160 C 
BRANCH  20  21
HETATM   21  N   UNL     1      44.258 -19.057   4.628  1.00  0.00    -0.272 N 
HETATM   22  N   UNL     1      44.654 -20.050   5.449  1.00  0.00    -0.176 NA
HETATM   23  C   UNL     1      44.758 -21.120   4.650  1.00  0.00     0.070 A 
HETATM   24  C   UNL     1      45.173 -22.429   5.209  1.00  0.00     0.074 C 
HETATM   25  C   UNL     1      44.427 -20.788   3.323  1.00  0.00     0.060 A 
HETATM   26  C   UNL     1      44.113 -19.449   3.320  1.00  0.00     0.046 A 
HETATM   27 BR   UNL     1      44.425 -21.980   1.877  1.00  0.00    -0.047 Br
HETATM   28  C   UNL     1      43.692 -18.538   2.228  1.00  0.00     0.071 C 
ENDBRANCH  20  21
ENDBRANCH  19  20
ENDBRANCH   1  19
TORSDOF 8
ENDMDL
MODEL 5
REMARK VINA RESULT:      -7.3      5.582      6.703
REMARK  8 active torsions:
REMARK  status: ('A' for Active; 'I' for Inactive)
REMARK    1  A    between atoms: N_4  and  C_5 
REMARK    2  A    between atoms: C_5  and  C_6 
REMARK    3  A    between atoms: C_6  and  C_7 
REMARK       I    between atoms: C_7  and  N_8 
REMARK    4  A    between atoms: N_8  and  N_9 
REMARK    5  A    between atoms: N_9  and  C_10 
REMARK    6  A    between atoms: C_10  and  N_11 
REMARK    7  A    between atoms: N_11  and  C_12 
REMARK    8  A    between atoms: C_13  and  O_14 
ROOT
HETATM    1  C   UNL     1      44.218 -14.796   6.564  1.00  0.00     0.237 C 
HETATM    2  N   UNL     1      43.985 -14.302   7.832  1.00  0.00    -0.268 N 
HETATM    3  O   UNL     1      44.173 -14.094   5.557  1.00  0.00    -0.272 OA
HETATM    4  H   UNL     1      44.236 -14.821   8.672  1.00  0.00     0.190 HD
ENDROOT
BRANCH   2   5
HETATM    5  N   UNL     1      43.859 -12.908   7.975  1.00  0.00    -0.274 N 
HETATM    6  H   UNL     1      43.748 -12.417   7.087  1.00  0.00     0.189 HD
BRANCH   5   7
HETATM    7  C   UNL     1      44.504 -12.241   9.022  1.00  0.00     0.191 C 
HETATM    8  S   UNL     1      46.102 -11.746   8.911  1.00  0.00    -0.039 SA
BRANCH   7   9
HETATM    9  N   UNL     1      43.651 -12.146  10.107  1.00  0.00    -0.330 N 
HETATM   10  H   UNL     1      43.366 -13.039  10.501  1.00  0.00     0.168 HD
BRANCH   9  11
HETATM   11  C   UNL     1      43.222 -11.061  10.911  1.00  0.00     0.068 A 
HETATM   12  C   UNL     1      42.154 -10.288  10.397  1.00  0.00     0.095 A 
HETATM   13  C   UNL     1      41.682  -9.184  11.112  1.00  0.00     0.039 A 
HETATM   14  C   UNL     1      42.270  -8.836  12.328  1.00  0.00     0.003 A 
HETATM   15  C   UNL     1      43.335  -9.581  12.826  1.00  0.00     0.002 A 
HETATM   16  C   UNL     1      43.814 -10.686  12.117  1.00  0.00     0.032 A 
BRANCH  12  17
HETATM   17  O   UNL     1      41.655 -10.710   9.183  1.00  0.00    -0.354 OA
HETATM   18  C   UNL     1      41.702  -9.778   8.108  1.00  0.00     0.210 C 
ENDBRANCH  12  17
ENDBRANCH   9  11
ENDBRANCH   7   9
ENDBRANCH   5   7
ENDBRANCH   2   5
BRANCH   1  19
HETATM   19  C   UNL     1      44.561 -16.263   6.552  1.00  0.00     0.126 C 
BRANCH  19  20
HETATM   20  C   UNL     1      43.352 -17.090   6.139  1.00  0.00     0.160 C 
BRANCH  20  21
HETATM   21  N   UNL     1      43.612 -17.848   4.927  1.00  0.00    -0.272 N 
HETATM   22  N   UNL     1      43.541 -17.201   3.745  1.00  0.00    -0.176 NA
HETATM   23  C   UNL     1      43.825 -18.141   2.834  1.00  0.00     0.070 A 
HETATM   24  C   UNL     1      43.849 -17.797   1.393  1.00  0.00     0.074 C 
HETATM   25  C   UNL     1      44.071 -19.381   3.453  1.00  0.00     0.060 A 
HETATM   26  C   UNL     1      43.922 -19.180   4.807  1.00  0.00     0.046 A 
HETATM   27 BR   UNL     1      44.518 -20.967   2.562  1.00  0.00    -0.047 Br
HETATM   28  C   UNL     1      44.055 -20.104   5.960  1.00  0.00     0.071 C 
ENDBRANCH  20  21
ENDBRANCH  19  20
ENDBRANCH   1  19
TORSDOF 8
ENDMDL
MODEL 6
REMARK VINA RESULT:      -7.2      1.432      2.052
REMARK  8 active torsions:
REMARK  status: ('A' for Active; 'I' for Inactive)
REMARK    1  A    between atoms: N_4  and  C_5 
REMARK    2  A    between atoms: C_5  and  C_6 
REMARK    3  A    between atoms: C_6  and  C_7 
REMARK       I    between atoms: C_7  and  N_8 
REMARK    4  A    between atoms: N_8  and  N_9 
REMARK    5  A    between atoms: N_9  and  C_10 
REMARK    6  A    between atoms: C_10  and  N_11 
REMARK    7  A    between atoms: N_11  and  C_12 
REMARK    8  A    between atoms: C_13  and  O_14 
ROOT
HETATM    1  C   UNL     1      41.910 -16.834   0.897  1.00  0.00     0.237 C 
HETATM    2  N   UNL     1      41.097 -16.998   2.001  1.00  0.00    -0.268 N 
HETATM    3  O   UNL     1      41.482 -16.475  -0.198  1.00  0.00    -0.272 OA
HETATM    4  H   UNL     1      41.473 -17.076   2.945  1.00  0.00     0.190 HD
ENDROOT
BRANCH   2   5
HETATM    5  N   UNL     1      39.761 -16.571   1.895  1.00  0.00    -0.274 N 
HETATM    6  H   UNL     1      39.276 -16.950   1.081  1.00  0.00     0.189 HD
BRANCH   5   7
HETATM    7  C   UNL     1      39.381 -15.308   2.360  1.00  0.00     0.191 C 
HETATM    8  S   UNL     1      38.642 -14.178   1.365  1.00  0.00    -0.039 SA
BRANCH   7   9
HETATM    9  N   UNL     1      39.772 -15.161   3.679  1.00  0.00    -0.330 N 
HETATM   10  H   UNL     1      39.942 -16.035   4.170  1.00  0.00     0.168 HD
BRANCH   9  11
HETATM   11  C   UNL     1      40.163 -14.043   4.456  1.00  0.00     0.068 A 
HETATM   12  C   UNL     1      41.435 -13.495   4.165  1.00  0.00     0.095 A 
HETATM   13  C   UNL     1      41.912 -12.406   4.899  1.00  0.00     0.039 A 
HETATM   14  C   UNL     1      41.140 -11.864   5.927  1.00  0.00     0.003 A 
HETATM   15  C   UNL     1      39.898 -12.414   6.230  1.00  0.00     0.002 A 
HETATM   16  C   UNL     1      39.414 -13.505   5.502  1.00  0.00     0.032 A 
BRANCH  12  17
HETATM   17  O   UNL     1      42.120 -14.113   3.141  1.00  0.00    -0.354 OA
HETATM   18  C   UNL     1      42.421 -13.323   1.996  1.00  0.00     0.210 C 
ENDBRANCH  12  17
ENDBRANCH   9  11
ENDBRANCH   7   9
ENDBRANCH   5   7
ENDBRANCH   2   5
BRANCH   1  19
HETATM   19  C   UNL     1      43.363 -17.108   1.183  1.00  0.00     0.126 C 
BRANCH  19  20
HETATM   20  C   UNL     1      43.578 -17.347   2.670  1.00  0.00     0.160 C 
BRANCH  20  21
HETATM   21  N   UNL     1      43.899 -18.737   2.947  1.00  0.00    -0.272 N 
HETATM   22  N   UNL     1      43.821 -19.622   1.932  1.00  0.00    -0.176 NA
HETATM   23  C   UNL     1      44.169 -20.791   2.483  1.00  0.00     0.070 A 
HETATM   24  C   UNL     1      44.207 -22.022   1.657  1.00  0.00     0.074 C 
HETATM   25  C   UNL     1      44.464 -20.634   3.850  1.00  0.00     0.060 A 
HETATM   26  C   UNL     1      44.277 -19.302   4.141  1.00  0.00     0.046 A 
HETATM   27 BR   UNL     1      45.005 -22.004   5.007  1.00  0.00    -0.047 Br
HETATM   28  C   UNL     1      44.430 -18.537   5.402  1.00  0.00     0.071 C 
ENDBRANCH  20  21
ENDBRANCH  19  20
ENDBRANCH   1  19
TORSDOF 8
ENDMDL
MODEL 7
REMARK VINA RESULT:      -7.0      4.571      5.706
REMARK  8 active torsions:
REMARK  status: ('A' for Active; 'I' for Inactive)
REMARK    1  A    between atoms: N_4  and  C_5 
REMARK    2  A    between atoms: C_5  and  C_6 
REMARK    3  A    between atoms: C_6  and  C_7 
REMARK       I    between atoms: C_7  and  N_8 
REMARK    4  A    between atoms: N_8  and  N_9 
REMARK    5  A    between atoms: N_9  and  C_10 
REMARK    6  A    between atoms: C_10  and  N_11 
REMARK    7  A    between atoms: N_11  and  C_12 
REMARK    8  A    between atoms: C_13  and  O_14 
ROOT
HETATM    1  C   UNL     1      43.171 -13.717   5.517  1.00  0.00     0.237 C 
HETATM    2  N   UNL     1      42.357 -13.014   6.383  1.00  0.00    -0.268 N 
HETATM    3  O   UNL     1      43.497 -13.288   4.413  1.00  0.00    -0.272 OA
HETATM    4  H   UNL     1      42.269 -13.261   7.368  1.00  0.00     0.190 HD
ENDROOT
BRANCH   2   5
HETATM    5  N   UNL     1      42.034 -11.688   6.042  1.00  0.00    -0.274 N 
HETATM    6  H   UNL     1      42.548 -11.340   5.231  1.00  0.00     0.189 HD
BRANCH   5   7
HETATM    7  C   UNL     1      41.665 -10.771   7.032  1.00  0.00     0.191 C 
HETATM    8  S   UNL     1      41.140  -9.222   6.660  1.00  0.00    -0.039 SA
BRANCH   7   9
HETATM    9  N   UNL     1      41.873 -11.328   8.281  1.00  0.00    -0.330 N 
HETATM   10  H   UNL     1      41.540 -12.283   8.380  1.00  0.00     0.168 HD
BRANCH   9  11
HETATM   11  C   UNL     1      42.615 -10.916   9.415  1.00  0.00     0.068 A 
HETATM   12  C   UNL     1      43.928 -11.433   9.524  1.00  0.00     0.095 A 
HETATM   13  C   UNL     1      44.722 -11.100  10.625  1.00  0.00     0.039 A 
HETATM   14  C   UNL     1      44.220 -10.264  11.622  1.00  0.00     0.003 A 
HETATM   15  C   UNL     1      42.922  -9.770  11.528  1.00  0.00     0.002 A 
HETATM   16  C   UNL     1      42.120 -10.101  10.433  1.00  0.00     0.032 A 
BRANCH  12  17
HETATM   17  O   UNL     1      44.321 -12.260   8.493  1.00  0.00    -0.354 OA
HETATM   18  C   UNL     1      45.704 -12.582   8.416  1.00  0.00     0.210 C 
ENDBRANCH  12  17
ENDBRANCH   9  11
ENDBRANCH   7   9
ENDBRANCH   5   7
ENDBRANCH   2   5
BRANCH   1  19
HETATM   19  C   UNL     1      43.638 -15.035   6.078  1.00  0.00     0.126 C 
BRANCH  19  20
HETATM   20  C   UNL     1      42.645 -16.138   5.744  1.00  0.00     0.160 C 
BRANCH  20  21
HETATM   21  N   UNL     1      43.165 -17.034   4.725  1.00  0.00    -0.272 N 
HETATM   22  N   UNL     1      43.292 -16.562   3.468  1.00  0.00    -0.176 NA
HETATM   23  C   UNL     1      43.787 -17.595   2.774  1.00  0.00     0.070 A 
HETATM   24  C   UNL     1      44.071 -17.451   1.326  1.00  0.00     0.074 C 
HETATM   25  C   UNL     1      43.966 -18.718   3.604  1.00  0.00     0.060 A 
HETATM   26  C   UNL     1      43.552 -18.345   4.862  1.00  0.00     0.046 A 
HETATM   27 BR   UNL     1      44.645 -20.375   3.054  1.00  0.00    -0.047 Br
HETATM   28  C   UNL     1      43.502 -19.090   6.144  1.00  0.00     0.071 C 
ENDBRANCH  20  21
ENDBRANCH  19  20
ENDBRANCH   1  19
TORSDOF 8
ENDMDL
MODEL 8
REMARK VINA RESULT:      -7.0      3.869      6.685
REMARK  8 active torsions:
REMARK  status: ('A' for Active; 'I' for Inactive)
REMARK    1  A    between atoms: N_4  and  C_5 
REMARK    2  A    between atoms: C_5  and  C_6 
REMARK    3  A    between atoms: C_6  and  C_7 
REMARK       I    between atoms: C_7  and  N_8 
REMARK    4  A    between atoms: N_8  and  N_9 
REMARK    5  A    between atoms: N_9  and  C_10 
REMARK    6  A    between atoms: C_10  and  N_11 
REMARK    7  A    between atoms: N_11  and  C_12 
REMARK    8  A    between atoms: C_13  and  O_14 
ROOT
HETATM    1  C   UNL     1      40.354 -15.655   3.393  1.00  0.00     0.237 C 
HETATM    2  N   UNL     1      40.612 -16.999   3.569  1.00  0.00    -0.268 N 
HETATM    3  O   UNL     1      40.260 -14.866   4.331  1.00  0.00    -0.272 OA
HETATM    4  H   UNL     1      40.907 -17.601   2.801  1.00  0.00     0.190 HD
ENDROOT
BRANCH   2   5
HETATM    5  N   UNL     1      40.945 -17.434   4.865  1.00  0.00    -0.274 N 
HETATM    6  H   UNL     1      40.190 -17.313   5.541  1.00  0.00     0.189 HD
BRANCH   5   7
HETATM    7  C   UNL     1      42.263 -17.348   5.325  1.00  0.00     0.191 C 
HETATM    8  S   UNL     1      42.635 -16.813   6.870  1.00  0.00    -0.039 SA
BRANCH   7   9
HETATM    9  N   UNL     1      43.134 -17.695   4.307  1.00  0.00    -0.330 N 
HETATM   10  H   UNL     1      43.628 -16.912   3.887  1.00  0.00     0.168 HD
BRANCH   9  11
HETATM   11  C   UNL     1      43.627 -18.936   3.833  1.00  0.00     0.068 A 
HETATM   12  C   UNL     1      43.290 -19.273   2.500  1.00  0.00     0.095 A 
HETATM   13  C   UNL     1      43.714 -20.490   1.958  1.00  0.00     0.039 A 
HETATM   14  C   UNL     1      44.460 -21.378   2.733  1.00  0.00     0.003 A 
HETATM   15  C   UNL     1      44.775 -21.059   4.050  1.00  0.00     0.002 A 
HETATM   16  C   UNL     1      44.354 -19.845   4.601  1.00  0.00     0.032 A 
BRANCH  12  17
HETATM   17  O   UNL     1      42.539 -18.332   1.828  1.00  0.00    -0.354 OA
HETATM   18  C   UNL     1      43.235 -17.467   0.938  1.00  0.00     0.210 C 
ENDBRANCH  12  17
ENDBRANCH   9  11
ENDBRANCH   7   9
ENDBRANCH   5   7
ENDBRANCH   2   5
BRANCH   1  19
HETATM   19  C   UNL     1      40.233 -15.257   1.945  1.00  0.00     0.126 C 
BRANCH  19  20
HETATM   20  C   UNL     1      41.322 -14.262   1.573  1.00  0.00     0.160 C 
BRANCH  20  21
HETATM   21  N   UNL     1      41.405 -14.073   0.134  1.00  0.00    -0.272 N 
HETATM   22  N   UNL     1      41.053 -15.102  -0.663  1.00  0.00    -0.176 NA
HETATM   23  C   UNL     1      41.229 -14.635  -1.905  1.00  0.00     0.070 A 
HETATM   24  C   UNL     1      40.932 -15.498  -3.074  1.00  0.00     0.074 C 
HETATM   25  C   UNL     1      41.696 -13.308  -1.881  1.00  0.00     0.060 A 
HETATM   26  C   UNL     1      41.814 -12.958  -0.555  1.00  0.00     0.046 A 
HETATM   27 BR   UNL     1      42.065 -12.261  -3.390  1.00  0.00    -0.047 Br
HETATM   28  C   UNL     1      42.253 -11.700   0.097  1.00  0.00     0.071 C 
ENDBRANCH  20  21
ENDBRANCH  19  20
ENDBRANCH   1  19
TORSDOF 8
ENDMDL
MODEL 9
REMARK VINA RESULT:      -7.0      3.698      6.901
REMARK  8 active torsions:
REMARK  status: ('A' for Active; 'I' for Inactive)
REMARK    1  A    between atoms: N_4  and  C_5 
REMARK    2  A    between atoms: C_5  and  C_6 
REMARK    3  A    between atoms: C_6  and  C_7 
REMARK       I    between atoms: C_7  and  N_8 
REMARK    4  A    between atoms: N_8  and  N_9 
REMARK    5  A    between atoms: N_9  and  C_10 
REMARK    6  A    between atoms: C_10  and  N_11 
REMARK    7  A    between atoms: N_11  and  C_12 
REMARK    8  A    between atoms: C_13  and  O_14 
ROOT
HETATM    1  C   UNL     1      42.740 -14.632   4.737  1.00  0.00     0.237 C 
HETATM    2  N   UNL     1      43.039 -15.968   4.560  1.00  0.00    -0.268 N 
HETATM    3  O   UNL     1      42.155 -14.206   5.730  1.00  0.00    -0.272 OA
HETATM    4  H   UNL     1      43.707 -16.287   3.860  1.00  0.00     0.190 HD
ENDROOT
BRANCH   2   5
HETATM    5  N   UNL     1      42.809 -16.836   5.643  1.00  0.00    -0.274 N 
HETATM    6  H   UNL     1      42.364 -16.382   6.441  1.00  0.00     0.189 HD
BRANCH   5   7
HETATM    7  C   UNL     1      43.676 -17.906   5.891  1.00  0.00     0.191 C 
HETATM    8  S   UNL     1      43.897 -18.535   7.430  1.00  0.00    -0.039 SA
BRANCH   7   9
HETATM    9  N   UNL     1      44.319 -18.264   4.720  1.00  0.00    -0.330 N 
HETATM   10  H   UNL     1      45.076 -17.644   4.446  1.00  0.00     0.168 HD
BRANCH   9  11
HETATM   11  C   UNL     1      44.269 -19.418   3.900  1.00  0.00     0.068 A 
HETATM   12  C   UNL     1      43.634 -19.264   2.644  1.00  0.00     0.095 A 
HETATM   13  C   UNL     1      43.517 -20.358   1.781  1.00  0.00     0.039 A 
HETATM   14  C   UNL     1      44.017 -21.604   2.159  1.00  0.00     0.003 A 
HETATM   15  C   UNL     1      44.623 -21.763   3.402  1.00  0.00     0.002 A 
HETATM   16  C   UNL     1      44.742 -20.676   4.272  1.00  0.00     0.032 A 
BRANCH  12  17
HETATM   17  O   UNL     1      43.163 -17.997   2.375  1.00  0.00    -0.354 OA
HETATM   18  C   UNL     1      43.831 -17.264   1.354  1.00  0.00     0.210 C 
ENDBRANCH  12  17
ENDBRANCH   9  11
ENDBRANCH   7   9
ENDBRANCH   5   7
ENDBRANCH   2   5
BRANCH   1  19
HETATM   19  C   UNL     1      43.230 -13.759   3.611  1.00  0.00     0.126 C 
BRANCH  19  20
HETATM   20  C   UNL     1      42.081 -12.953   3.023  1.00  0.00     0.160 C 
BRANCH  20  21
HETATM   21  N   UNL     1      41.934 -13.195   1.597  1.00  0.00    -0.272 N 
HETATM   22  N   UNL     1      42.480 -12.307   0.742  1.00  0.00    -0.176 NA
HETATM   23  C   UNL     1      42.187 -12.790  -0.472  1.00  0.00     0.070 A 
HETATM   24  C   UNL     1      42.638 -12.072  -1.688  1.00  0.00     0.074 C 
HETATM   25  C   UNL     1      41.451 -13.986  -0.371  1.00  0.00     0.060 A 
HETATM   26  C   UNL     1      41.287 -14.233   0.973  1.00  0.00     0.046 A 
HETATM   27 BR   UNL     1      40.842 -15.008  -1.817  1.00  0.00    -0.047 Br
HETATM   28  C   UNL     1      40.604 -15.334   1.696  1.00  0.00     0.071 C 
ENDBRANCH  20  21
ENDBRANCH  19  20
ENDBRANCH   1  19
TORSDOF 8
ENDMDL
MODEL 10
REMARK VINA RESULT:      -7.0      1.896      3.151
REMARK  8 active torsions:
REMARK  status: ('A' for Active; 'I' for Inactive)
REMARK    1  A    between atoms: N_4  and  C_5 
REMARK    2  A    between atoms: C_5  and  C_6 
REMARK    3  A    between atoms: C_6  and  C_7 
REMARK       I    between atoms: C_7  and  N_8 
REMARK    4  A    between atoms: N_8  and  N_9 
REMARK    5  A    between atoms: N_9  and  C_10 
REMARK    6  A    between atoms: C_10  and  N_11 
REMARK    7  A    between atoms: N_11  and  C_12 
REMARK    8  A    between atoms: C_13  and  O_14 
ROOT
HETATM    1  C   UNL     1      41.647 -16.550   1.758  1.00  0.00     0.237 C 
HETATM    2  N   UNL     1      42.731 -15.861   2.262  1.00  0.00    -0.268 N 
HETATM    3  O   UNL     1      40.570 -16.012   1.513  1.00  0.00    -0.272 OA
HETATM    4  H   UNL     1      43.673 -16.249   2.255  1.00  0.00     0.190 HD
ENDROOT
BRANCH   2   5
HETATM    5  N   UNL     1      42.635 -14.459   2.334  1.00  0.00    -0.274 N 
HETATM    6  H   UNL     1      43.415 -13.975   1.888  1.00  0.00     0.189 HD
BRANCH   5   7
HETATM    7  C   UNL     1      42.018 -13.845   3.428  1.00  0.00     0.191 C 
HETATM    8  S   UNL     1      40.646 -12.895   3.260  1.00  0.00    -0.039 SA
BRANCH   7   9
HETATM    9  N   UNL     1      42.748 -14.098   4.576  1.00  0.00    -0.330 N 
HETATM   10  H   UNL     1      43.395 -13.359   4.838  1.00  0.00     0.168 HD
BRANCH   9  11
HETATM   11  C   UNL     1      42.666 -15.096   5.578  1.00  0.00     0.068 A 
HETATM   12  C   UNL     1      43.714 -15.113   6.529  1.00  0.00     0.095 A 
HETATM   13  C   UNL     1      43.727 -16.079   7.539  1.00  0.00     0.039 A 
HETATM   14  C   UNL     1      42.712 -17.034   7.605  1.00  0.00     0.003 A 
HETATM   15  C   UNL     1      41.692 -17.033   6.659  1.00  0.00     0.002 A 
HETATM   16  C   UNL     1      41.673 -16.072   5.645  1.00  0.00     0.032 A 
BRANCH  12  17
HETATM   17  O   UNL     1      44.672 -14.135   6.365  1.00  0.00    -0.354 OA
HETATM   18  C   UNL     1      45.124 -13.471   7.540  1.00  0.00     0.210 C 
ENDBRANCH  12  17
ENDBRANCH   9  11
ENDBRANCH   7   9
ENDBRANCH   5   7
ENDBRANCH   2   5
BRANCH   1  19
HETATM   19  C   UNL     1      41.932 -18.009   1.512  1.00  0.00     0.126 C 
BRANCH  19  20
HETATM   20  C   UNL     1      43.433 -18.256   1.455  1.00  0.00     0.160 C 
BRANCH  20  21
HETATM   21  N   UNL     1      43.894 -19.015   2.606  1.00  0.00    -0.272 N 
HETATM   22  N   UNL     1      44.223 -18.337   3.724  1.00  0.00    -0.176 NA
HETATM   23  C   UNL     1      44.599 -19.287   4.590  1.00  0.00     0.070 A 
HETATM   24  C   UNL     1      45.033 -18.917   5.958  1.00  0.00     0.074 C 
HETATM   25  C   UNL     1      44.505 -20.564   4.005  1.00  0.00     0.060 A 
HETATM   26  C   UNL     1      44.056 -20.374   2.719  1.00  0.00     0.046 A 
HETATM   27 BR   UNL     1      44.920 -22.179   4.859  1.00  0.00    -0.047 Br
HETATM   28  C   UNL     1      43.764 -21.334   1.626  1.00  0.00     0.071 C 
ENDBRANCH  20  21
ENDBRANCH  19  20
ENDBRANCH   1  19
TORSDOF 8
ENDMDL
