MODEL 1
REMARK VINA RESULT:      -8.4      0.000      0.000
REMARK  14 active torsions:
REMARK  status: ('A' for Active; 'I' for Inactive)
REMARK    1  A    between atoms: C_2  and  N_3 
REMARK    2  A    between atoms: N_3  and  C_5 
REMARK    3  A    between atoms: N_3  and  C_37 
REMARK    4  A    between atoms: C_5  and  C_6 
REMARK    5  A    between atoms: C_6  and  N_7 
REMARK    6  A    between atoms: C_10  and  O_11 
REMARK    7  A    between atoms: C_12  and  C_13 
REMARK    8  A    between atoms: C_13  and  C_14 
REMARK    9  A    between atoms: C_18  and  O_19 
REMARK   10  A    between atoms: O_19  and  C_20 
REMARK   11  A    between atoms: C_20  and  C_21 
REMARK   12  A    between atoms: C_27  and  C_28 
REMARK   13  A    between atoms: C_30  and  O_31 
REMARK   14  A    between atoms: C_33  and  O_34 
ROOT
HETATM    1  N   UNL     1      40.545 -12.264  -0.698  1.00  0.00    -0.332 N 
HETATM    2  C   UNL     1      41.680 -12.222   0.081  1.00  0.00     0.278 A 
HETATM    3  O   UNL     1      42.533 -11.355   0.094  1.00  0.00    -0.265 OA
HETATM    4  C   UNL     1      41.655 -13.402   0.968  1.00  0.00     0.146 A 
HETATM    5  C   UNL     1      40.497 -14.035   0.743  1.00  0.00     0.059 A 
HETATM    6  C   UNL     1      39.718 -13.421  -0.381  1.00  0.00     0.161 A 
ENDROOT
BRANCH   5   7
HETATM    7  C   UNL     1      39.906 -15.163   1.492  1.00  0.00     0.193 C 
HETATM    8  O   UNL     1      38.731 -15.113   1.844  1.00  0.00    -0.287 OA
BRANCH   7   9
HETATM    9  C   UNL     1      40.744 -16.304   1.934  1.00  0.00     0.015 A 
HETATM   10  C   UNL     1      40.912 -16.518   3.306  1.00  0.00     0.025 A 
HETATM   11  C   UNL     1      41.767 -17.531   3.772  1.00  0.00    -0.028 A 
HETATM   12  C   UNL     1      41.945 -17.738   5.251  1.00  0.00     0.051 C 
HETATM   13  C   UNL     1      42.483 -18.313   2.847  1.00  0.00     0.074 A 
HETATM   14  C   UNL     1      42.309 -18.098   1.477  1.00  0.00     0.038 A 
HETATM   15  C   UNL     1      41.455 -17.090   1.021  1.00  0.00     0.018 A 
BRANCH  13  16
HETATM   16  O   UNL     1      43.314 -19.266   3.374  1.00  0.00    -0.350 OA
BRANCH  16  17
HETATM   17  C   UNL     1      44.498 -19.563   2.628  1.00  0.00     0.179 C 
BRANCH  17  18
HETATM   18  C   UNL     1      44.730 -21.080   2.643  1.00  0.00     0.002 C 
HETATM   19  C   UNL     1      44.635 -21.642   4.062  1.00  0.00     0.011 C 
HETATM   20  C   UNL     1      43.726 -21.779   1.727  1.00  0.00     0.011 C 
ENDBRANCH  17  18
ENDBRANCH  16  17
ENDBRANCH  13  16
ENDBRANCH   7   9
ENDBRANCH   5   7
BRANCH   4  21
HETATM   21  O   UNL     1      42.619 -13.669   1.891  1.00  0.00    -0.355 OA
HETATM   22  H   UNL     1      42.614 -14.636   2.040  1.00  0.00     0.218 HD
ENDBRANCH   4  21
BRANCH   6  23
HETATM   23  C   UNL     1      39.521 -14.282  -1.616  1.00  0.00    -0.028 A 
HETATM   24  C   UNL     1      38.264 -14.296  -2.255  1.00  0.00     0.049 A 
HETATM   25  C   UNL     1      38.057 -15.057  -3.407  1.00  0.00     0.101 A 
HETATM   26  C   UNL     1      39.125 -15.788  -3.933  1.00  0.00     0.099 A 
HETATM   27  C   UNL     1      40.366 -15.809  -3.313  1.00  0.00     0.040 A 
HETATM   28  C   UNL     1      40.561 -15.067  -2.149  1.00  0.00     0.012 A 
BRANCH  25  29
HETATM   29  O   UNL     1      36.885 -15.141  -4.112  1.00  0.00    -0.353 OA
HETATM   30  C   UNL     1      36.324 -13.901  -4.538  1.00  0.00     0.210 C 
ENDBRANCH  25  29
BRANCH  26  31
HETATM   31  O   UNL     1      38.964 -16.522  -5.075  1.00  0.00    -0.358 OA
HETATM   32  H   UNL     1      39.714 -16.273  -5.652  1.00  0.00     0.218 HD
ENDBRANCH  26  31
ENDBRANCH   6  23
BRANCH   1  33
HETATM   33  C   UNL     1      40.064 -11.136  -1.475  1.00  0.00     0.155 C 
BRANCH  33  34
HETATM   34  C   UNL     1      40.568 -11.154  -2.929  1.00  0.00     0.254 C 
BRANCH  34  35
HETATM   35  N   UNL     1      41.959 -10.547  -3.102  1.00  0.00    -0.070 N 
HETATM   36  H   UNL     1      42.546 -11.034  -2.410  1.00  0.00     0.279 HD
BRANCH  35  37
HETATM   37  C   UNL     1      42.056  -9.071  -2.739  1.00  0.00     0.230 C 
HETATM   38  C   UNL     1      43.291  -8.773  -1.911  1.00  0.00     0.034 C 
ENDBRANCH  35  37
BRANCH  35  39
HETATM   39  C   UNL     1      42.611 -10.811  -4.447  1.00  0.00     0.230 C 
HETATM   40  C   UNL     1      42.484  -9.617  -5.375  1.00  0.00     0.034 C 
ENDBRANCH  35  39
ENDBRANCH  34  35
ENDBRANCH  33  34
ENDBRANCH   1  33
TORSDOF 14
ENDMDL
MODEL 2
REMARK VINA RESULT:      -8.2      1.417      2.271
REMARK  14 active torsions:
REMARK  status: ('A' for Active; 'I' for Inactive)
REMARK    1  A    between atoms: C_2  and  N_3 
REMARK    2  A    between atoms: N_3  and  C_5 
REMARK    3  A    between atoms: N_3  and  C_37 
REMARK    4  A    between atoms: C_5  and  C_6 
REMARK    5  A    between atoms: C_6  and  N_7 
REMARK    6  A    between atoms: C_10  and  O_11 
REMARK    7  A    between atoms: C_12  and  C_13 
REMARK    8  A    between atoms: C_13  and  C_14 
REMARK    9  A    between atoms: C_18  and  O_19 
REMARK   10  A    between atoms: O_19  and  C_20 
REMARK   11  A    between atoms: C_20  and  C_21 
REMARK   12  A    between atoms: C_27  and  C_28 
REMARK   13  A    between atoms: C_30  and  O_31 
REMARK   14  A    between atoms: C_33  and  O_34 
ROOT
HETATM    1  N   UNL     1      40.596 -12.250  -0.769  1.00  0.00    -0.332 N 
HETATM    2  C   UNL     1      41.728 -12.208   0.013  1.00  0.00     0.278 A 
HETATM    3  O   UNL     1      42.591 -11.350   0.016  1.00  0.00    -0.265 OA
HETATM    4  C   UNL     1      41.687 -13.373   0.919  1.00  0.00     0.146 A 
HETATM    5  C   UNL     1      40.524 -13.997   0.699  1.00  0.00     0.059 A 
HETATM    6  C   UNL     1      39.755 -13.392  -0.437  1.00  0.00     0.161 A 
ENDROOT
BRANCH   5   7
HETATM    7  C   UNL     1      39.917 -15.106   1.463  1.00  0.00     0.193 C 
HETATM    8  O   UNL     1      38.747 -15.029   1.827  1.00  0.00    -0.287 OA
BRANCH   7   9
HETATM    9  C   UNL     1      40.736 -16.261   1.906  1.00  0.00     0.015 A 
HETATM   10  C   UNL     1      40.917 -16.466   3.278  1.00  0.00     0.025 A 
HETATM   11  C   UNL     1      41.756 -17.493   3.743  1.00  0.00    -0.028 A 
HETATM   12  C   UNL     1      41.949 -17.690   5.221  1.00  0.00     0.051 C 
HETATM   13  C   UNL     1      42.443 -18.298   2.816  1.00  0.00     0.074 A 
HETATM   14  C   UNL     1      42.256 -18.093   1.446  1.00  0.00     0.038 A 
HETATM   15  C   UNL     1      41.419 -17.071   0.992  1.00  0.00     0.018 A 
BRANCH  13  16
HETATM   16  O   UNL     1      43.260 -19.264   3.341  1.00  0.00    -0.350 OA
BRANCH  16  17
HETATM   17  C   UNL     1      44.469 -19.535   2.628  1.00  0.00     0.179 C 
BRANCH  17  18
HETATM   18  C   UNL     1      44.744 -21.044   2.663  1.00  0.00     0.002 C 
HETATM   19  C   UNL     1      44.670 -21.588   4.091  1.00  0.00     0.011 C 
HETATM   20  C   UNL     1      43.756 -21.784   1.762  1.00  0.00     0.011 C 
ENDBRANCH  17  18
ENDBRANCH  16  17
ENDBRANCH  13  16
ENDBRANCH   7   9
ENDBRANCH   5   7
BRANCH   4  21
HETATM   21  O   UNL     1      42.645 -13.636   1.849  1.00  0.00    -0.355 OA
HETATM   22  H   UNL     1      43.352 -14.142   1.398  1.00  0.00     0.218 HD
ENDBRANCH   4  21
BRANCH   6  23
HETATM   23  C   UNL     1      39.553 -14.270  -1.659  1.00  0.00    -0.028 A 
HETATM   24  C   UNL     1      38.303 -14.268  -2.312  1.00  0.00     0.049 A 
HETATM   25  C   UNL     1      38.093 -15.044  -3.454  1.00  0.00     0.101 A 
HETATM   26  C   UNL     1      39.150 -15.808  -3.954  1.00  0.00     0.099 A 
HETATM   27  C   UNL     1      40.383 -15.846  -3.319  1.00  0.00     0.040 A 
HETATM   28  C   UNL     1      40.581 -15.087  -2.166  1.00  0.00     0.012 A 
BRANCH  25  29
HETATM   29  O   UNL     1      36.928 -15.114  -4.172  1.00  0.00    -0.353 OA
HETATM   30  C   UNL     1      36.323 -13.866  -4.502  1.00  0.00     0.210 C 
ENDBRANCH  25  29
BRANCH  26  31
HETATM   31  O   UNL     1      38.986 -16.558  -5.085  1.00  0.00    -0.358 OA
HETATM   32  H   UNL     1      38.215 -17.133  -4.908  1.00  0.00     0.218 HD
ENDBRANCH  26  31
ENDBRANCH   6  23
BRANCH   1  33
HETATM   33  C   UNL     1      40.130 -11.129  -1.566  1.00  0.00     0.155 C 
BRANCH  33  34
HETATM   34  C   UNL     1      38.687 -10.714  -1.228  1.00  0.00     0.254 C 
BRANCH  34  35
HETATM   35  N   UNL     1      38.582  -9.806  -0.005  1.00  0.00    -0.070 N 
HETATM   36  H   UNL     1      37.838  -9.133  -0.239  1.00  0.00     0.279 HD
BRANCH  35  37
HETATM   37  C   UNL     1      39.817  -8.958   0.263  1.00  0.00     0.230 C 
HETATM   38  C   UNL     1      40.338  -9.146   1.675  1.00  0.00     0.034 C 
ENDBRANCH  35  37
BRANCH  35  39
HETATM   39  C   UNL     1      38.121 -10.495   1.268  1.00  0.00     0.230 C 
HETATM   40  C   UNL     1      37.022 -11.505   0.992  1.00  0.00     0.034 C 
ENDBRANCH  35  39
ENDBRANCH  34  35
ENDBRANCH  33  34
ENDBRANCH   1  33
TORSDOF 14
ENDMDL
MODEL 3
REMARK VINA RESULT:      -7.8      6.228      9.927
REMARK  14 active torsions:
REMARK  status: ('A' for Active; 'I' for Inactive)
REMARK    1  A    between atoms: C_2  and  N_3 
REMARK    2  A    between atoms: N_3  and  C_5 
REMARK    3  A    between atoms: N_3  and  C_37 
REMARK    4  A    between atoms: C_5  and  C_6 
REMARK    5  A    between atoms: C_6  and  N_7 
REMARK    6  A    between atoms: C_10  and  O_11 
REMARK    7  A    between atoms: C_12  and  C_13 
REMARK    8  A    between atoms: C_13  and  C_14 
REMARK    9  A    between atoms: C_18  and  O_19 
REMARK   10  A    between atoms: O_19  and  C_20 
REMARK   11  A    between atoms: C_20  and  C_21 
REMARK   12  A    between atoms: C_27  and  C_28 
REMARK   13  A    between atoms: C_30  and  O_31 
REMARK   14  A    between atoms: C_33  and  O_34 
ROOT
HETATM    1  N   UNL     1      42.974 -16.395   5.487  1.00  0.00    -0.332 N 
HETATM    2  C   UNL     1      42.888 -16.764   6.811  1.00  0.00     0.278 A 
HETATM    3  O   UNL     1      42.409 -17.788   7.261  1.00  0.00    -0.265 OA
HETATM    4  C   UNL     1      43.550 -15.714   7.610  1.00  0.00     0.146 A 
HETATM    5  C   UNL     1      44.060 -14.829   6.744  1.00  0.00     0.059 A 
HETATM    6  C   UNL     1      43.684 -15.133   5.325  1.00  0.00     0.161 A 
ENDROOT
BRANCH   5   7
HETATM    7  C   UNL     1      44.965 -13.694   7.016  1.00  0.00     0.193 C 
HETATM    8  O   UNL     1      46.018 -13.588   6.394  1.00  0.00    -0.287 OA
BRANCH   7   9
HETATM    9  C   UNL     1      44.681 -12.743   8.120  1.00  0.00     0.015 A 
HETATM   10  C   UNL     1      43.498 -11.998   8.072  1.00  0.00     0.025 A 
HETATM   11  C   UNL     1      43.227 -11.022   9.046  1.00  0.00    -0.028 A 
HETATM   12  C   UNL     1      41.956 -10.222   8.970  1.00  0.00     0.051 C 
HETATM   13  C   UNL     1      44.172 -10.774  10.058  1.00  0.00     0.074 A 
HETATM   14  C   UNL     1      45.351 -11.524  10.104  1.00  0.00     0.038 A 
HETATM   15  C   UNL     1      45.612 -12.494   9.133  1.00  0.00     0.018 A 
BRANCH  13  16
HETATM   16  O   UNL     1      43.851  -9.794  10.959  1.00  0.00    -0.350 OA
BRANCH  16  17
HETATM   17  C   UNL     1      43.798 -10.184  12.334  1.00  0.00     0.179 C 
BRANCH  17  18
HETATM   18  C   UNL     1      42.646  -9.438  13.021  1.00  0.00     0.002 C 
HETATM   19  C   UNL     1      42.836  -9.402  14.539  1.00  0.00     0.011 C 
HETATM   20  C   UNL     1      42.527  -8.019  12.467  1.00  0.00     0.011 C 
ENDBRANCH  17  18
ENDBRANCH  16  17
ENDBRANCH  13  16
ENDBRANCH   7   9
ENDBRANCH   5   7
BRANCH   4  21
HETATM   21  O   UNL     1      43.669 -15.763   8.964  1.00  0.00    -0.355 OA
HETATM   22  H   UNL     1      42.793 -15.540   9.338  1.00  0.00     0.218 HD
ENDBRANCH   4  21
BRANCH   6  23
HETATM   23  C   UNL     1      42.797 -14.116   4.628  1.00  0.00    -0.028 A 
HETATM   24  C   UNL     1      43.069 -13.765   3.290  1.00  0.00     0.049 A 
HETATM   25  C   UNL     1      42.258 -12.853   2.613  1.00  0.00     0.101 A 
HETATM   26  C   UNL     1      41.156 -12.309   3.275  1.00  0.00     0.099 A 
HETATM   27  C   UNL     1      40.878 -12.619   4.599  1.00  0.00     0.040 A 
HETATM   28  C   UNL     1      41.704 -13.513   5.279  1.00  0.00     0.012 A 
BRANCH  25  29
HETATM   29  O   UNL     1      42.422 -12.445   1.314  1.00  0.00    -0.353 OA
HETATM   30  C   UNL     1      41.907 -13.322   0.315  1.00  0.00     0.210 C 
ENDBRANCH  25  29
BRANCH  26  31
HETATM   31  O   UNL     1      40.325 -11.433   2.632  1.00  0.00    -0.358 OA
HETATM   32  H   UNL     1      39.649 -11.989   2.197  1.00  0.00     0.218 HD
ENDBRANCH  26  31
ENDBRANCH   6  23
BRANCH   1  33
HETATM   33  C   UNL     1      42.708 -17.301   4.383  1.00  0.00     0.155 C 
BRANCH  33  34
HETATM   34  C   UNL     1      43.897 -18.226   4.070  1.00  0.00     0.254 C 
BRANCH  34  35
HETATM   35  N   UNL     1      44.061 -18.529   2.581  1.00  0.00    -0.070 N 
HETATM   36  H   UNL     1      44.988 -18.968   2.502  1.00  0.00     0.279 HD
BRANCH  35  37
HETATM   37  C   UNL     1      44.125 -17.297   1.688  1.00  0.00     0.230 C 
HETATM   38  C   UNL     1      42.881 -17.152   0.834  1.00  0.00     0.034 C 
ENDBRANCH  35  37
BRANCH  35  39
HETATM   39  C   UNL     1      43.080 -19.544   2.022  1.00  0.00     0.230 C 
HETATM   40  C   UNL     1      43.697 -20.927   1.930  1.00  0.00     0.034 C 
ENDBRANCH  35  39
ENDBRANCH  34  35
ENDBRANCH  33  34
ENDBRANCH   1  33
TORSDOF 14
ENDMDL
MODEL 4
REMARK VINA RESULT:      -7.7      6.303     10.417
REMARK  14 active torsions:
REMARK  status: ('A' for Active; 'I' for Inactive)
REMARK    1  A    between atoms: C_2  and  N_3 
REMARK    2  A    between atoms: N_3  and  C_5 
REMARK    3  A    between atoms: N_3  and  C_37 
REMARK    4  A    between atoms: C_5  and  C_6 
REMARK    5  A    between atoms: C_6  and  N_7 
REMARK    6  A    between atoms: C_10  and  O_11 
REMARK    7  A    between atoms: C_12  and  C_13 
REMARK    8  A    between atoms: C_13  and  C_14 
REMARK    9  A    between atoms: C_18  and  O_19 
REMARK   10  A    between atoms: O_19  and  C_20 
REMARK   11  A    between atoms: C_20  and  C_21 
REMARK   12  A    between atoms: C_27  and  C_28 
REMARK   13  A    between atoms: C_30  and  O_31 
REMARK   14  A    between atoms: C_33  and  O_34 
ROOT
HETATM    1  N   UNL     1      43.025 -16.471   5.436  1.00  0.00    -0.332 N 
HETATM    2  C   UNL     1      42.970 -16.829   6.764  1.00  0.00     0.278 A 
HETATM    3  O   UNL     1      42.529 -17.862   7.231  1.00  0.00    -0.265 OA
HETATM    4  C   UNL     1      43.612 -15.751   7.542  1.00  0.00     0.146 A 
HETATM    5  C   UNL     1      44.081 -14.860   6.661  1.00  0.00     0.059 A 
HETATM    6  C   UNL     1      43.694 -15.190   5.251  1.00  0.00     0.161 A 
ENDROOT
BRANCH   5   7
HETATM    7  C   UNL     1      44.955 -13.695   6.908  1.00  0.00     0.193 C 
HETATM    8  O   UNL     1      45.969 -13.537   6.234  1.00  0.00    -0.287 OA
BRANCH   7   9
HETATM    9  C   UNL     1      44.693 -12.776   8.043  1.00  0.00     0.015 A 
HETATM   10  C   UNL     1      43.481 -12.078   8.072  1.00  0.00     0.025 A 
HETATM   11  C   UNL     1      43.224 -11.132   9.078  1.00  0.00    -0.028 A 
HETATM   12  C   UNL     1      41.921 -10.382   9.085  1.00  0.00     0.051 C 
HETATM   13  C   UNL     1      44.212 -10.864  10.044  1.00  0.00     0.074 A 
HETATM   14  C   UNL     1      45.420 -11.566  10.014  1.00  0.00     0.038 A 
HETATM   15  C   UNL     1      45.666 -12.507   9.011  1.00  0.00     0.018 A 
BRANCH  13  16
HETATM   16  O   UNL     1      43.901  -9.913  10.980  1.00  0.00    -0.350 OA
BRANCH  16  17
HETATM   17  C   UNL     1      43.935 -10.329  12.348  1.00  0.00     0.179 C 
BRANCH  17  18
HETATM   18  C   UNL     1      43.164  -9.311  13.200  1.00  0.00     0.002 C 
HETATM   19  C   UNL     1      42.324  -8.380  12.324  1.00  0.00     0.011 C 
HETATM   20  C   UNL     1      42.277 -10.031  14.214  1.00  0.00     0.011 C 
ENDBRANCH  17  18
ENDBRANCH  16  17
ENDBRANCH  13  16
ENDBRANCH   7   9
ENDBRANCH   5   7
BRANCH   4  21
HETATM   21  O   UNL     1      43.752 -15.782   8.895  1.00  0.00    -0.355 OA
HETATM   22  H   UNL     1      43.758 -16.724   9.161  1.00  0.00     0.218 HD
ENDBRANCH   4  21
BRANCH   6  23
HETATM   23  C   UNL     1      42.767 -14.208   4.557  1.00  0.00    -0.028 A 
HETATM   24  C   UNL     1      41.595 -13.782   5.215  1.00  0.00     0.049 A 
HETATM   25  C   UNL     1      40.734 -12.860   4.615  1.00  0.00     0.101 A 
HETATM   26  C   UNL     1      41.065 -12.347   3.359  1.00  0.00     0.099 A 
HETATM   27  C   UNL     1      42.200 -12.765   2.680  1.00  0.00     0.040 A 
HETATM   28  C   UNL     1      43.044 -13.703   3.272  1.00  0.00     0.012 A 
BRANCH  25  29
HETATM   29  O   UNL     1      39.577 -12.371   5.162  1.00  0.00    -0.353 OA
HETATM   30  C   UNL     1      39.471 -12.459   6.581  1.00  0.00     0.210 C 
ENDBRANCH  25  29
BRANCH  26  31
HETATM   31  O   UNL     1      40.258 -11.422   2.756  1.00  0.00    -0.358 OA
HETATM   32  H   UNL     1      40.207 -10.673   3.382  1.00  0.00     0.218 HD
ENDBRANCH  26  31
ENDBRANCH   6  23
BRANCH   1  33
HETATM   33  C   UNL     1      42.771 -17.396   4.345  1.00  0.00     0.155 C 
BRANCH  33  34
HETATM   34  C   UNL     1      44.044 -18.108   3.856  1.00  0.00     0.254 C 
BRANCH  34  35
HETATM   35  N   UNL     1      43.981 -19.629   3.980  1.00  0.00    -0.070 N 
HETATM   36  H   UNL     1      42.979 -19.858   3.910  1.00  0.00     0.279 HD
BRANCH  35  37
HETATM   37  C   UNL     1      44.421 -20.173   5.331  1.00  0.00     0.230 C 
HETATM   38  C   UNL     1      44.825 -21.633   5.249  1.00  0.00     0.034 C 
ENDBRANCH  35  37
BRANCH  35  39
HETATM   39  C   UNL     1      44.651 -20.393   2.851  1.00  0.00     0.230 C 
HETATM   40  C   UNL     1      43.642 -20.887   1.832  1.00  0.00     0.034 C 
ENDBRANCH  35  39
ENDBRANCH  34  35
ENDBRANCH  33  34
ENDBRANCH   1  33
TORSDOF 14
ENDMDL
MODEL 5
REMARK VINA RESULT:      -7.7      2.424      5.021
REMARK  14 active torsions:
REMARK  status: ('A' for Active; 'I' for Inactive)
REMARK    1  A    between atoms: C_2  and  N_3 
REMARK    2  A    between atoms: N_3  and  C_5 
REMARK    3  A    between atoms: N_3  and  C_37 
REMARK    4  A    between atoms: C_5  and  C_6 
REMARK    5  A    between atoms: C_6  and  N_7 
REMARK    6  A    between atoms: C_10  and  O_11 
REMARK    7  A    between atoms: C_12  and  C_13 
REMARK    8  A    between atoms: C_13  and  C_14 
REMARK    9  A    between atoms: C_18  and  O_19 
REMARK   10  A    between atoms: O_19  and  C_20 
REMARK   11  A    between atoms: C_20  and  C_21 
REMARK   12  A    between atoms: C_27  and  C_28 
REMARK   13  A    between atoms: C_30  and  O_31 
REMARK   14  A    between atoms: C_33  and  O_34 
ROOT
HETATM    1  N   UNL     1      40.964 -12.268   1.000  1.00  0.00    -0.332 N 
HETATM    2  C   UNL     1      39.772 -12.538   0.366  1.00  0.00     0.278 A 
HETATM    3  O   UNL     1      38.917 -11.740   0.032  1.00  0.00    -0.265 OA
HETATM    4  C   UNL     1      39.733 -13.988   0.091  1.00  0.00     0.146 A 
HETATM    5  C   UNL     1      40.908 -14.492   0.489  1.00  0.00     0.059 A 
HETATM    6  C   UNL     1      41.769 -13.470   1.168  1.00  0.00     0.161 A 
ENDROOT
BRANCH   5   7
HETATM    7  C   UNL     1      41.445 -15.852   0.275  1.00  0.00     0.193 C 
HETATM    8  O   UNL     1      41.271 -16.415  -0.802  1.00  0.00    -0.287 OA
BRANCH   7   9
HETATM    9  C   UNL     1      42.086 -16.599   1.385  1.00  0.00     0.015 A 
HETATM   10  C   UNL     1      41.326 -16.887   2.524  1.00  0.00     0.025 A 
HETATM   11  C   UNL     1      41.914 -17.514   3.635  1.00  0.00    -0.028 A 
HETATM   12  C   UNL     1      41.084 -17.804   4.856  1.00  0.00     0.051 C 
HETATM   13  C   UNL     1      43.286 -17.822   3.611  1.00  0.00     0.074 A 
HETATM   14  C   UNL     1      44.041 -17.535   2.470  1.00  0.00     0.038 A 
HETATM   15  C   UNL     1      43.449 -16.914   1.367  1.00  0.00     0.018 A 
BRANCH  13  16
HETATM   16  O   UNL     1      43.795 -18.411   4.738  1.00  0.00    -0.350 OA
BRANCH  16  17
HETATM   17  C   UNL     1      44.876 -19.327   4.547  1.00  0.00     0.179 C 
BRANCH  17  18
HETATM   18  C   UNL     1      44.305 -20.714   4.221  1.00  0.00     0.002 C 
HETATM   19  C   UNL     1      44.614 -21.114   2.777  1.00  0.00     0.011 C 
HETATM   20  C   UNL     1      44.858 -21.757   5.191  1.00  0.00     0.011 C 
ENDBRANCH  17  18
ENDBRANCH  16  17
ENDBRANCH  13  16
ENDBRANCH   7   9
ENDBRANCH   5   7
BRANCH   4  21
HETATM   21  O   UNL     1      38.702 -14.605  -0.548  1.00  0.00    -0.355 OA
HETATM   22  H   UNL     1      38.044 -13.914  -0.763  1.00  0.00     0.218 HD
ENDBRANCH   4  21
BRANCH   6  23
HETATM   23  C   UNL     1      42.065 -13.705   2.639  1.00  0.00    -0.028 A 
HETATM   24  C   UNL     1      40.996 -13.777   3.555  1.00  0.00     0.049 A 
HETATM   25  C   UNL     1      41.232 -14.017   4.910  1.00  0.00     0.101 A 
HETATM   26  C   UNL     1      42.546 -14.208   5.342  1.00  0.00     0.099 A 
HETATM   27  C   UNL     1      43.618 -14.120   4.466  1.00  0.00     0.040 A 
HETATM   28  C   UNL     1      43.380 -13.857   3.118  1.00  0.00     0.012 A 
BRANCH  25  29
HETATM   29  O   UNL     1      40.274 -14.116   5.885  1.00  0.00    -0.353 OA
HETATM   30  C   UNL     1      39.575 -12.913   6.197  1.00  0.00     0.210 C 
ENDBRANCH  25  29
BRANCH  26  31
HETATM   31  O   UNL     1      42.810 -14.472   6.658  1.00  0.00    -0.358 OA
HETATM   32  H   UNL     1      43.049 -15.420   6.690  1.00  0.00     0.218 HD
ENDBRANCH  26  31
ENDBRANCH   6  23
BRANCH   1  33
HETATM   33  C   UNL     1      41.499 -10.927   1.164  1.00  0.00     0.155 C 
BRANCH  33  34
HETATM   34  C   UNL     1      42.358 -10.477  -0.031  1.00  0.00     0.254 C 
BRANCH  34  35
HETATM   35  N   UNL     1      41.875 -11.025  -1.373  1.00  0.00    -0.070 N 
HETATM   36  H   UNL     1      41.061 -11.610  -1.141  1.00  0.00     0.279 HD
BRANCH  35  37
HETATM   37  C   UNL     1      42.856 -11.961  -2.065  1.00  0.00     0.230 C 
HETATM   38  C   UNL     1      42.152 -13.134  -2.719  1.00  0.00     0.034 C 
ENDBRANCH  35  37
BRANCH  35  39
HETATM   39  C   UNL     1      41.359  -9.978  -2.344  1.00  0.00     0.230 C 
HETATM   40  C   UNL     1      42.489  -9.332  -3.124  1.00  0.00     0.034 C 
ENDBRANCH  35  39
ENDBRANCH  34  35
ENDBRANCH  33  34
ENDBRANCH   1  33
TORSDOF 14
ENDMDL
MODEL 6
REMARK VINA RESULT:      -7.6      2.391      3.833
REMARK  14 active torsions:
REMARK  status: ('A' for Active; 'I' for Inactive)
REMARK    1  A    between atoms: C_2  and  N_3 
REMARK    2  A    between atoms: N_3  and  C_5 
REMARK    3  A    between atoms: N_3  and  C_37 
REMARK    4  A    between atoms: C_5  and  C_6 
REMARK    5  A    between atoms: C_6  and  N_7 
REMARK    6  A    between atoms: C_10  and  O_11 
REMARK    7  A    between atoms: C_12  and  C_13 
REMARK    8  A    between atoms: C_13  and  C_14 
REMARK    9  A    between atoms: C_18  and  O_19 
REMARK   10  A    between atoms: O_19  and  C_20 
REMARK   11  A    between atoms: C_20  and  C_21 
REMARK   12  A    between atoms: C_27  and  C_28 
REMARK   13  A    between atoms: C_30  and  O_31 
REMARK   14  A    between atoms: C_33  and  O_34 
ROOT
HETATM    1  N   UNL     1      39.553 -13.485   2.035  1.00  0.00    -0.332 N 
HETATM    2  C   UNL     1      39.778 -12.426   2.886  1.00  0.00     0.278 A 
HETATM    3  O   UNL     1      38.966 -11.609   3.277  1.00  0.00    -0.265 OA
HETATM    4  C   UNL     1      41.191 -12.489   3.311  1.00  0.00     0.146 A 
HETATM    5  C   UNL     1      41.711 -13.599   2.773  1.00  0.00     0.059 A 
HETATM    6  C   UNL     1      40.750 -14.296   1.857  1.00  0.00     0.161 A 
ENDROOT
BRANCH   5   7
HETATM    7  C   UNL     1      43.028 -14.216   3.032  1.00  0.00     0.193 C 
HETATM    8  O   UNL     1      44.025 -13.507   3.136  1.00  0.00    -0.287 OA
BRANCH   7   9
HETATM    9  C   UNL     1      43.187 -15.691   3.045  1.00  0.00     0.015 A 
HETATM   10  C   UNL     1      42.882 -16.386   4.220  1.00  0.00     0.025 A 
HETATM   11  C   UNL     1      43.100 -17.771   4.309  1.00  0.00    -0.028 A 
HETATM   12  C   UNL     1      42.779 -18.498   5.586  1.00  0.00     0.051 C 
HETATM   13  C   UNL     1      43.661 -18.454   3.215  1.00  0.00     0.074 A 
HETATM   14  C   UNL     1      43.960 -17.757   2.041  1.00  0.00     0.038 A 
HETATM   15  C   UNL     1      43.738 -16.380   1.960  1.00  0.00     0.018 A 
BRANCH  13  16
HETATM   16  O   UNL     1      43.867 -19.798   3.381  1.00  0.00    -0.350 OA
BRANCH  16  17
HETATM   17  C   UNL     1      44.958 -20.372   2.656  1.00  0.00     0.179 C 
BRANCH  17  18
HETATM   18  C   UNL     1      44.632 -21.838   2.340  1.00  0.00     0.002 C 
HETATM   19  C   UNL     1      44.558 -22.677   3.617  1.00  0.00     0.011 C 
HETATM   20  C   UNL     1      43.320 -21.935   1.564  1.00  0.00     0.011 C 
ENDBRANCH  17  18
ENDBRANCH  16  17
ENDBRANCH  13  16
ENDBRANCH   7   9
ENDBRANCH   5   7
BRANCH   4  21
HETATM   21  O   UNL     1      41.756 -11.603   4.175  1.00  0.00    -0.355 OA
HETATM   22  H   UNL     1      42.212 -10.927   3.635  1.00  0.00     0.218 HD
ENDBRANCH   4  21
BRANCH   6  23
HETATM   23  C   UNL     1      41.135 -14.351   0.389  1.00  0.00    -0.028 A 
HETATM   24  C   UNL     1      41.692 -13.209  -0.222  1.00  0.00     0.049 A 
HETATM   25  C   UNL     1      42.080 -13.235  -1.563  1.00  0.00     0.101 A 
HETATM   26  C   UNL     1      41.930 -14.420  -2.286  1.00  0.00     0.099 A 
HETATM   27  C   UNL     1      41.365 -15.552  -1.716  1.00  0.00     0.040 A 
HETATM   28  C   UNL     1      40.957 -15.515  -0.383  1.00  0.00     0.012 A 
BRANCH  25  29
HETATM   29  O   UNL     1      42.637 -12.192  -2.256  1.00  0.00    -0.353 OA
HETATM   30  C   UNL     1      43.081 -11.088  -1.471  1.00  0.00     0.210 C 
ENDBRANCH  25  29
BRANCH  26  31
HETATM   31  O   UNL     1      42.325 -14.488  -3.593  1.00  0.00    -0.358 OA
HETATM   32  H   UNL     1      42.999 -15.196  -3.625  1.00  0.00     0.218 HD
ENDBRANCH  26  31
ENDBRANCH   6  23
BRANCH   1  33
HETATM   33  C   UNL     1      38.228 -13.934   1.646  1.00  0.00     0.155 C 
BRANCH  33  34
HETATM   34  C   UNL     1      37.473 -12.900   0.792  1.00  0.00     0.254 C 
BRANCH  34  35
HETATM   35  N   UNL     1      38.263 -12.415  -0.422  1.00  0.00    -0.070 N 
HETATM   36  H   UNL     1      39.121 -12.984  -0.422  1.00  0.00     0.279 HD
BRANCH  35  37
HETATM   37  C   UNL     1      38.741 -10.972  -0.332  1.00  0.00     0.230 C 
HETATM   38  C   UNL     1      37.741 -10.007  -0.938  1.00  0.00     0.034 C 
ENDBRANCH  35  37
BRANCH  35  39
HETATM   39  C   UNL     1      37.602 -12.677  -1.763  1.00  0.00     0.230 C 
HETATM   40  C   UNL     1      38.407 -13.649  -2.605  1.00  0.00     0.034 C 
ENDBRANCH  35  39
ENDBRANCH  34  35
ENDBRANCH  33  34
ENDBRANCH   1  33
TORSDOF 14
ENDMDL
MODEL 7
REMARK VINA RESULT:      -7.5      2.319      3.287
REMARK  14 active torsions:
REMARK  status: ('A' for Active; 'I' for Inactive)
REMARK    1  A    between atoms: C_2  and  N_3 
REMARK    2  A    between atoms: N_3  and  C_5 
REMARK    3  A    between atoms: N_3  and  C_37 
REMARK    4  A    between atoms: C_5  and  C_6 
REMARK    5  A    between atoms: C_6  and  N_7 
REMARK    6  A    between atoms: C_10  and  O_11 
REMARK    7  A    between atoms: C_12  and  C_13 
REMARK    8  A    between atoms: C_13  and  C_14 
REMARK    9  A    between atoms: C_18  and  O_19 
REMARK   10  A    between atoms: O_19  and  C_20 
REMARK   11  A    between atoms: C_20  and  C_21 
REMARK   12  A    between atoms: C_27  and  C_28 
REMARK   13  A    between atoms: C_30  and  O_31 
REMARK   14  A    between atoms: C_33  and  O_34 
ROOT
HETATM    1  N   UNL     1      39.185 -13.320   1.647  1.00  0.00    -0.332 N 
HETATM    2  C   UNL     1      39.344 -12.387   2.646  1.00  0.00     0.278 A 
HETATM    3  O   UNL     1      38.501 -11.629   3.090  1.00  0.00    -0.265 OA
HETATM    4  C   UNL     1      40.727 -12.505   3.150  1.00  0.00     0.146 A 
HETATM    5  C   UNL     1      41.291 -13.532   2.503  1.00  0.00     0.059 A 
HETATM    6  C   UNL     1      40.399 -14.099   1.440  1.00  0.00     0.161 A 
ENDROOT
BRANCH   5   7
HETATM    7  C   UNL     1      42.595 -14.177   2.761  1.00  0.00     0.193 C 
HETATM    8  O   UNL     1      43.602 -13.488   2.893  1.00  0.00    -0.287 OA
BRANCH   7   9
HETATM    9  C   UNL     1      42.729 -15.655   2.739  1.00  0.00     0.015 A 
HETATM   10  C   UNL     1      42.441 -16.369   3.907  1.00  0.00     0.025 A 
HETATM   11  C   UNL     1      42.637 -17.759   3.962  1.00  0.00    -0.028 A 
HETATM   12  C   UNL     1      42.334 -18.508   5.231  1.00  0.00     0.051 C 
HETATM   13  C   UNL     1      43.160 -18.429   2.841  1.00  0.00     0.074 A 
HETATM   14  C   UNL     1      43.442 -17.712   1.675  1.00  0.00     0.038 A 
HETATM   15  C   UNL     1      43.242 -16.330   1.627  1.00  0.00     0.018 A 
BRANCH  13  16
HETATM   16  O   UNL     1      43.346 -19.779   2.974  1.00  0.00    -0.350 OA
BRANCH  16  17
HETATM   17  C   UNL     1      44.698 -20.227   3.105  1.00  0.00     0.179 C 
BRANCH  17  18
HETATM   18  C   UNL     1      44.799 -21.669   2.588  1.00  0.00     0.002 C 
HETATM   19  C   UNL     1      44.630 -22.678   3.724  1.00  0.00     0.011 C 
HETATM   20  C   UNL     1      43.756 -21.916   1.498  1.00  0.00     0.011 C 
ENDBRANCH  17  18
ENDBRANCH  16  17
ENDBRANCH  13  16
ENDBRANCH   7   9
ENDBRANCH   5   7
BRANCH   4  21
HETATM   21  O   UNL     1      41.227 -11.744   4.161  1.00  0.00    -0.355 OA
HETATM   22  H   UNL     1      41.678 -12.351   4.782  1.00  0.00     0.218 HD
ENDBRANCH   4  21
BRANCH   6  23
HETATM   23  C   UNL     1      40.878 -13.955   0.006  1.00  0.00    -0.028 A 
HETATM   24  C   UNL     1      40.647 -15.002  -0.908  1.00  0.00     0.049 A 
HETATM   25  C   UNL     1      41.052 -14.891  -2.239  1.00  0.00     0.101 A 
HETATM   26  C   UNL     1      41.673 -13.712  -2.659  1.00  0.00     0.099 A 
HETATM   27  C   UNL     1      41.933 -12.674  -1.775  1.00  0.00     0.040 A 
HETATM   28  C   UNL     1      41.547 -12.799  -0.441  1.00  0.00     0.012 A 
BRANCH  25  29
HETATM   29  O   UNL     1      40.874 -15.838  -3.214  1.00  0.00    -0.353 OA
HETATM   30  C   UNL     1      39.550 -15.960  -3.730  1.00  0.00     0.210 C 
ENDBRANCH  25  29
BRANCH  26  31
HETATM   31  O   UNL     1      42.058 -13.558  -3.962  1.00  0.00    -0.358 OA
HETATM   32  H   UNL     1      41.536 -14.214  -4.466  1.00  0.00     0.218 HD
ENDBRANCH  26  31
ENDBRANCH   6  23
BRANCH   1  33
HETATM   33  C   UNL     1      37.892 -13.713   1.116  1.00  0.00     0.155 C 
BRANCH  33  34
HETATM   34  C   UNL     1      37.241 -12.616   0.253  1.00  0.00     0.254 C 
BRANCH  34  35
HETATM   35  N   UNL     1      38.176 -12.038  -0.808  1.00  0.00    -0.070 N 
HETATM   36  H   UNL     1      39.123 -12.280  -0.485  1.00  0.00     0.279 HD
BRANCH  35  37
HETATM   37  C   UNL     1      38.162 -10.519  -0.904  1.00  0.00     0.230 C 
HETATM   38  C   UNL     1      39.327  -9.895  -0.161  1.00  0.00     0.034 C 
ENDBRANCH  35  37
BRANCH  35  39
HETATM   39  C   UNL     1      38.044 -12.663  -2.186  1.00  0.00     0.230 C 
HETATM   40  C   UNL     1      37.968 -11.608  -3.274  1.00  0.00     0.034 C 
ENDBRANCH  35  39
ENDBRANCH  34  35
ENDBRANCH  33  34
ENDBRANCH   1  33
TORSDOF 14
ENDMDL
MODEL 8
REMARK VINA RESULT:      -7.5      5.662      9.229
REMARK  14 active torsions:
REMARK  status: ('A' for Active; 'I' for Inactive)
REMARK    1  A    between atoms: C_2  and  N_3 
REMARK    2  A    between atoms: N_3  and  C_5 
REMARK    3  A    between atoms: N_3  and  C_37 
REMARK    4  A    between atoms: C_5  and  C_6 
REMARK    5  A    between atoms: C_6  and  N_7 
REMARK    6  A    between atoms: C_10  and  O_11 
REMARK    7  A    between atoms: C_12  and  C_13 
REMARK    8  A    between atoms: C_13  and  C_14 
REMARK    9  A    between atoms: C_18  and  O_19 
REMARK   10  A    between atoms: O_19  and  C_20 
REMARK   11  A    between atoms: C_20  and  C_21 
REMARK   12  A    between atoms: C_27  and  C_28 
REMARK   13  A    between atoms: C_30  and  O_31 
REMARK   14  A    between atoms: C_33  and  O_34 
ROOT
HETATM    1  N   UNL     1      41.593 -14.196   3.065  1.00  0.00    -0.332 N 
HETATM    2  C   UNL     1      41.942 -12.913   2.708  1.00  0.00     0.278 A 
HETATM    3  O   UNL     1      42.530 -12.562   1.702  1.00  0.00    -0.265 OA
HETATM    4  C   UNL     1      41.411 -12.003   3.742  1.00  0.00     0.146 A 
HETATM    5  C   UNL     1      40.717 -12.755   4.605  1.00  0.00     0.059 A 
HETATM    6  C   UNL     1      40.825 -14.220   4.303  1.00  0.00     0.161 A 
ENDROOT
BRANCH   5   7
HETATM    7  C   UNL     1      39.845 -12.316   5.713  1.00  0.00     0.193 C 
HETATM    8  O   UNL     1      38.625 -12.395   5.599  1.00  0.00    -0.287 OA
BRANCH   7   9
HETATM    9  C   UNL     1      40.417 -11.662   6.916  1.00  0.00     0.015 A 
HETATM   10  C   UNL     1      39.540 -11.165   7.887  1.00  0.00     0.025 A 
HETATM   11  C   UNL     1      40.031 -10.461   8.999  1.00  0.00    -0.028 A 
HETATM   12  C   UNL     1      39.072  -9.922  10.026  1.00  0.00     0.051 C 
HETATM   13  C   UNL     1      41.414 -10.229   9.117  1.00  0.00     0.074 A 
HETATM   14  C   UNL     1      42.285 -10.732   8.148  1.00  0.00     0.038 A 
HETATM   15  C   UNL     1      41.790 -11.433   7.045  1.00  0.00     0.018 A 
BRANCH  13  16
HETATM   16  O   UNL     1      41.817  -9.517  10.215  1.00  0.00    -0.350 OA
BRANCH  16  17
HETATM   17  C   UNL     1      43.064  -9.899  10.801  1.00  0.00     0.179 C 
BRANCH  17  18
HETATM   18  C   UNL     1      42.801 -10.503  12.188  1.00  0.00     0.002 C 
HETATM   19  C   UNL     1      43.348 -11.929  12.284  1.00  0.00     0.011 C 
HETATM   20  C   UNL     1      43.417  -9.624  13.275  1.00  0.00     0.011 C 
ENDBRANCH  17  18
ENDBRANCH  16  17
ENDBRANCH  13  16
ENDBRANCH   7   9
ENDBRANCH   5   7
BRANCH   4  21
HETATM   21  O   UNL     1      41.555 -10.650   3.699  1.00  0.00    -0.355 OA
HETATM   22  H   UNL     1      41.509 -10.327   4.621  1.00  0.00     0.218 HD
ENDBRANCH   4  21
BRANCH   6  23
HETATM   23  C   UNL     1      41.529 -15.074   5.342  1.00  0.00    -0.028 A 
HETATM   24  C   UNL     1      42.778 -14.659   5.847  1.00  0.00     0.049 A 
HETATM   25  C   UNL     1      43.439 -15.408   6.822  1.00  0.00     0.101 A 
HETATM   26  C   UNL     1      42.831 -16.568   7.308  1.00  0.00     0.099 A 
HETATM   27  C   UNL     1      41.613 -17.012   6.814  1.00  0.00     0.040 A 
HETATM   28  C   UNL     1      40.967 -16.272   5.824  1.00  0.00     0.012 A 
BRANCH  25  29
HETATM   29  O   UNL     1      44.648 -15.098   7.388  1.00  0.00    -0.353 OA
HETATM   30  C   UNL     1      45.205 -13.839   7.018  1.00  0.00     0.210 C 
ENDBRANCH  25  29
BRANCH  26  31
HETATM   31  O   UNL     1      43.439 -17.310   8.283  1.00  0.00    -0.358 OA
HETATM   32  H   UNL     1      44.155 -17.797   7.830  1.00  0.00     0.218 HD
ENDBRANCH  26  31
ENDBRANCH   6  23
BRANCH   1  33
HETATM   33  C   UNL     1      41.672 -15.330   2.161  1.00  0.00     0.155 C 
BRANCH  33  34
HETATM   34  C   UNL     1      40.299 -15.749   1.606  1.00  0.00     0.254 C 
BRANCH  34  35
HETATM   35  N   UNL     1      40.047 -15.278   0.175  1.00  0.00    -0.070 N 
HETATM   36  H   UNL     1      39.511 -16.040  -0.263  1.00  0.00     0.279 HD
BRANCH  35  37
HETATM   37  C   UNL     1      41.302 -15.133  -0.674  1.00  0.00     0.230 C 
HETATM   38  C   UNL     1      40.978 -15.050  -2.153  1.00  0.00     0.034 C 
ENDBRANCH  35  37
BRANCH  35  39
HETATM   39  C   UNL     1      39.172 -14.043   0.052  1.00  0.00     0.230 C 
HETATM   40  C   UNL     1      38.374 -13.792   1.317  1.00  0.00     0.034 C 
ENDBRANCH  35  39
ENDBRANCH  34  35
ENDBRANCH  33  34
ENDBRANCH   1  33
TORSDOF 14
ENDMDL
MODEL 9
REMARK VINA RESULT:      -7.4      4.638      8.135
REMARK  14 active torsions:
REMARK  status: ('A' for Active; 'I' for Inactive)
REMARK    1  A    between atoms: C_2  and  N_3 
REMARK    2  A    between atoms: N_3  and  C_5 
REMARK    3  A    between atoms: N_3  and  C_37 
REMARK    4  A    between atoms: C_5  and  C_6 
REMARK    5  A    between atoms: C_6  and  N_7 
REMARK    6  A    between atoms: C_10  and  O_11 
REMARK    7  A    between atoms: C_12  and  C_13 
REMARK    8  A    between atoms: C_13  and  C_14 
REMARK    9  A    between atoms: C_18  and  O_19 
REMARK   10  A    between atoms: O_19  and  C_20 
REMARK   11  A    between atoms: C_20  and  C_21 
REMARK   12  A    between atoms: C_27  and  C_28 
REMARK   13  A    between atoms: C_30  and  O_31 
REMARK   14  A    between atoms: C_33  and  O_34 
ROOT
HETATM    1  N   UNL     1      40.633 -12.133   5.850  1.00  0.00    -0.332 N 
HETATM    2  C   UNL     1      39.498 -12.110   5.071  1.00  0.00     0.278 A 
HETATM    3  O   UNL     1      38.395 -11.703   5.387  1.00  0.00    -0.265 OA
HETATM    4  C   UNL     1      39.865 -12.614   3.733  1.00  0.00     0.146 A 
HETATM    5  C   UNL     1      41.186 -12.832   3.747  1.00  0.00     0.059 A 
HETATM    6  C   UNL     1      41.787 -12.620   5.105  1.00  0.00     0.161 A 
ENDROOT
BRANCH   5   7
HETATM    7  C   UNL     1      42.075 -13.166   2.616  1.00  0.00     0.193 C 
HETATM    8  O   UNL     1      42.450 -12.282   1.852  1.00  0.00    -0.287 OA
BRANCH   7   9
HETATM    9  C   UNL     1      42.424 -14.576   2.315  1.00  0.00     0.015 A 
HETATM   10  C   UNL     1      41.442 -15.404   1.760  1.00  0.00     0.025 A 
HETATM   11  C   UNL     1      41.697 -16.768   1.539  1.00  0.00    -0.028 A 
HETATM   12  C   UNL     1      40.625 -17.645   0.953  1.00  0.00     0.051 C 
HETATM   13  C   UNL     1      42.942 -17.308   1.912  1.00  0.00     0.074 A 
HETATM   14  C   UNL     1      43.921 -16.477   2.463  1.00  0.00     0.038 A 
HETATM   15  C   UNL     1      43.660 -15.121   2.677  1.00  0.00     0.018 A 
BRANCH  13  16
HETATM   16  O   UNL     1      43.112 -18.648   1.688  1.00  0.00    -0.350 OA
BRANCH  16  17
HETATM   17  C   UNL     1      44.321 -19.230   2.183  1.00  0.00     0.179 C 
BRANCH  17  18
HETATM   18  C   UNL     1      44.003 -20.602   2.793  1.00  0.00     0.002 C 
HETATM   19  C   UNL     1      44.185 -21.721   1.766  1.00  0.00     0.011 C 
HETATM   20  C   UNL     1      44.882 -20.856   4.017  1.00  0.00     0.011 C 
ENDBRANCH  17  18
ENDBRANCH  16  17
ENDBRANCH  13  16
ENDBRANCH   7   9
ENDBRANCH   5   7
BRANCH   4  21
HETATM   21  O   UNL     1      38.987 -12.709   2.698  1.00  0.00    -0.355 OA
HETATM   22  H   UNL     1      38.863 -11.806   2.342  1.00  0.00     0.218 HD
ENDBRANCH   4  21
BRANCH   6  23
HETATM   23  C   UNL     1      42.372 -13.846   5.783  1.00  0.00    -0.028 A 
HETATM   24  C   UNL     1      41.643 -15.052   5.779  1.00  0.00     0.049 A 
HETATM   25  C   UNL     1      42.164 -16.204   6.372  1.00  0.00     0.101 A 
HETATM   26  C   UNL     1      43.434 -16.148   6.951  1.00  0.00     0.099 A 
HETATM   27  C   UNL     1      44.164 -14.969   6.989  1.00  0.00     0.040 A 
HETATM   28  C   UNL     1      43.630 -13.816   6.416  1.00  0.00     0.012 A 
BRANCH  25  29
HETATM   29  O   UNL     1      41.550 -17.428   6.421  1.00  0.00    -0.353 OA
HETATM   30  C   UNL     1      41.440 -18.121   5.180  1.00  0.00     0.210 C 
ENDBRANCH  25  29
BRANCH  26  31
HETATM   31  O   UNL     1      43.986 -17.265   7.516  1.00  0.00    -0.358 OA
HETATM   32  H   UNL     1      44.903 -17.015   7.743  1.00  0.00     0.218 HD
ENDBRANCH  26  31
ENDBRANCH   6  23
BRANCH   1  33
HETATM   33  C   UNL     1      40.746 -11.443   7.122  1.00  0.00     0.155 C 
BRANCH  33  34
HETATM   34  C   UNL     1      42.175 -10.949   7.409  1.00  0.00     0.254 C 
BRANCH  34  35
HETATM   35  N   UNL     1      42.623 -11.175   8.852  1.00  0.00    -0.070 N 
HETATM   36  H   UNL     1      42.234 -12.093   9.108  1.00  0.00     0.279 HD
BRANCH  35  37
HETATM   37  C   UNL     1      42.033 -10.196   9.858  1.00  0.00     0.230 C 
HETATM   38  C   UNL     1      40.969 -10.845  10.721  1.00  0.00     0.034 C 
ENDBRANCH  35  37
BRANCH  35  39
HETATM   39  C   UNL     1      44.124 -11.301   9.045  1.00  0.00     0.230 C 
HETATM   40  C   UNL     1      44.550 -10.855  10.431  1.00  0.00     0.034 C 
ENDBRANCH  35  39
ENDBRANCH  34  35
ENDBRANCH  33  34
ENDBRANCH   1  33
TORSDOF 14
ENDMDL
MODEL 10
REMARK VINA RESULT:      -7.4      5.639      9.466
REMARK  14 active torsions:
REMARK  status: ('A' for Active; 'I' for Inactive)
REMARK    1  A    between atoms: C_2  and  N_3 
REMARK    2  A    between atoms: N_3  and  C_5 
REMARK    3  A    between atoms: N_3  and  C_37 
REMARK    4  A    between atoms: C_5  and  C_6 
REMARK    5  A    between atoms: C_6  and  N_7 
REMARK    6  A    between atoms: C_10  and  O_11 
REMARK    7  A    between atoms: C_12  and  C_13 
REMARK    8  A    between atoms: C_13  and  C_14 
REMARK    9  A    between atoms: C_18  and  O_19 
REMARK   10  A    between atoms: O_19  and  C_20 
REMARK   11  A    between atoms: C_20  and  C_21 
REMARK   12  A    between atoms: C_27  and  C_28 
REMARK   13  A    between atoms: C_30  and  O_31 
REMARK   14  A    between atoms: C_33  and  O_34 
ROOT
HETATM    1  N   UNL     1      41.362 -13.827   2.993  1.00  0.00    -0.332 N 
HETATM    2  C   UNL     1      41.754 -12.547   2.676  1.00  0.00     0.278 A 
HETATM    3  O   UNL     1      42.313 -12.176   1.661  1.00  0.00    -0.265 OA
HETATM    4  C   UNL     1      41.312 -11.662   3.773  1.00  0.00     0.146 A 
HETATM    5  C   UNL     1      40.623 -12.421   4.633  1.00  0.00     0.059 A 
HETATM    6  C   UNL     1      40.650 -13.874   4.263  1.00  0.00     0.161 A 
ENDROOT
BRANCH   5   7
HETATM    7  C   UNL     1      39.822 -11.994   5.798  1.00  0.00     0.193 C 
HETATM    8  O   UNL     1      38.600 -11.920   5.706  1.00  0.00    -0.287 OA
BRANCH   7   9
HETATM    9  C   UNL     1      40.481 -11.534   7.045  1.00  0.00     0.015 A 
HETATM   10  C   UNL     1      39.678 -11.154   8.126  1.00  0.00     0.025 A 
HETATM   11  C   UNL     1      40.252 -10.629   9.295  1.00  0.00    -0.028 A 
HETATM   12  C   UNL     1      39.371 -10.214  10.441  1.00  0.00     0.051 C 
HETATM   13  C   UNL     1      41.647 -10.454   9.362  1.00  0.00     0.074 A 
HETATM   14  C   UNL     1      42.446 -10.838   8.282  1.00  0.00     0.038 A 
HETATM   15  C   UNL     1      41.867 -11.362   7.124  1.00  0.00     0.018 A 
BRANCH  13  16
HETATM   16  O   UNL     1      42.134  -9.915  10.523  1.00  0.00    -0.350 OA
BRANCH  16  17
HETATM   17  C   UNL     1      43.553  -9.951  10.697  1.00  0.00     0.179 C 
BRANCH  17  18
HETATM   18  C   UNL     1      43.894 -10.930  11.829  1.00  0.00     0.002 C 
HETATM   19  C   UNL     1      42.747 -11.033  12.836  1.00  0.00     0.011 C 
HETATM   20  C   UNL     1      44.224 -12.307  11.257  1.00  0.00     0.011 C 
ENDBRANCH  17  18
ENDBRANCH  16  17
ENDBRANCH  13  16
ENDBRANCH   7   9
ENDBRANCH   5   7
BRANCH   4  21
HETATM   21  O   UNL     1      41.516 -10.316   3.782  1.00  0.00    -0.355 OA
HETATM   22  H   UNL     1      41.003  -9.953   4.531  1.00  0.00     0.218 HD
ENDBRANCH   4  21
BRANCH   6  23
HETATM   23  C   UNL     1      41.358 -14.805   5.230  1.00  0.00    -0.028 A 
HETATM   24  C   UNL     1      42.673 -14.503   5.642  1.00  0.00     0.049 A 
HETATM   25  C   UNL     1      43.343 -15.325   6.550  1.00  0.00     0.101 A 
HETATM   26  C   UNL     1      42.681 -16.442   7.064  1.00  0.00     0.099 A 
HETATM   27  C   UNL     1      41.396 -16.775   6.660  1.00  0.00     0.040 A 
HETATM   28  C   UNL     1      40.739 -15.964   5.735  1.00  0.00     0.012 A 
BRANCH  25  29
HETATM   29  O   UNL     1      44.613 -15.126   7.025  1.00  0.00    -0.353 OA
HETATM   30  C   UNL     1      44.977 -13.772   7.284  1.00  0.00     0.210 C 
ENDBRANCH  25  29
BRANCH  26  31
HETATM   31  O   UNL     1      43.298 -17.253   7.976  1.00  0.00    -0.358 OA
HETATM   32  H   UNL     1      42.890 -17.034   8.837  1.00  0.00     0.218 HD
ENDBRANCH  26  31
ENDBRANCH   6  23
BRANCH   1  33
HETATM   33  C   UNL     1      41.348 -14.921   2.037  1.00  0.00     0.155 C 
BRANCH  33  34
HETATM   34  C   UNL     1      42.670 -15.710   2.012  1.00  0.00     0.254 C 
BRANCH  34  35
HETATM   35  N   UNL     1      42.573 -17.087   2.665  1.00  0.00    -0.070 N 
HETATM   36  H   UNL     1      41.752 -17.029   3.284  1.00  0.00     0.279 HD
BRANCH  35  37
HETATM   37  C   UNL     1      43.738 -17.438   3.580  1.00  0.00     0.230 C 
HETATM   38  C   UNL     1      43.540 -18.780   4.259  1.00  0.00     0.034 C 
ENDBRANCH  35  37
BRANCH  35  39
HETATM   39  C   UNL     1      42.280 -18.230   1.709  1.00  0.00     0.230 C 
HETATM   40  C   UNL     1      40.920 -18.079   1.054  1.00  0.00     0.034 C 
ENDBRANCH  35  39
ENDBRANCH  34  35
ENDBRANCH  33  34
ENDBRANCH   1  33
TORSDOF 14
ENDMDL
