MODEL 1
REMARK VINA RESULT:      -9.0      0.000      0.000
REMARK  3 active torsions:
REMARK  status: ('A' for Active; 'I' for Inactive)
REMARK    1  A    between atoms: C_9  and  N_10 
REMARK       I    between atoms: N_10  and  C_11 
REMARK    2  A    between atoms: C_11  and  C_12 
REMARK    3  A    between atoms: N_14  and  C_15 
ROOT
HETATM    1  N   UNL     1      40.975 -14.894   3.431  1.00  0.00    -0.322 N 
HETATM    2  C   UNL     1      41.020 -15.163   4.784  1.00  0.00     0.276 C 
HETATM    3  O   UNL     1      40.202 -14.871   5.644  1.00  0.00    -0.266 OA
HETATM    4  H   UNL     1      41.777 -15.225   2.899  1.00  0.00     0.169 HD
ENDROOT
BRANCH   2   5
HETATM    5  C   UNL     1      42.245 -15.981   5.183  1.00  0.00     0.145 A 
HETATM    6  N   UNL     1      42.492 -17.072   4.528  1.00  0.00    -0.159 NA
HETATM    7  N   UNL     1      43.600 -17.826   4.915  1.00  0.00    -0.197 N 
HETATM    8  C   UNL     1      44.413 -17.471   6.005  1.00  0.00     0.268 A 
HETATM    9  O   UNL     1      45.395 -18.064   6.442  1.00  0.00    -0.266 OA
HETATM   10  C   UNL     1      44.054 -16.211   6.702  1.00  0.00     0.079 A 
HETATM   11  C   UNL     1      43.020 -15.467   6.318  1.00  0.00     0.044 A 
BRANCH   7  12
HETATM   12  C   UNL     1      43.832 -18.983   4.085  1.00  0.00     0.062 A 
HETATM   13  C   UNL     1      44.522 -20.122   4.537  1.00  0.00     0.035 A 
HETATM   14  C   UNL     1      44.748 -21.222   3.698  1.00  0.00     0.044 A 
HETATM   15  C   UNL     1      44.288 -21.197   2.392  1.00  0.00     0.116 A 
HETATM   16  F   UNL     1      44.509 -22.246   1.590  1.00  0.00    -0.206 F 
HETATM   17  C   UNL     1      43.599 -20.096   1.909  1.00  0.00     0.044 A 
HETATM   18  C   UNL     1      43.371 -19.001   2.751  1.00  0.00     0.035 A 
ENDBRANCH   7  12
ENDBRANCH   2   5
BRANCH   1  19
HETATM   19  C   UNL     1      39.945 -14.237   2.730  1.00  0.00     0.035 A 
HETATM   20  C   UNL     1      39.635 -12.885   2.912  1.00  0.00     0.039 A 
HETATM   21  C   UNL     1      38.589 -12.332   2.187  1.00  0.00    -0.022 A 
HETATM   22  C   UNL     1      38.117 -10.919   2.194  1.00  0.00     0.274 C 
HETATM   23  C   UNL     1      37.847 -13.097   1.285  1.00  0.00    -0.025 A 
HETATM   24  N   UNL     1      36.816 -10.946   1.401  1.00  0.00    -0.067 N 
HETATM   25  C   UNL     1      36.575  -9.735   0.573  1.00  0.00     0.270 C 
HETATM   26  H   UNL     1      36.065 -11.023   2.097  1.00  0.00     0.280 HD
HETATM   27  C   UNL     1      36.806 -12.258   0.624  1.00  0.00     0.273 C 
HETATM   28  C   UNL     1      38.144 -14.433   1.082  1.00  0.00     0.012 A 
HETATM   29  C   UNL     1      39.199 -14.998   1.810  1.00  0.00     0.030 A 
ENDBRANCH   1  19
TORSDOF 3
ENDMDL
MODEL 2
REMARK VINA RESULT:      -9.0      1.845      2.216
REMARK  3 active torsions:
REMARK  status: ('A' for Active; 'I' for Inactive)
REMARK    1  A    between atoms: C_9  and  N_10 
REMARK       I    between atoms: N_10  and  C_11 
REMARK    2  A    between atoms: C_11  and  C_12 
REMARK    3  A    between atoms: N_14  and  C_15 
ROOT
HETATM    1  N   UNL     1      41.625 -15.661   2.777  1.00  0.00    -0.322 N 
HETATM    2  C   UNL     1      42.168 -15.020   3.873  1.00  0.00     0.276 C 
HETATM    3  O   UNL     1      41.992 -13.868   4.241  1.00  0.00    -0.266 OA
HETATM    4  H   UNL     1      41.919 -16.628   2.654  1.00  0.00     0.169 HD
ENDROOT
BRANCH   2   5
HETATM    5  C   UNL     1      43.043 -15.938   4.721  1.00  0.00     0.145 A 
HETATM    6  N   UNL     1      43.231 -17.154   4.312  1.00  0.00    -0.159 NA
HETATM    7  N   UNL     1      44.014 -17.993   5.106  1.00  0.00    -0.197 N 
HETATM    8  C   UNL     1      44.554 -17.582   6.337  1.00  0.00     0.268 A 
HETATM    9  O   UNL     1      45.237 -18.236   7.120  1.00  0.00    -0.266 OA
HETATM   10  C   UNL     1      44.284 -16.177   6.729  1.00  0.00     0.079 A 
HETATM   11  C   UNL     1      43.569 -15.359   5.962  1.00  0.00     0.044 A 
BRANCH   7  12
HETATM   12  C   UNL     1      44.222 -19.302   4.536  1.00  0.00     0.062 A 
HETATM   13  C   UNL     1      44.563 -20.426   5.308  1.00  0.00     0.035 A 
HETATM   14  C   UNL     1      44.778 -21.680   4.720  1.00  0.00     0.044 A 
HETATM   15  C   UNL     1      44.655 -21.827   3.349  1.00  0.00     0.116 A 
HETATM   16  F   UNL     1      44.866 -23.024   2.788  1.00  0.00    -0.206 F 
HETATM   17  C   UNL     1      44.316 -20.745   2.553  1.00  0.00     0.044 A 
HETATM   18  C   UNL     1      44.098 -19.495   3.143  1.00  0.00     0.035 A 
ENDBRANCH   7  12
ENDBRANCH   2   5
BRANCH   1  19
HETATM   19  C   UNL     1      40.714 -15.127   1.846  1.00  0.00     0.035 A 
HETATM   20  C   UNL     1      41.092 -14.670   0.579  1.00  0.00     0.039 A 
HETATM   21  C   UNL     1      40.122 -14.143  -0.262  1.00  0.00    -0.022 A 
HETATM   22  C   UNL     1      40.293 -13.640  -1.654  1.00  0.00     0.274 C 
HETATM   23  C   UNL     1      38.785 -14.061   0.132  1.00  0.00    -0.025 A 
HETATM   24  N   UNL     1      38.962 -12.977  -1.988  1.00  0.00    -0.067 N 
HETATM   25  C   UNL     1      38.534 -13.133  -3.404  1.00  0.00     0.270 C 
HETATM   26  H   UNL     1      39.090 -11.977  -1.791  1.00  0.00     0.280 HD
HETATM   27  C   UNL     1      37.954 -13.481  -0.961  1.00  0.00     0.273 C 
HETATM   28  C   UNL     1      38.389 -14.516   1.378  1.00  0.00     0.012 A 
HETATM   29  C   UNL     1      39.362 -15.051   2.232  1.00  0.00     0.030 A 
ENDBRANCH   1  19
TORSDOF 3
ENDMDL
MODEL 3
REMARK VINA RESULT:      -8.8      4.999      9.460
REMARK  3 active torsions:
REMARK  status: ('A' for Active; 'I' for Inactive)
REMARK    1  A    between atoms: C_9  and  N_10 
REMARK       I    between atoms: N_10  and  C_11 
REMARK    2  A    between atoms: C_11  and  C_12 
REMARK    3  A    between atoms: N_14  and  C_15 
ROOT
HETATM    1  N   UNL     1      42.806 -16.560   0.806  1.00  0.00    -0.322 N 
HETATM    2  C   UNL     1      41.537 -16.073   0.563  1.00  0.00     0.276 C 
HETATM    3  O   UNL     1      40.515 -16.267   1.204  1.00  0.00    -0.266 OA
HETATM    4  H   UNL     1      43.513 -16.276   0.132  1.00  0.00     0.169 HD
ENDROOT
BRANCH   2   5
HETATM    5  C   UNL     1      41.484 -15.134  -0.639  1.00  0.00     0.145 A 
HETATM    6  N   UNL     1      41.755 -13.881  -0.449  1.00  0.00    -0.159 NA
HETATM    7  N   UNL     1      41.681 -13.026  -1.549  1.00  0.00    -0.197 N 
HETATM    8  C   UNL     1      41.283 -13.466  -2.823  1.00  0.00     0.268 A 
HETATM    9  O   UNL     1      41.167 -12.804  -3.851  1.00  0.00    -0.266 OA
HETATM   10  C   UNL     1      40.987 -14.914  -2.948  1.00  0.00     0.079 A 
HETATM   11  C   UNL     1      41.088 -15.744  -1.913  1.00  0.00     0.044 A 
BRANCH   7  12
HETATM   12  C   UNL     1      42.065 -11.667  -1.253  1.00  0.00     0.062 A 
HETATM   13  C   UNL     1      43.338 -11.151  -1.551  1.00  0.00     0.035 A 
HETATM   14  C   UNL     1      43.685  -9.831  -1.233  1.00  0.00     0.044 A 
HETATM   15  C   UNL     1      42.763  -9.008  -0.609  1.00  0.00     0.116 A 
HETATM   16  F   UNL     1      43.097  -7.749  -0.299  1.00  0.00    -0.206 F 
HETATM   17  C   UNL     1      41.496  -9.477  -0.302  1.00  0.00     0.044 A 
HETATM   18  C   UNL     1      41.150 -10.794  -0.626  1.00  0.00     0.035 A 
ENDBRANCH   7  12
ENDBRANCH   2   5
BRANCH   1  19
HETATM   19  C   UNL     1      43.210 -17.378   1.879  1.00  0.00     0.035 A 
HETATM   20  C   UNL     1      43.233 -16.943   3.208  1.00  0.00     0.039 A 
HETATM   21  C   UNL     1      43.665 -17.819   4.194  1.00  0.00    -0.022 A 
HETATM   22  C   UNL     1      43.732 -17.582   5.663  1.00  0.00     0.274 C 
HETATM   23  C   UNL     1      44.074 -19.117   3.884  1.00  0.00    -0.025 A 
HETATM   24  N   UNL     1      44.491 -18.784   6.211  1.00  0.00    -0.067 N 
HETATM   25  C   UNL     1      44.028 -19.249   7.546  1.00  0.00     0.270 C 
HETATM   26  H   UNL     1      45.470 -18.485   6.289  1.00  0.00     0.280 HD
HETATM   27  C   UNL     1      44.463 -19.851   5.123  1.00  0.00     0.273 C 
HETATM   28  C   UNL     1      44.049 -19.571   2.577  1.00  0.00     0.012 A 
HETATM   29  C   UNL     1      43.613 -18.693   1.576  1.00  0.00     0.030 A 
ENDBRANCH   1  19
TORSDOF 3
ENDMDL
MODEL 4
REMARK VINA RESULT:      -8.6      4.591      9.208
REMARK  3 active torsions:
REMARK  status: ('A' for Active; 'I' for Inactive)
REMARK    1  A    between atoms: C_9  and  N_10 
REMARK       I    between atoms: N_10  and  C_11 
REMARK    2  A    between atoms: C_11  and  C_12 
REMARK    3  A    between atoms: N_14  and  C_15 
ROOT
HETATM    1  N   UNL     1      42.517 -15.425   2.462  1.00  0.00    -0.322 N 
HETATM    2  C   UNL     1      43.103 -14.229   2.824  1.00  0.00     0.276 C 
HETATM    3  O   UNL     1      44.177 -14.048   3.379  1.00  0.00    -0.266 OA
HETATM    4  H   UNL     1      41.606 -15.341   2.016  1.00  0.00     0.169 HD
ENDROOT
BRANCH   2   5
HETATM    5  C   UNL     1      42.282 -13.015   2.398  1.00  0.00     0.145 A 
HETATM    6  N   UNL     1      42.527 -12.487   1.241  1.00  0.00    -0.159 NA
HETATM    7  N   UNL     1      41.788 -11.363   0.869  1.00  0.00    -0.197 N 
HETATM    8  C   UNL     1      40.837 -10.769   1.718  1.00  0.00     0.268 A 
HETATM    9  O   UNL     1      40.147  -9.777   1.504  1.00  0.00    -0.266 OA
HETATM   10  C   UNL     1      40.626 -11.436   3.026  1.00  0.00     0.079 A 
HETATM   11  C   UNL     1      41.301 -12.529   3.375  1.00  0.00     0.044 A 
BRANCH   7  12
HETATM   12  C   UNL     1      42.082 -10.889  -0.461  1.00  0.00     0.062 A 
HETATM   13  C   UNL     1      43.045  -9.899  -0.723  1.00  0.00     0.035 A 
HETATM   14  C   UNL     1      43.293  -9.446  -2.026  1.00  0.00     0.044 A 
HETATM   15  C   UNL     1      42.579  -9.977  -3.087  1.00  0.00     0.116 A 
HETATM   16  F   UNL     1      42.813  -9.540  -4.331  1.00  0.00    -0.206 F 
HETATM   17  C   UNL     1      41.624 -10.958  -2.872  1.00  0.00     0.044 A 
HETATM   18  C   UNL     1      41.382 -11.411  -1.570  1.00  0.00     0.035 A 
ENDBRANCH   7  12
ENDBRANCH   2   5
BRANCH   1  19
HETATM   19  C   UNL     1      43.050 -16.717   2.631  1.00  0.00     0.035 A 
HETATM   20  C   UNL     1      43.351 -17.265   3.883  1.00  0.00     0.039 A 
HETATM   21  C   UNL     1      43.891 -18.542   3.945  1.00  0.00    -0.022 A 
HETATM   22  C   UNL     1      44.248 -19.326   5.160  1.00  0.00     0.274 C 
HETATM   23  C   UNL     1      44.136 -19.284   2.788  1.00  0.00    -0.025 A 
HETATM   24  N   UNL     1      45.002 -20.538   4.626  1.00  0.00    -0.067 N 
HETATM   25  C   UNL     1      44.761 -21.796   5.382  1.00  0.00     0.270 C 
HETATM   26  H   UNL     1      45.999 -20.299   4.695  1.00  0.00     0.280 HD
HETATM   27  C   UNL     1      44.692 -20.623   3.136  1.00  0.00     0.273 C 
HETATM   28  C   UNL     1      43.835 -18.765   1.541  1.00  0.00     0.012 A 
HETATM   29  C   UNL     1      43.289 -17.477   1.470  1.00  0.00     0.030 A 
ENDBRANCH   1  19
TORSDOF 3
ENDMDL
MODEL 5
REMARK VINA RESULT:      -8.5      4.500      9.226
REMARK  3 active torsions:
REMARK  status: ('A' for Active; 'I' for Inactive)
REMARK    1  A    between atoms: C_9  and  N_10 
REMARK       I    between atoms: N_10  and  C_11 
REMARK    2  A    between atoms: C_11  and  C_12 
REMARK    3  A    between atoms: N_14  and  C_15 
ROOT
HETATM    1  N   UNL     1      42.472 -15.386   3.861  1.00  0.00    -0.322 N 
HETATM    2  C   UNL     1      43.104 -14.170   3.693  1.00  0.00     0.276 C 
HETATM    3  O   UNL     1      44.259 -13.956   3.353  1.00  0.00    -0.266 OA
HETATM    4  H   UNL     1      41.501 -15.329   4.161  1.00  0.00     0.169 HD
ENDROOT
BRANCH   2   5
HETATM    5  C   UNL     1      42.173 -12.983   3.919  1.00  0.00     0.145 A 
HETATM    6  N   UNL     1      41.875 -12.663   5.139  1.00  0.00    -0.159 NA
HETATM    7  N   UNL     1      41.003 -11.592   5.336  1.00  0.00    -0.197 N 
HETATM    8  C   UNL     1      40.413 -10.892   4.270  1.00  0.00     0.268 A 
HETATM    9  O   UNL     1      39.625  -9.951   4.326  1.00  0.00    -0.266 OA
HETATM   10  C   UNL     1      40.805 -11.328   2.908  1.00  0.00     0.079 A 
HETATM   11  C   UNL     1      41.663 -12.326   2.710  1.00  0.00     0.044 A 
BRANCH   7  12
HETATM   12  C   UNL     1      40.786 -11.269   6.726  1.00  0.00     0.062 A 
HETATM   13  C   UNL     1      41.738 -10.600   7.513  1.00  0.00     0.035 A 
HETATM   14  C   UNL     1      41.504 -10.319   8.866  1.00  0.00     0.044 A 
HETATM   15  C   UNL     1      40.310 -10.707   9.452  1.00  0.00     0.116 A 
HETATM   16  F   UNL     1      40.089 -10.444  10.746  1.00  0.00    -0.206 F 
HETATM   17  C   UNL     1      39.343 -11.366   8.710  1.00  0.00     0.044 A 
HETATM   18  C   UNL     1      39.579 -11.640   7.358  1.00  0.00     0.035 A 
ENDBRANCH   7  12
ENDBRANCH   2   5
BRANCH   1  19
HETATM   19  C   UNL     1      43.021 -16.665   3.647  1.00  0.00     0.035 A 
HETATM   20  C   UNL     1      43.414 -17.514   4.687  1.00  0.00     0.039 A 
HETATM   21  C   UNL     1      43.962 -18.750   4.373  1.00  0.00    -0.022 A 
HETATM   22  C   UNL     1      44.408 -19.817   5.312  1.00  0.00     0.274 C 
HETATM   23  C   UNL     1      44.126 -19.157   3.048  1.00  0.00    -0.025 A 
HETATM   24  N   UNL     1      45.127 -20.829   4.428  1.00  0.00    -0.067 N 
HETATM   25  C   UNL     1      44.945 -22.246   4.841  1.00  0.00     0.270 C 
HETATM   26  H   UNL     1      46.125 -20.595   4.489  1.00  0.00     0.280 HD
HETATM   27  C   UNL     1      44.710 -20.528   2.993  1.00  0.00     0.273 C 
HETATM   28  C   UNL     1      43.734 -18.337   2.005  1.00  0.00     0.012 A 
HETATM   29  C   UNL     1      43.179 -17.088   2.313  1.00  0.00     0.030 A 
ENDBRANCH   1  19
TORSDOF 3
ENDMDL
MODEL 6
REMARK VINA RESULT:      -8.4      5.528      9.673
REMARK  3 active torsions:
REMARK  status: ('A' for Active; 'I' for Inactive)
REMARK    1  A    between atoms: C_9  and  N_10 
REMARK       I    between atoms: N_10  and  C_11 
REMARK    2  A    between atoms: C_11  and  C_12 
REMARK    3  A    between atoms: N_14  and  C_15 
ROOT
HETATM    1  N   UNL     1      43.095 -14.008   6.101  1.00  0.00    -0.322 N 
HETATM    2  C   UNL     1      41.898 -13.399   5.784  1.00  0.00     0.276 C 
HETATM    3  O   UNL     1      40.929 -13.881   5.215  1.00  0.00    -0.266 OA
HETATM    4  H   UNL     1      43.772 -13.410   6.570  1.00  0.00     0.169 HD
ENDROOT
BRANCH   2   5
HETATM    5  C   UNL     1      41.815 -11.960   6.285  1.00  0.00     0.145 A 
HETATM    6  N   UNL     1      42.146 -11.721   7.515  1.00  0.00    -0.159 NA
HETATM    7  N   UNL     1      42.045 -10.407   7.972  1.00  0.00    -0.197 N 
HETATM    8  C   UNL     1      41.559  -9.362   7.167  1.00  0.00     0.268 A 
HETATM    9  O   UNL     1      41.412  -8.181   7.468  1.00  0.00    -0.266 OA
HETATM   10  C   UNL     1      41.198  -9.727   5.776  1.00  0.00     0.079 A 
HETATM   11  C   UNL     1      41.324 -10.971   5.320  1.00  0.00     0.044 A 
BRANCH   7  12
HETATM   12  C   UNL     1      42.499 -10.229   9.330  1.00  0.00     0.062 A 
HETATM   13  C   UNL     1      41.747  -9.551  10.305  1.00  0.00     0.035 A 
HETATM   14  C   UNL     1      42.225  -9.378  11.610  1.00  0.00     0.044 A 
HETATM   15  C   UNL     1      43.468  -9.880  11.960  1.00  0.00     0.116 A 
HETATM   16  F   UNL     1      43.927  -9.709  13.206  1.00  0.00    -0.206 F 
HETATM   17  C   UNL     1      44.239 -10.557  11.030  1.00  0.00     0.044 A 
HETATM   18  C   UNL     1      43.756 -10.733   9.728  1.00  0.00     0.035 A 
ENDBRANCH   7  12
ENDBRANCH   2   5
BRANCH   1  19
HETATM   19  C   UNL     1      43.457 -15.347   5.858  1.00  0.00     0.035 A 
HETATM   20  C   UNL     1      43.288 -15.975   4.619  1.00  0.00     0.039 A 
HETATM   21  C   UNL     1      43.659 -17.305   4.484  1.00  0.00    -0.022 A 
HETATM   22  C   UNL     1      43.603 -18.151   3.259  1.00  0.00     0.274 C 
HETATM   23  C   UNL     1      44.195 -18.023   5.556  1.00  0.00    -0.025 A 
HETATM   24  N   UNL     1      43.907 -19.560   3.752  1.00  0.00    -0.067 N 
HETATM   25  C   UNL     1      44.697 -20.388   2.802  1.00  0.00     0.270 C 
HETATM   26  H   UNL     1      42.995 -20.009   3.897  1.00  0.00     0.280 HD
HETATM   27  C   UNL     1      44.529 -19.414   5.136  1.00  0.00     0.273 C 
HETATM   28  C   UNL     1      44.381 -17.417   6.786  1.00  0.00     0.012 A 
HETATM   29  C   UNL     1      44.010 -16.074   6.930  1.00  0.00     0.030 A 
ENDBRANCH   1  19
TORSDOF 3
ENDMDL
MODEL 7
REMARK VINA RESULT:      -8.3      2.728      3.061
REMARK  3 active torsions:
REMARK  status: ('A' for Active; 'I' for Inactive)
REMARK    1  A    between atoms: C_9  and  N_10 
REMARK       I    between atoms: N_10  and  C_11 
REMARK    2  A    between atoms: C_11  and  C_12 
REMARK    3  A    between atoms: N_14  and  C_15 
ROOT
HETATM    1  N   UNL     1      41.560 -14.951   1.277  1.00  0.00    -0.322 N 
HETATM    2  C   UNL     1      41.449 -14.465   2.564  1.00  0.00     0.276 C 
HETATM    3  O   UNL     1      40.956 -13.410   2.937  1.00  0.00    -0.266 OA
HETATM    4  H   UNL     1      42.019 -15.856   1.196  1.00  0.00     0.169 HD
ENDROOT
BRANCH   2   5
HETATM    5  C   UNL     1      41.974 -15.442   3.612  1.00  0.00     0.145 A 
HETATM    6  N   UNL     1      42.409 -16.595   3.211  1.00  0.00    -0.159 NA
HETATM    7  N   UNL     1      42.864 -17.491   4.178  1.00  0.00    -0.197 N 
HETATM    8  C   UNL     1      42.822 -17.204   5.554  1.00  0.00     0.268 A 
HETATM    9  O   UNL     1      43.178 -17.919   6.487  1.00  0.00    -0.266 OA
HETATM   10  C   UNL     1      42.305 -15.864   5.924  1.00  0.00     0.079 A 
HETATM   11  C   UNL     1      41.900 -14.990   5.006  1.00  0.00     0.044 A 
BRANCH   7  12
HETATM   12  C   UNL     1      43.391 -18.717   3.630  1.00  0.00     0.062 A 
HETATM   13  C   UNL     1      44.383 -19.477   4.273  1.00  0.00     0.035 A 
HETATM   14  C   UNL     1      44.887 -20.655   3.704  1.00  0.00     0.044 A 
HETATM   15  C   UNL     1      44.405 -21.088   2.480  1.00  0.00     0.116 A 
HETATM   16  F   UNL     1      44.891 -22.210   1.934  1.00  0.00    -0.206 F 
HETATM   17  C   UNL     1      43.424 -20.371   1.816  1.00  0.00     0.044 A 
HETATM   18  C   UNL     1      42.919 -19.198   2.389  1.00  0.00     0.035 A 
ENDBRANCH   7  12
ENDBRANCH   2   5
BRANCH   1  19
HETATM   19  C   UNL     1      41.099 -14.339   0.096  1.00  0.00     0.035 A 
HETATM   20  C   UNL     1      39.780 -14.445  -0.358  1.00  0.00     0.039 A 
HETATM   21  C   UNL     1      39.425 -13.820  -1.545  1.00  0.00    -0.022 A 
HETATM   22  C   UNL     1      38.082 -13.770  -2.187  1.00  0.00     0.274 C 
HETATM   23  C   UNL     1      40.356 -13.091  -2.289  1.00  0.00    -0.025 A 
HETATM   24  N   UNL     1      38.337 -13.160  -3.560  1.00  0.00    -0.067 N 
HETATM   25  C   UNL     1      37.250 -12.271  -4.051  1.00  0.00     0.270 C 
HETATM   26  H   UNL     1      38.428 -13.953  -4.206  1.00  0.00     0.280 HD
HETATM   27  C   UNL     1      39.712 -12.506  -3.499  1.00  0.00     0.273 C 
HETATM   28  C   UNL     1      41.663 -12.965  -1.852  1.00  0.00     0.012 A 
HETATM   29  C   UNL     1      42.029 -13.593  -0.654  1.00  0.00     0.030 A 
ENDBRANCH   1  19
TORSDOF 3
ENDMDL
MODEL 8
REMARK VINA RESULT:      -8.3      4.498      9.269
REMARK  3 active torsions:
REMARK  status: ('A' for Active; 'I' for Inactive)
REMARK    1  A    between atoms: C_9  and  N_10 
REMARK       I    between atoms: N_10  and  C_11 
REMARK    2  A    between atoms: C_11  and  C_12 
REMARK    3  A    between atoms: N_14  and  C_15 
ROOT
HETATM    1  N   UNL     1      41.746 -15.892   3.876  1.00  0.00    -0.322 N 
HETATM    2  C   UNL     1      40.930 -15.585   4.947  1.00  0.00     0.276 C 
HETATM    3  O   UNL     1      40.596 -16.305   5.876  1.00  0.00    -0.266 OA
HETATM    4  H   UNL     1      41.883 -15.136   3.208  1.00  0.00     0.169 HD
ENDROOT
BRANCH   2   5
HETATM    5  C   UNL     1      40.466 -14.131   4.939  1.00  0.00     0.145 A 
HETATM    6  N   UNL     1      40.618 -13.435   6.021  1.00  0.00    -0.159 NA
HETATM    7  N   UNL     1      40.170 -12.114   6.013  1.00  0.00    -0.197 N 
HETATM    8  C   UNL     1      39.527 -11.541   4.902  1.00  0.00     0.268 A 
HETATM    9  O   UNL     1      39.080 -10.403   4.790  1.00  0.00    -0.266 OA
HETATM   10  C   UNL     1      39.391 -12.411   3.709  1.00  0.00     0.079 A 
HETATM   11  C   UNL     1      39.846 -13.661   3.695  1.00  0.00     0.044 A 
BRANCH   7  12
HETATM   12  C   UNL     1      40.443 -11.401   7.237  1.00  0.00     0.062 A 
HETATM   13  C   UNL     1      41.662 -10.745   7.484  1.00  0.00     0.035 A 
HETATM   14  C   UNL     1      41.903 -10.078   8.692  1.00  0.00     0.044 A 
HETATM   15  C   UNL     1      40.927 -10.059   9.675  1.00  0.00     0.116 A 
HETATM   16  F   UNL     1      41.161  -9.427  10.831  1.00  0.00    -0.206 F 
HETATM   17  C   UNL     1      39.711 -10.690   9.469  1.00  0.00     0.044 A 
HETATM   18  C   UNL     1      39.471 -11.351   8.260  1.00  0.00     0.035 A 
ENDBRANCH   7  12
ENDBRANCH   2   5
BRANCH   1  19
HETATM   19  C   UNL     1      42.404 -17.113   3.633  1.00  0.00     0.035 A 
HETATM   20  C   UNL     1      43.027 -17.862   4.637  1.00  0.00     0.039 A 
HETATM   21  C   UNL     1      43.666 -19.045   4.294  1.00  0.00    -0.022 A 
HETATM   22  C   UNL     1      44.353 -20.009   5.198  1.00  0.00     0.274 C 
HETATM   23  C   UNL     1      43.696 -19.498   2.974  1.00  0.00    -0.025 A 
HETATM   24  N   UNL     1      45.057 -20.980   4.258  1.00  0.00    -0.067 N 
HETATM   25  C   UNL     1      45.096 -22.386   4.742  1.00  0.00     0.270 C 
HETATM   26  H   UNL     1      46.021 -20.636   4.172  1.00  0.00     0.280 HD
HETATM   27  C   UNL     1      44.420 -20.798   2.885  1.00  0.00     0.273 C 
HETATM   28  C   UNL     1      43.077 -18.778   1.967  1.00  0.00     0.012 A 
HETATM   29  C   UNL     1      42.429 -17.583   2.305  1.00  0.00     0.030 A 
ENDBRANCH   1  19
TORSDOF 3
ENDMDL
MODEL 9
REMARK VINA RESULT:      -8.3      3.914      8.671
REMARK  3 active torsions:
REMARK  status: ('A' for Active; 'I' for Inactive)
REMARK    1  A    between atoms: C_9  and  N_10 
REMARK       I    between atoms: N_10  and  C_11 
REMARK    2  A    between atoms: C_11  and  C_12 
REMARK    3  A    between atoms: N_14  and  C_15 
ROOT
HETATM    1  N   UNL     1      42.545 -16.191   2.062  1.00  0.00    -0.322 N 
HETATM    2  C   UNL     1      42.190 -14.958   2.572  1.00  0.00     0.276 C 
HETATM    3  O   UNL     1      42.204 -14.585   3.736  1.00  0.00    -0.266 OA
HETATM    4  H   UNL     1      42.445 -16.286   1.054  1.00  0.00     0.169 HD
ENDROOT
BRANCH   2   5
HETATM    5  C   UNL     1      41.794 -13.962   1.486  1.00  0.00     0.145 A 
HETATM    6  N   UNL     1      41.224 -14.418   0.415  1.00  0.00    -0.159 NA
HETATM    7  N   UNL     1      40.888 -13.503  -0.583  1.00  0.00    -0.197 N 
HETATM    8  C   UNL     1      41.186 -12.133  -0.484  1.00  0.00     0.268 A 
HETATM    9  O   UNL     1      40.954 -11.246  -1.302  1.00  0.00    -0.266 OA
HETATM   10  C   UNL     1      41.844 -11.699   0.773  1.00  0.00     0.079 A 
HETATM   11  C   UNL     1      42.137 -12.559   1.745  1.00  0.00     0.044 A 
BRANCH   7  12
HETATM   12  C   UNL     1      40.198 -14.094  -1.704  1.00  0.00     0.062 A 
HETATM   13  C   UNL     1      38.887 -13.743  -2.065  1.00  0.00     0.035 A 
HETATM   14  C   UNL     1      38.237 -14.351  -3.148  1.00  0.00     0.044 A 
HETATM   15  C   UNL     1      38.893 -15.324  -3.885  1.00  0.00     0.116 A 
HETATM   16  F   UNL     1      38.270 -15.909  -4.916  1.00  0.00    -0.206 F 
HETATM   17  C   UNL     1      40.188 -15.696  -3.564  1.00  0.00     0.044 A 
HETATM   18  C   UNL     1      40.835 -15.083  -2.485  1.00  0.00     0.035 A 
ENDBRANCH   7  12
ENDBRANCH   2   5
BRANCH   1  19
HETATM   19  C   UNL     1      43.034 -17.298   2.782  1.00  0.00     0.035 A 
HETATM   20  C   UNL     1      42.834 -17.468   4.156  1.00  0.00     0.039 A 
HETATM   21  C   UNL     1      43.372 -18.585   4.780  1.00  0.00    -0.022 A 
HETATM   22  C   UNL     1      43.250 -18.982   6.210  1.00  0.00     0.274 C 
HETATM   23  C   UNL     1      44.104 -19.535   4.064  1.00  0.00    -0.025 A 
HETATM   24  N   UNL     1      44.221 -20.146   6.369  1.00  0.00    -0.067 N 
HETATM   25  C   UNL     1      43.765 -21.205   7.309  1.00  0.00     0.270 C 
HETATM   26  H   UNL     1      45.090 -19.737   6.733  1.00  0.00     0.280 HD
HETATM   27  C   UNL     1      44.544 -20.640   4.964  1.00  0.00     0.273 C 
HETATM   28  C   UNL     1      44.304 -19.391   2.703  1.00  0.00     0.012 A 
HETATM   29  C   UNL     1      43.763 -18.267   2.066  1.00  0.00     0.030 A 
ENDBRANCH   1  19
TORSDOF 3
ENDMDL
MODEL 10
REMARK VINA RESULT:      -8.2      4.142      9.062
REMARK  3 active torsions:
REMARK  status: ('A' for Active; 'I' for Inactive)
REMARK    1  A    between atoms: C_9  and  N_10 
REMARK       I    between atoms: N_10  and  C_11 
REMARK    2  A    between atoms: C_11  and  C_12 
REMARK    3  A    between atoms: N_14  and  C_15 
ROOT
HETATM    1  N   UNL     1      41.694 -16.021   1.846  1.00  0.00    -0.322 N 
HETATM    2  C   UNL     1      40.319 -15.916   1.763  1.00  0.00     0.276 C 
HETATM    3  O   UNL     1      39.475 -16.739   2.085  1.00  0.00    -0.266 OA
HETATM    4  H   UNL     1      42.209 -15.210   1.509  1.00  0.00     0.169 HD
ENDROOT
BRANCH   2   5
HETATM    5  C   UNL     1      39.861 -14.554   1.251  1.00  0.00     0.145 A 
HETATM    6  N   UNL     1      40.764 -13.711   0.861  1.00  0.00    -0.159 NA
HETATM    7  N   UNL     1      40.336 -12.459   0.417  1.00  0.00    -0.197 N 
HETATM    8  C   UNL     1      38.984 -12.075   0.425  1.00  0.00     0.268 A 
HETATM    9  O   UNL     1      38.500 -11.001   0.076  1.00  0.00    -0.266 OA
HETATM   10  C   UNL     1      38.020 -13.099   0.894  1.00  0.00     0.079 A 
HETATM   11  C   UNL     1      38.414 -14.308   1.286  1.00  0.00     0.044 A 
BRANCH   7  12
HETATM   12  C   UNL     1      41.407 -11.616  -0.060  1.00  0.00     0.062 A 
HETATM   13  C   UNL     1      41.684 -10.352   0.485  1.00  0.00     0.035 A 
HETATM   14  C   UNL     1      42.719  -9.549  -0.014  1.00  0.00     0.044 A 
HETATM   15  C   UNL     1      43.491 -10.002  -1.071  1.00  0.00     0.116 A 
HETATM   16  F   UNL     1      44.476  -9.233  -1.552  1.00  0.00    -0.206 F 
HETATM   17  C   UNL     1      43.253 -11.245  -1.635  1.00  0.00     0.044 A 
HETATM   18  C   UNL     1      42.222 -12.045  -1.130  1.00  0.00     0.035 A 
ENDBRANCH   7  12
ENDBRANCH   2   5
BRANCH   1  19
HETATM   19  C   UNL     1      42.433 -17.106   2.353  1.00  0.00     0.035 A 
HETATM   20  C   UNL     1      42.441 -17.464   3.705  1.00  0.00     0.039 A 
HETATM   21  C   UNL     1      43.217 -18.541   4.110  1.00  0.00    -0.022 A 
HETATM   22  C   UNL     1      43.343 -19.114   5.479  1.00  0.00     0.274 C 
HETATM   23  C   UNL     1      43.984 -19.268   3.198  1.00  0.00    -0.025 A 
HETATM   24  N   UNL     1      44.490 -20.112   5.373  1.00  0.00    -0.067 N 
HETATM   25  C   UNL     1      44.323 -21.333   6.207  1.00  0.00     0.270 C 
HETATM   26  H   UNL     1      45.328 -19.610   5.691  1.00  0.00     0.280 HD
HETATM   27  C   UNL     1      44.698 -20.381   3.887  1.00  0.00     0.273 C 
HETATM   28  C   UNL     1      43.981 -18.938   1.854  1.00  0.00     0.012 A 
HETATM   29  C   UNL     1      43.200 -17.853   1.437  1.00  0.00     0.030 A 
ENDBRANCH   1  19
TORSDOF 3
ENDMDL
