MODEL 1
REMARK VINA RESULT:      -8.2      0.000      0.000
REMARK  6 active torsions:
REMARK  status: ('A' for Active; 'I' for Inactive)
REMARK    1  A    between atoms: C_2  and  O_3 
REMARK    2  A    between atoms: C_2  and  C_4 
REMARK    3  A    between atoms: C_6  and  C_16 
REMARK    4  A    between atoms: C_9  and  C_10 
REMARK       I    between atoms: C_16  and  N_18 
REMARK    5  A    between atoms: N_18  and  C_19 
REMARK    6  A    between atoms: C_19  and  C_21 
ROOT
HETATM    1  C   UNL     1      41.410 -14.372  -1.428  1.00  0.00    -0.018 A 
HETATM    2  C   UNL     1      41.345 -15.370  -0.431  1.00  0.00     0.027 A 
HETATM    3  C   UNL     1      41.545 -15.071   0.926  1.00  0.00     0.032 A 
HETATM    4  C   UNL     1      41.833 -13.757   1.301  1.00  0.00     0.018 A 
HETATM    5  C   UNL     1      41.878 -12.752   0.331  1.00  0.00     0.014 A 
HETATM    6  C   UNL     1      41.660 -13.045  -1.027  1.00  0.00    -0.014 A 
ENDROOT
BRANCH   3   7
HETATM    7  C   UNL     1      41.442 -16.184   1.911  1.00  0.00     0.252 C 
HETATM    8  O   UNL     1      40.357 -16.710   2.132  1.00  0.00    -0.268 OA
HETATM    9  N   UNL     1      42.600 -16.541   2.571  1.00  0.00    -0.349 N 
HETATM   10  H   UNL     1      43.422 -15.963   2.477  1.00  0.00     0.163 HD
BRANCH   9  11
HETATM   11  C   UNL     1      42.572 -17.490   3.674  1.00  0.00     0.114 C 
HETATM   12  C   UNL     1      43.202 -16.884   4.931  1.00  0.00     0.037 C 
BRANCH  11  13
HETATM   13  C   UNL     1      43.254 -18.789   3.278  1.00  0.00    -0.036 A 
HETATM   14  C   UNL     1      42.864 -19.443   2.096  1.00  0.00     0.012 A 
HETATM   15  C   UNL     1      43.463 -20.645   1.716  1.00  0.00     0.043 A 
HETATM   16  C   UNL     1      44.458 -21.196   2.512  1.00  0.00     0.116 A 
HETATM   17  F   UNL     1      45.032 -22.351   2.149  1.00  0.00    -0.206 F 
HETATM   18  C   UNL     1      44.866 -20.568   3.682  1.00  0.00     0.043 A 
HETATM   19  C   UNL     1      44.265 -19.367   4.067  1.00  0.00     0.012 A 
ENDBRANCH  11  13
ENDBRANCH   9  11
ENDBRANCH   3   7
BRANCH   1  20
HETATM   20  C   UNL     1      41.145 -14.755  -2.875  1.00  0.00     0.148 C 
HETATM   21  C   UNL     1      40.274 -15.999  -2.982  1.00  0.00     0.044 C 
BRANCH  20  22
HETATM   22  O   UNL     1      42.371 -15.005  -3.568  1.00  0.00    -0.391 OA
HETATM   23  H   UNL     1      43.012 -14.337  -3.272  1.00  0.00     0.210 HD
ENDBRANCH  20  22
ENDBRANCH   1  20
BRANCH   6  24
HETATM   24  C   UNL     1      41.672 -11.940  -1.960  1.00  0.00     0.011 A 
HETATM   25  C   UNL     1      40.610 -11.172  -2.482  1.00  0.00     0.152 A 
HETATM   26  N   UNL     1      41.035 -10.212  -3.308  1.00  0.00    -0.187 NA
HETATM   27  N   UNL     1      42.371 -10.359  -3.305  1.00  0.00    -0.289 N 
HETATM   28  H   UNL     1      42.925  -9.728  -3.874  1.00  0.00     0.188 HD
HETATM   29  C   UNL     1      42.805 -11.374  -2.499  1.00  0.00     0.123 A 
ENDBRANCH   6  24
TORSDOF 6
ENDMDL
MODEL 2
REMARK VINA RESULT:      -8.0      2.343      2.740
REMARK  6 active torsions:
REMARK  status: ('A' for Active; 'I' for Inactive)
REMARK    1  A    between atoms: C_2  and  O_3 
REMARK    2  A    between atoms: C_2  and  C_4 
REMARK    3  A    between atoms: C_6  and  C_16 
REMARK    4  A    between atoms: C_9  and  C_10 
REMARK       I    between atoms: C_16  and  N_18 
REMARK    5  A    between atoms: N_18  and  C_19 
REMARK    6  A    between atoms: C_19  and  C_21 
ROOT
HETATM    1  C   UNL     1      40.031 -14.327  -1.005  1.00  0.00    -0.018 A 
HETATM    2  C   UNL     1      40.537 -14.765   0.239  1.00  0.00     0.027 A 
HETATM    3  C   UNL     1      39.734 -14.804   1.389  1.00  0.00     0.032 A 
HETATM    4  C   UNL     1      38.406 -14.382   1.310  1.00  0.00     0.018 A 
HETATM    5  C   UNL     1      37.881 -13.968   0.083  1.00  0.00     0.014 A 
HETATM    6  C   UNL     1      38.677 -13.945  -1.076  1.00  0.00    -0.014 A 
ENDROOT
BRANCH   3   7
HETATM    7  C   UNL     1      40.348 -15.295   2.656  1.00  0.00     0.252 C 
HETATM    8  O   UNL     1      39.912 -14.912   3.736  1.00  0.00    -0.268 OA
HETATM    9  N   UNL     1      41.430 -16.141   2.536  1.00  0.00    -0.349 N 
HETATM   10  H   UNL     1      41.850 -16.283   1.630  1.00  0.00     0.163 HD
BRANCH   9  11
HETATM   11  C   UNL     1      42.207 -16.532   3.703  1.00  0.00     0.114 C 
HETATM   12  C   UNL     1      43.167 -15.414   4.119  1.00  0.00     0.037 C 
BRANCH  11  13
HETATM   13  C   UNL     1      42.947 -17.833   3.439  1.00  0.00    -0.036 A 
HETATM   14  C   UNL     1      42.835 -18.451   2.181  1.00  0.00     0.012 A 
HETATM   15  C   UNL     1      43.491 -19.654   1.916  1.00  0.00     0.043 A 
HETATM   16  C   UNL     1      44.267 -20.243   2.906  1.00  0.00     0.116 A 
HETATM   17  F   UNL     1      44.895 -21.398   2.653  1.00  0.00    -0.206 F 
HETATM   18  C   UNL     1      44.399 -19.651   4.156  1.00  0.00     0.043 A 
HETATM   19  C   UNL     1      43.739 -18.449   4.425  1.00  0.00     0.012 A 
ENDBRANCH  11  13
ENDBRANCH   9  11
ENDBRANCH   3   7
BRANCH   1  20
HETATM   20  C   UNL     1      40.942 -14.348  -2.221  1.00  0.00     0.148 C 
HETATM   21  C   UNL     1      41.020 -15.733  -2.849  1.00  0.00     0.044 C 
BRANCH  20  22
HETATM   22  O   UNL     1      42.267 -13.938  -1.872  1.00  0.00    -0.391 OA
HETATM   23  H   UNL     1      42.884 -14.493  -2.379  1.00  0.00     0.210 HD
ENDBRANCH  20  22
ENDBRANCH   1  20
BRANCH   6  24
HETATM   24  C   UNL     1      38.043 -13.554  -2.316  1.00  0.00     0.011 A 
HETATM   25  C   UNL     1      37.786 -12.272  -2.846  1.00  0.00     0.152 A 
HETATM   26  N   UNL     1      37.197 -12.327  -4.044  1.00  0.00    -0.187 NA
HETATM   27  N   UNL     1      37.090 -13.645  -4.285  1.00  0.00    -0.289 N 
HETATM   28  H   UNL     1      36.662 -13.940  -5.156  1.00  0.00     0.188 HD
HETATM   29  C   UNL     1      37.597 -14.424  -3.284  1.00  0.00     0.123 A 
ENDBRANCH   6  24
TORSDOF 6
ENDMDL
MODEL 3
REMARK VINA RESULT:      -7.9      3.671      8.936
REMARK  6 active torsions:
REMARK  status: ('A' for Active; 'I' for Inactive)
REMARK    1  A    between atoms: C_2  and  O_3 
REMARK    2  A    between atoms: C_2  and  C_4 
REMARK    3  A    between atoms: C_6  and  C_16 
REMARK    4  A    between atoms: C_9  and  C_10 
REMARK       I    between atoms: C_16  and  N_18 
REMARK    5  A    between atoms: N_18  and  C_19 
REMARK    6  A    between atoms: C_19  and  C_21 
ROOT
HETATM    1  C   UNL     1      43.830 -18.479   4.225  1.00  0.00    -0.018 A 
HETATM    2  C   UNL     1      43.381 -17.253   3.685  1.00  0.00     0.027 A 
HETATM    3  C   UNL     1      43.220 -17.071   2.303  1.00  0.00     0.032 A 
HETATM    4  C   UNL     1      43.526 -18.120   1.435  1.00  0.00     0.018 A 
HETATM    5  C   UNL     1      43.949 -19.348   1.951  1.00  0.00     0.014 A 
HETATM    6  C   UNL     1      44.094 -19.540   3.337  1.00  0.00    -0.014 A 
ENDROOT
BRANCH   3   7
HETATM    7  C   UNL     1      42.727 -15.748   1.824  1.00  0.00     0.252 C 
HETATM    8  O   UNL     1      43.088 -14.720   2.386  1.00  0.00    -0.268 OA
HETATM    9  N   UNL     1      41.833 -15.759   0.773  1.00  0.00    -0.349 N 
HETATM   10  H   UNL     1      41.442 -16.637   0.466  1.00  0.00     0.163 HD
BRANCH   9  11
HETATM   11  C   UNL     1      41.160 -14.541   0.350  1.00  0.00     0.114 C 
HETATM   12  C   UNL     1      40.177 -14.060   1.421  1.00  0.00     0.037 C 
BRANCH  11  13
HETATM   13  C   UNL     1      40.469 -14.750  -0.987  1.00  0.00    -0.036 A 
HETATM   14  C   UNL     1      39.298 -14.029  -1.282  1.00  0.00     0.012 A 
HETATM   15  C   UNL     1      38.634 -14.212  -2.496  1.00  0.00     0.043 A 
HETATM   16  C   UNL     1      39.141 -15.112  -3.424  1.00  0.00     0.116 A 
HETATM   17  F   UNL     1      38.504 -15.290  -4.589  1.00  0.00    -0.206 F 
HETATM   18  C   UNL     1      40.299 -15.833  -3.160  1.00  0.00     0.043 A 
HETATM   19  C   UNL     1      40.962 -15.655  -1.944  1.00  0.00     0.012 A 
ENDBRANCH  11  13
ENDBRANCH   9  11
ENDBRANCH   3   7
BRANCH   1  20
HETATM   20  C   UNL     1      43.945 -18.624   5.733  1.00  0.00     0.148 C 
HETATM   21  C   UNL     1      42.806 -17.921   6.460  1.00  0.00     0.044 C 
BRANCH  20  22
HETATM   22  O   UNL     1      45.181 -18.080   6.204  1.00  0.00    -0.391 OA
HETATM   23  H   UNL     1      45.086 -17.932   7.160  1.00  0.00     0.210 HD
ENDBRANCH  20  22
ENDBRANCH   1  20
BRANCH   6  24
HETATM   24  C   UNL     1      44.485 -20.856   3.792  1.00  0.00     0.011 A 
HETATM   25  C   UNL     1      44.970 -21.283   5.046  1.00  0.00     0.152 A 
HETATM   26  N   UNL     1      45.198 -22.599   5.082  1.00  0.00    -0.187 NA
HETATM   27  N   UNL     1      44.848 -23.015   3.853  1.00  0.00    -0.289 N 
HETATM   28  H   UNL     1      44.937 -24.002   3.636  1.00  0.00     0.188 HD
HETATM   29  C   UNL     1      44.398 -22.008   3.045  1.00  0.00     0.123 A 
ENDBRANCH   6  24
TORSDOF 6
ENDMDL
MODEL 4
REMARK VINA RESULT:      -7.8      6.610     10.140
REMARK  6 active torsions:
REMARK  status: ('A' for Active; 'I' for Inactive)
REMARK    1  A    between atoms: C_2  and  O_3 
REMARK    2  A    between atoms: C_2  and  C_4 
REMARK    3  A    between atoms: C_6  and  C_16 
REMARK    4  A    between atoms: C_9  and  C_10 
REMARK       I    between atoms: C_16  and  N_18 
REMARK    5  A    between atoms: N_18  and  C_19 
REMARK    6  A    between atoms: C_19  and  C_21 
ROOT
HETATM    1  C   UNL     1      43.020 -17.507   5.412  1.00  0.00    -0.018 A 
HETATM    2  C   UNL     1      42.993 -16.148   5.795  1.00  0.00     0.027 A 
HETATM    3  C   UNL     1      43.998 -15.587   6.598  1.00  0.00     0.032 A 
HETATM    4  C   UNL     1      45.044 -16.394   7.046  1.00  0.00     0.018 A 
HETATM    5  C   UNL     1      45.101 -17.736   6.659  1.00  0.00     0.014 A 
HETATM    6  C   UNL     1      44.106 -18.297   5.839  1.00  0.00    -0.014 A 
ENDROOT
BRANCH   3   7
HETATM    7  C   UNL     1      43.895 -14.140   6.940  1.00  0.00     0.252 C 
HETATM    8  O   UNL     1      43.201 -13.396   6.255  1.00  0.00    -0.268 OA
HETATM    9  N   UNL     1      44.642 -13.698   8.012  1.00  0.00    -0.349 N 
HETATM   10  H   UNL     1      45.323 -14.315   8.428  1.00  0.00     0.163 HD
BRANCH   9  11
HETATM   11  C   UNL     1      44.749 -12.279   8.316  1.00  0.00     0.114 C 
HETATM   12  C   UNL     1      46.216 -11.848   8.395  1.00  0.00     0.037 C 
BRANCH  11  13
HETATM   13  C   UNL     1      44.000 -11.949   9.596  1.00  0.00    -0.036 A 
HETATM   14  C   UNL     1      42.898 -11.077   9.549  1.00  0.00     0.012 A 
HETATM   15  C   UNL     1      42.201 -10.745  10.712  1.00  0.00     0.043 A 
HETATM   16  C   UNL     1      42.598 -11.287  11.926  1.00  0.00     0.116 A 
HETATM   17  F   UNL     1      41.931 -10.968  13.043  1.00  0.00    -0.206 F 
HETATM   18  C   UNL     1      43.680 -12.156  12.000  1.00  0.00     0.043 A 
HETATM   19  C   UNL     1      44.382 -12.486  10.839  1.00  0.00     0.012 A 
ENDBRANCH  11  13
ENDBRANCH   9  11
ENDBRANCH   3   7
BRANCH   1  20
HETATM   20  C   UNL     1      41.922 -18.043   4.509  1.00  0.00     0.148 C 
HETATM   21  C   UNL     1      42.016 -17.470   3.101  1.00  0.00     0.044 C 
BRANCH  20  22
HETATM   22  O   UNL     1      40.630 -17.730   5.036  1.00  0.00    -0.391 OA
HETATM   23  H   UNL     1      40.363 -18.472   5.605  1.00  0.00     0.210 HD
ENDBRANCH  20  22
ENDBRANCH   1  20
BRANCH   6  24
HETATM   24  C   UNL     1      44.267 -19.678   5.441  1.00  0.00     0.011 A 
HETATM   25  C   UNL     1      44.727 -20.232   4.228  1.00  0.00     0.152 A 
HETATM   26  N   UNL     1      44.754 -21.567   4.257  1.00  0.00    -0.187 NA
HETATM   27  N   UNL     1      44.323 -21.867   5.494  1.00  0.00    -0.289 N 
HETATM   28  H   UNL     1      44.257 -22.844   5.756  1.00  0.00     0.188 HD
HETATM   29  C   UNL     1      44.032 -20.766   6.250  1.00  0.00     0.123 A 
ENDBRANCH   6  24
TORSDOF 6
ENDMDL
MODEL 5
REMARK VINA RESULT:      -7.7      3.624      8.979
REMARK  6 active torsions:
REMARK  status: ('A' for Active; 'I' for Inactive)
REMARK    1  A    between atoms: C_2  and  O_3 
REMARK    2  A    between atoms: C_2  and  C_4 
REMARK    3  A    between atoms: C_6  and  C_16 
REMARK    4  A    between atoms: C_9  and  C_10 
REMARK       I    between atoms: C_16  and  N_18 
REMARK    5  A    between atoms: N_18  and  C_19 
REMARK    6  A    between atoms: C_19  and  C_21 
ROOT
HETATM    1  C   UNL     1      43.904 -18.445   4.077  1.00  0.00    -0.018 A 
HETATM    2  C   UNL     1      43.499 -17.142   3.712  1.00  0.00     0.027 A 
HETATM    3  C   UNL     1      43.256 -16.792   2.375  1.00  0.00     0.032 A 
HETATM    4  C   UNL     1      43.436 -17.749   1.375  1.00  0.00     0.018 A 
HETATM    5  C   UNL     1      43.813 -19.050   1.718  1.00  0.00     0.014 A 
HETATM    6  C   UNL     1      44.040 -19.409   3.059  1.00  0.00    -0.014 A 
ENDROOT
BRANCH   3   7
HETATM    7  C   UNL     1      42.817 -15.398   2.084  1.00  0.00     0.252 C 
HETATM    8  O   UNL     1      43.223 -14.471   2.776  1.00  0.00    -0.268 OA
HETATM    9  N   UNL     1      41.918 -15.230   1.051  1.00  0.00    -0.349 N 
HETATM   10  H   UNL     1      41.488 -16.041   0.632  1.00  0.00     0.163 HD
BRANCH   9  11
HETATM   11  C   UNL     1      41.294 -13.939   0.804  1.00  0.00     0.114 C 
HETATM   12  C   UNL     1      39.773 -14.032   0.947  1.00  0.00     0.037 C 
BRANCH  11  13
HETATM   13  C   UNL     1      41.695 -13.406  -0.561  1.00  0.00    -0.036 A 
HETATM   14  C   UNL     1      42.365 -12.172  -0.653  1.00  0.00     0.012 A 
HETATM   15  C   UNL     1      42.731 -11.652  -1.895  1.00  0.00     0.043 A 
HETATM   16  C   UNL     1      42.435 -12.362  -3.050  1.00  0.00     0.116 A 
HETATM   17  F   UNL     1      42.785 -11.862  -4.243  1.00  0.00    -0.206 F 
HETATM   18  C   UNL     1      41.779 -13.585  -2.987  1.00  0.00     0.043 A 
HETATM   19  C   UNL     1      41.406 -14.107  -1.746  1.00  0.00     0.012 A 
ENDBRANCH  11  13
ENDBRANCH   9  11
ENDBRANCH   3   7
BRANCH   1  20
HETATM   20  C   UNL     1      44.113 -18.770   5.547  1.00  0.00     0.148 C 
HETATM   21  C   UNL     1      42.977 -18.239   6.411  1.00  0.00     0.044 C 
BRANCH  20  22
HETATM   22  O   UNL     1      45.339 -18.210   6.023  1.00  0.00    -0.391 OA
HETATM   23  H   UNL     1      46.018 -18.903   5.959  1.00  0.00     0.210 HD
ENDBRANCH  20  22
ENDBRANCH   1  20
BRANCH   6  24
HETATM   24  C   UNL     1      44.377 -20.789   3.334  1.00  0.00     0.011 A 
HETATM   25  C   UNL     1      44.333 -21.925   2.500  1.00  0.00     0.152 A 
HETATM   26  N   UNL     1      44.752 -23.030   3.123  1.00  0.00    -0.187 NA
HETATM   27  N   UNL     1      45.074 -22.597   4.354  1.00  0.00    -0.289 N 
HETATM   28  H   UNL     1      45.425 -23.273   5.024  1.00  0.00     0.188 HD
HETATM   29  C   UNL     1      44.882 -21.255   4.526  1.00  0.00     0.123 A 
ENDBRANCH   6  24
TORSDOF 6
ENDMDL
MODEL 6
REMARK VINA RESULT:      -7.7      3.308      4.311
REMARK  6 active torsions:
REMARK  status: ('A' for Active; 'I' for Inactive)
REMARK    1  A    between atoms: C_2  and  O_3 
REMARK    2  A    between atoms: C_2  and  C_4 
REMARK    3  A    between atoms: C_6  and  C_16 
REMARK    4  A    between atoms: C_9  and  C_10 
REMARK       I    between atoms: C_16  and  N_18 
REMARK    5  A    between atoms: N_18  and  C_19 
REMARK    6  A    between atoms: C_19  and  C_21 
ROOT
HETATM    1  C   UNL     1      41.045 -13.697   3.243  1.00  0.00    -0.018 A 
HETATM    2  C   UNL     1      41.539 -14.882   3.830  1.00  0.00     0.027 A 
HETATM    3  C   UNL     1      41.152 -15.286   5.117  1.00  0.00     0.032 A 
HETATM    4  C   UNL     1      40.270 -14.488   5.846  1.00  0.00     0.018 A 
HETATM    5  C   UNL     1      39.752 -13.323   5.274  1.00  0.00     0.014 A 
HETATM    6  C   UNL     1      40.123 -12.925   3.978  1.00  0.00    -0.014 A 
ENDROOT
BRANCH   3   7
HETATM    7  C   UNL     1      41.713 -16.560   5.649  1.00  0.00     0.252 C 
HETATM    8  O   UNL     1      41.188 -17.104   6.615  1.00  0.00    -0.268 OA
HETATM    9  N   UNL     1      42.849 -17.046   5.036  1.00  0.00    -0.349 N 
HETATM   10  H   UNL     1      43.333 -16.470   4.364  1.00  0.00     0.163 HD
BRANCH   9  11
HETATM   11  C   UNL     1      43.573 -18.180   5.590  1.00  0.00     0.114 C 
HETATM   12  C   UNL     1      44.850 -17.720   6.296  1.00  0.00     0.037 C 
BRANCH  11  13
HETATM   13  C   UNL     1      43.871 -19.204   4.507  1.00  0.00    -0.036 A 
HETATM   14  C   UNL     1      43.415 -18.976   3.196  1.00  0.00     0.012 A 
HETATM   15  C   UNL     1      43.662 -19.906   2.185  1.00  0.00     0.043 A 
HETATM   16  C   UNL     1      44.369 -21.065   2.478  1.00  0.00     0.116 A 
HETATM   17  F   UNL     1      44.604 -21.959   1.508  1.00  0.00    -0.206 F 
HETATM   18  C   UNL     1      44.835 -21.311   3.763  1.00  0.00     0.043 A 
HETATM   19  C   UNL     1      44.585 -20.385   4.778  1.00  0.00     0.012 A 
ENDBRANCH  11  13
ENDBRANCH   9  11
ENDBRANCH   3   7
BRANCH   1  20
HETATM   20  C   UNL     1      41.473 -13.337   1.830  1.00  0.00     0.148 C 
HETATM   21  C   UNL     1      41.779 -14.574   0.997  1.00  0.00     0.044 C 
BRANCH  20  22
HETATM   22  O   UNL     1      42.638 -12.508   1.847  1.00  0.00    -0.391 OA
HETATM   23  H   UNL     1      42.357 -11.609   1.604  1.00  0.00     0.210 HD
ENDBRANCH  20  22
ENDBRANCH   1  20
BRANCH   6  24
HETATM   24  C   UNL     1      39.501 -11.735   3.439  1.00  0.00     0.011 A 
HETATM   25  C   UNL     1      38.352 -11.589   2.634  1.00  0.00     0.152 A 
HETATM   26  N   UNL     1      38.083 -10.309   2.361  1.00  0.00    -0.187 NA
HETATM   27  N   UNL     1      39.055  -9.637   3.001  1.00  0.00    -0.289 N 
HETATM   28  H   UNL     1      39.060  -8.624   2.937  1.00  0.00     0.188 HD
HETATM   29  C   UNL     1      39.923 -10.447   3.676  1.00  0.00     0.123 A 
ENDBRANCH   6  24
TORSDOF 6
ENDMDL
MODEL 7
REMARK VINA RESULT:      -7.6      4.372      5.514
REMARK  6 active torsions:
REMARK  status: ('A' for Active; 'I' for Inactive)
REMARK    1  A    between atoms: C_2  and  O_3 
REMARK    2  A    between atoms: C_2  and  C_4 
REMARK    3  A    between atoms: C_6  and  C_16 
REMARK    4  A    between atoms: C_9  and  C_10 
REMARK       I    between atoms: C_16  and  N_18 
REMARK    5  A    between atoms: N_18  and  C_19 
REMARK    6  A    between atoms: C_19  and  C_21 
ROOT
HETATM    1  C   UNL     1      40.091 -13.166   5.482  1.00  0.00    -0.018 A 
HETATM    2  C   UNL     1      40.605 -14.433   5.832  1.00  0.00     0.027 A 
HETATM    3  C   UNL     1      41.021 -15.356   4.860  1.00  0.00     0.032 A 
HETATM    4  C   UNL     1      40.909 -15.022   3.510  1.00  0.00     0.018 A 
HETATM    5  C   UNL     1      40.425 -13.763   3.143  1.00  0.00     0.014 A 
HETATM    6  C   UNL     1      40.025 -12.829   4.115  1.00  0.00    -0.014 A 
ENDROOT
BRANCH   3   7
HETATM    7  C   UNL     1      41.564 -16.664   5.323  1.00  0.00     0.252 C 
HETATM    8  O   UNL     1      40.913 -17.360   6.094  1.00  0.00    -0.268 OA
HETATM    9  N   UNL     1      42.825 -17.008   4.879  1.00  0.00    -0.349 N 
HETATM   10  H   UNL     1      43.381 -16.323   4.390  1.00  0.00     0.163 HD
BRANCH   9  11
HETATM   11  C   UNL     1      43.514 -18.173   5.412  1.00  0.00     0.114 C 
HETATM   12  C   UNL     1      44.808 -17.765   6.120  1.00  0.00     0.037 C 
BRANCH  11  13
HETATM   13  C   UNL     1      43.776 -19.188   4.311  1.00  0.00    -0.036 A 
HETATM   14  C   UNL     1      43.270 -18.953   3.019  1.00  0.00     0.012 A 
HETATM   15  C   UNL     1      43.482 -19.875   1.993  1.00  0.00     0.043 A 
HETATM   16  C   UNL     1      44.205 -21.032   2.250  1.00  0.00     0.116 A 
HETATM   17  F   UNL     1      44.408 -21.918   1.266  1.00  0.00    -0.206 F 
HETATM   18  C   UNL     1      44.720 -21.285   3.515  1.00  0.00     0.043 A 
HETATM   19  C   UNL     1      44.505 -20.367   4.546  1.00  0.00     0.012 A 
ENDBRANCH  11  13
ENDBRANCH   9  11
ENDBRANCH   3   7
BRANCH   1  20
HETATM   20  C   UNL     1      39.696 -12.198   6.585  1.00  0.00     0.148 C 
HETATM   21  C   UNL     1      40.873 -11.349   7.044  1.00  0.00     0.044 C 
BRANCH  20  22
HETATM   22  O   UNL     1      39.179 -12.900   7.718  1.00  0.00    -0.391 OA
HETATM   23  H   UNL     1      39.042 -13.824   7.448  1.00  0.00     0.210 HD
ENDBRANCH  20  22
ENDBRANCH   1  20
BRANCH   6  24
HETATM   24  C   UNL     1      39.585 -11.530   3.655  1.00  0.00     0.011 A 
HETATM   25  C   UNL     1      40.317 -10.347   3.421  1.00  0.00     0.152 A 
HETATM   26  N   UNL     1      39.546  -9.354   2.971  1.00  0.00    -0.187 NA
HETATM   27  N   UNL     1      38.322  -9.906   2.905  1.00  0.00    -0.289 N 
HETATM   28  H   UNL     1      37.552  -9.330   2.583  1.00  0.00     0.188 HD
HETATM   29  C   UNL     1      38.296 -11.217   3.290  1.00  0.00     0.123 A 
ENDBRANCH   6  24
TORSDOF 6
ENDMDL
MODEL 8
REMARK VINA RESULT:      -7.4      3.515      8.803
REMARK  6 active torsions:
REMARK  status: ('A' for Active; 'I' for Inactive)
REMARK    1  A    between atoms: C_2  and  O_3 
REMARK    2  A    between atoms: C_2  and  C_4 
REMARK    3  A    between atoms: C_6  and  C_16 
REMARK    4  A    between atoms: C_9  and  C_10 
REMARK       I    between atoms: C_16  and  N_18 
REMARK    5  A    between atoms: N_18  and  C_19 
REMARK    6  A    between atoms: C_19  and  C_21 
ROOT
HETATM    1  C   UNL     1      42.564 -17.246   3.789  1.00  0.00    -0.018 A 
HETATM    2  C   UNL     1      41.910 -16.403   2.864  1.00  0.00     0.027 A 
HETATM    3  C   UNL     1      41.950 -16.651   1.483  1.00  0.00     0.032 A 
HETATM    4  C   UNL     1      42.668 -17.748   1.007  1.00  0.00     0.018 A 
HETATM    5  C   UNL     1      43.301 -18.608   1.908  1.00  0.00     0.014 A 
HETATM    6  C   UNL     1      43.248 -18.374   3.294  1.00  0.00    -0.014 A 
ENDROOT
BRANCH   3   7
HETATM    7  C   UNL     1      41.218 -15.715   0.583  1.00  0.00     0.252 C 
HETATM    8  O   UNL     1      40.204 -15.151   0.978  1.00  0.00    -0.268 OA
HETATM    9  N   UNL     1      41.713 -15.567  -0.696  1.00  0.00    -0.349 N 
HETATM   10  H   UNL     1      42.444 -16.183  -1.019  1.00  0.00     0.163 HD
BRANCH   9  11
HETATM   11  C   UNL     1      40.975 -14.820  -1.703  1.00  0.00     0.114 C 
HETATM   12  C   UNL     1      40.853 -15.624  -3.000  1.00  0.00     0.037 C 
BRANCH  11  13
HETATM   13  C   UNL     1      41.622 -13.466  -1.944  1.00  0.00    -0.036 A 
HETATM   14  C   UNL     1      41.768 -12.993  -3.261  1.00  0.00     0.012 A 
HETATM   15  C   UNL     1      42.373 -11.761  -3.512  1.00  0.00     0.043 A 
HETATM   16  C   UNL     1      42.829 -10.992  -2.450  1.00  0.00     0.116 A 
HETATM   17  F   UNL     1      43.411  -9.810  -2.691  1.00  0.00    -0.206 F 
HETATM   18  C   UNL     1      42.692 -11.433  -1.140  1.00  0.00     0.043 A 
HETATM   19  C   UNL     1      42.092 -12.669  -0.885  1.00  0.00     0.012 A 
ENDBRANCH  11  13
ENDBRANCH   9  11
ENDBRANCH   3   7
BRANCH   1  20
HETATM   20  C   UNL     1      42.449 -16.945   5.274  1.00  0.00     0.148 C 
HETATM   21  C   UNL     1      41.025 -16.579   5.670  1.00  0.00     0.044 C 
BRANCH  20  22
HETATM   22  O   UNL     1      43.309 -15.864   5.643  1.00  0.00    -0.391 OA
HETATM   23  H   UNL     1      43.318 -15.819   6.614  1.00  0.00     0.210 HD
ENDBRANCH  20  22
ENDBRANCH   1  20
BRANCH   6  24
HETATM   24  C   UNL     1      43.886 -19.340   4.161  1.00  0.00     0.011 A 
HETATM   25  C   UNL     1      43.754 -19.549   5.550  1.00  0.00     0.152 A 
HETATM   26  N   UNL     1      44.501 -20.569   5.983  1.00  0.00    -0.187 NA
HETATM   27  N   UNL     1      45.101 -21.019   4.868  1.00  0.00    -0.289 N 
HETATM   28  H   UNL     1      45.733 -21.808   4.949  1.00  0.00     0.188 HD
HETATM   29  C   UNL     1      44.752 -20.324   3.744  1.00  0.00     0.123 A 
ENDBRANCH   6  24
TORSDOF 6
ENDMDL
MODEL 9
REMARK VINA RESULT:      -7.3      3.507      8.208
REMARK  6 active torsions:
REMARK  status: ('A' for Active; 'I' for Inactive)
REMARK    1  A    between atoms: C_2  and  O_3 
REMARK    2  A    between atoms: C_2  and  C_4 
REMARK    3  A    between atoms: C_6  and  C_16 
REMARK    4  A    between atoms: C_9  and  C_10 
REMARK       I    between atoms: C_16  and  N_18 
REMARK    5  A    between atoms: N_18  and  C_19 
REMARK    6  A    between atoms: C_19  and  C_21 
ROOT
HETATM    1  C   UNL     1      43.143 -16.658   3.635  1.00  0.00    -0.018 A 
HETATM    2  C   UNL     1      42.791 -15.805   2.566  1.00  0.00     0.027 A 
HETATM    3  C   UNL     1      42.242 -14.532   2.787  1.00  0.00     0.032 A 
HETATM    4  C   UNL     1      42.020 -14.102   4.096  1.00  0.00     0.018 A 
HETATM    5  C   UNL     1      42.383 -14.923   5.168  1.00  0.00     0.014 A 
HETATM    6  C   UNL     1      42.951 -16.191   4.950  1.00  0.00    -0.014 A 
ENDROOT
BRANCH   3   7
HETATM    7  C   UNL     1      41.916 -13.694   1.599  1.00  0.00     0.252 C 
HETATM    8  O   UNL     1      42.555 -12.673   1.375  1.00  0.00    -0.268 OA
HETATM    9  N   UNL     1      40.853 -14.104   0.821  1.00  0.00    -0.349 N 
HETATM   10  H   UNL     1      40.259 -14.851   1.148  1.00  0.00     0.163 HD
BRANCH   9  11
HETATM   11  C   UNL     1      40.343 -13.264  -0.253  1.00  0.00     0.114 C 
HETATM   12  C   UNL     1      39.122 -12.467   0.211  1.00  0.00     0.037 C 
BRANCH  11  13
HETATM   13  C   UNL     1      40.030 -14.102  -1.482  1.00  0.00    -0.036 A 
HETATM   14  C   UNL     1      38.807 -13.916  -2.153  1.00  0.00     0.012 A 
HETATM   15  C   UNL     1      38.487 -14.681  -3.275  1.00  0.00     0.043 A 
HETATM   16  C   UNL     1      39.388 -15.631  -3.736  1.00  0.00     0.116 A 
HETATM   17  F   UNL     1      39.081 -16.367  -4.812  1.00  0.00    -0.206 F 
HETATM   18  C   UNL     1      40.605 -15.831  -3.095  1.00  0.00     0.043 A 
HETATM   19  C   UNL     1      40.926 -15.070  -1.969  1.00  0.00     0.012 A 
ENDBRANCH  11  13
ENDBRANCH   9  11
ENDBRANCH   3   7
BRANCH   1  20
HETATM   20  C   UNL     1      43.769 -18.008   3.328  1.00  0.00     0.148 C 
HETATM   21  C   UNL     1      44.167 -18.129   1.864  1.00  0.00     0.044 C 
BRANCH  20  22
HETATM   22  O   UNL     1      42.865 -19.072   3.637  1.00  0.00    -0.391 OA
HETATM   23  H   UNL     1      43.384 -19.893   3.671  1.00  0.00     0.210 HD
ENDBRANCH  20  22
ENDBRANCH   1  20
BRANCH   6  24
HETATM   24  C   UNL     1      43.347 -16.955   6.113  1.00  0.00     0.011 A 
HETATM   25  C   UNL     1      44.619 -17.411   6.517  1.00  0.00     0.152 A 
HETATM   26  N   UNL     1      44.576 -18.071   7.678  1.00  0.00    -0.187 NA
HETATM   27  N   UNL     1      43.277 -18.026   8.022  1.00  0.00    -0.289 N 
HETATM   28  H   UNL     1      42.994 -18.473   8.888  1.00  0.00     0.188 HD
HETATM   29  C   UNL     1      42.500 -17.353   7.122  1.00  0.00     0.123 A 
ENDBRANCH   6  24
TORSDOF 6
ENDMDL
MODEL 10
REMARK VINA RESULT:      -7.3      3.722      8.662
REMARK  6 active torsions:
REMARK  status: ('A' for Active; 'I' for Inactive)
REMARK    1  A    between atoms: C_2  and  O_3 
REMARK    2  A    between atoms: C_2  and  C_4 
REMARK    3  A    between atoms: C_6  and  C_16 
REMARK    4  A    between atoms: C_9  and  C_10 
REMARK       I    between atoms: C_16  and  N_18 
REMARK    5  A    between atoms: N_18  and  C_19 
REMARK    6  A    between atoms: C_19  and  C_21 
ROOT
HETATM    1  C   UNL     1      42.795 -15.662   3.787  1.00  0.00    -0.018 A 
HETATM    2  C   UNL     1      42.153 -15.098   2.663  1.00  0.00     0.027 A 
HETATM    3  C   UNL     1      41.527 -15.895   1.692  1.00  0.00     0.032 A 
HETATM    4  C   UNL     1      41.554 -17.284   1.829  1.00  0.00     0.018 A 
HETATM    5  C   UNL     1      42.164 -17.860   2.946  1.00  0.00     0.014 A 
HETATM    6  C   UNL     1      42.776 -17.063   3.930  1.00  0.00    -0.014 A 
ENDROOT
BRANCH   3   7
HETATM    7  C   UNL     1      40.861 -15.212   0.547  1.00  0.00     0.252 C 
HETATM    8  O   UNL     1      39.729 -14.758   0.679  1.00  0.00    -0.268 OA
HETATM    9  N   UNL     1      41.557 -15.167  -0.642  1.00  0.00    -0.349 N 
HETATM   10  H   UNL     1      42.405 -15.705  -0.740  1.00  0.00     0.163 HD
BRANCH   9  11
HETATM   11  C   UNL     1      40.926 -14.684  -1.861  1.00  0.00     0.114 C 
HETATM   12  C   UNL     1      41.035 -15.723  -2.981  1.00  0.00     0.037 C 
BRANCH  11  13
HETATM   13  C   UNL     1      41.523 -13.350  -2.278  1.00  0.00    -0.036 A 
HETATM   14  C   UNL     1      41.299 -12.868  -3.580  1.00  0.00     0.012 A 
HETATM   15  C   UNL     1      41.848 -11.653  -3.994  1.00  0.00     0.043 A 
HETATM   16  C   UNL     1      42.618 -10.912  -3.108  1.00  0.00     0.116 A 
HETATM   17  F   UNL     1      43.146  -9.747  -3.505  1.00  0.00    -0.206 F 
HETATM   18  C   UNL     1      42.850 -11.362  -1.815  1.00  0.00     0.043 A 
HETATM   19  C   UNL     1      42.306 -12.580  -1.399  1.00  0.00     0.012 A 
ENDBRANCH  11  13
ENDBRANCH   9  11
ENDBRANCH   3   7
BRANCH   1  20
HETATM   20  C   UNL     1      43.419 -14.741   4.822  1.00  0.00     0.148 C 
HETATM   21  C   UNL     1      42.366 -14.082   5.703  1.00  0.00     0.044 C 
BRANCH  20  22
HETATM   22  O   UNL     1      44.185 -13.711   4.191  1.00  0.00    -0.391 OA
HETATM   23  H   UNL     1      45.118 -13.982   4.224  1.00  0.00     0.210 HD
ENDBRANCH  20  22
ENDBRANCH   1  20
BRANCH   6  24
HETATM   24  C   UNL     1      43.338 -17.735   5.081  1.00  0.00     0.011 A 
HETATM   25  C   UNL     1      42.826 -17.900   6.385  1.00  0.00     0.152 A 
HETATM   26  N   UNL     1      43.644 -18.611   7.166  1.00  0.00    -0.187 NA
HETATM   27  N   UNL     1      44.674 -18.912   6.357  1.00  0.00    -0.289 N 
HETATM   28  H   UNL     1      45.438 -19.460   6.737  1.00  0.00     0.188 HD
HETATM   29  C   UNL     1      44.531 -18.422   5.089  1.00  0.00     0.123 A 
ENDBRANCH   6  24
TORSDOF 6
ENDMDL
