MODEL 1
REMARK VINA RESULT:      -8.8      0.000      0.000
REMARK  5 active torsions:
REMARK  status: ('A' for Active; 'I' for Inactive)
REMARK    1  A    between atoms: C_6  and  O_7 
REMARK    2  A    between atoms: O_7  and  C_8 
REMARK    3  A    between atoms: C_8  and  C_9 
REMARK       I    between atoms: C_9  and  N_10 
REMARK    4  A    between atoms: N_10  and  N_11 
REMARK    5  A    between atoms: C_12  and  C_13 
ROOT
HETATM    1  C   UNL     1      44.833 -13.294   7.756  1.00  0.00     0.261 C 
HETATM    2  N   UNL     1      43.978 -14.360   7.510  1.00  0.00    -0.246 N 
HETATM    3  O   UNL     1      45.991 -13.202   7.353  1.00  0.00    -0.269 OA
HETATM    4  H   UNL     1      43.049 -14.359   7.921  1.00  0.00     0.192 HD
ENDROOT
BRANCH   2   5
HETATM    5  N   UNL     1      44.418 -15.423   6.780  1.00  0.00    -0.184 NA
HETATM    6  C   UNL     1      43.586 -16.402   6.629  1.00  0.00     0.152 C 
BRANCH   6   7
HETATM    7  C   UNL     1      43.995 -17.558   5.855  1.00  0.00     0.011 A 
HETATM    8  C   UNL     1      43.540 -17.955   4.556  1.00  0.00     0.005 A 
HETATM    9  C   UNL     1      44.225 -19.125   4.214  1.00  0.00     0.043 A 
HETATM   10  C   UNL     1      42.621 -17.422   3.627  1.00  0.00     0.033 A 
HETATM   11  C   UNL     1      44.037 -19.791   2.997  1.00  0.00     0.031 A 
HETATM   12  N   UNL     1      45.057 -19.431   5.265  1.00  0.00    -0.364 N 
HETATM   13  C   UNL     1      43.122 -19.243   2.092  1.00  0.00     0.021 A 
HETATM   14  C   UNL     1      42.428 -18.077   2.405  1.00  0.00     0.012 A 
HETATM   15 BR   UNL     1      41.206 -17.358   1.152  1.00  0.00    -0.051 Br
HETATM   16  H   UNL     1      45.678 -20.228   5.297  1.00  0.00     0.165 HD
HETATM   17  C   UNL     1      44.932 -18.495   6.252  1.00  0.00     0.102 A 
ENDBRANCH   6   7
ENDBRANCH   2   5
BRANCH   1  18
HETATM   18  C   UNL     1      44.158 -12.147   8.501  1.00  0.00     0.280 C 
BRANCH  18  19
HETATM   19  O   UNL     1      44.995 -11.646   9.544  1.00  0.00    -0.342 OA
BRANCH  19  20
HETATM   20  C   UNL     1      44.303 -11.248  10.658  1.00  0.00     0.069 A 
HETATM   21  C   UNL     1      43.901  -9.933  10.901  1.00  0.00     0.044 A 
HETATM   22  C   UNL     1      43.177  -9.602  12.061  1.00  0.00    -0.053 A 
HETATM   23  C   UNL     1      42.869 -10.612  12.994  1.00  0.00    -0.056 A 
HETATM   24  C   UNL     1      42.773  -8.170  12.290  1.00  0.00     0.049 C 
HETATM   25  C   UNL     1      42.103 -10.312  14.255  1.00  0.00     0.049 C 
HETATM   26  C   UNL     1      43.249 -11.935  12.721  1.00  0.00     0.010 A 
HETATM   27  C   UNL     1      43.955 -12.250  11.557  1.00  0.00     0.037 A 
ENDBRANCH  19  20
ENDBRANCH  18  19
ENDBRANCH   1  18
TORSDOF 5
ENDMDL
MODEL 2
REMARK VINA RESULT:      -8.8      2.048      2.560
REMARK  5 active torsions:
REMARK  status: ('A' for Active; 'I' for Inactive)
REMARK    1  A    between atoms: C_6  and  O_7 
REMARK    2  A    between atoms: O_7  and  C_8 
REMARK    3  A    between atoms: C_8  and  C_9 
REMARK       I    between atoms: C_9  and  N_10 
REMARK    4  A    between atoms: N_10  and  N_11 
REMARK    5  A    between atoms: C_12  and  C_13 
ROOT
HETATM    1  C   UNL     1      45.076 -13.318   7.523  1.00  0.00     0.261 C 
HETATM    2  N   UNL     1      43.903 -13.911   7.076  1.00  0.00    -0.246 N 
HETATM    3  O   UNL     1      46.095 -13.164   6.853  1.00  0.00    -0.269 OA
HETATM    4  H   UNL     1      43.125 -14.025   7.721  1.00  0.00     0.192 HD
ENDROOT
BRANCH   2   5
HETATM    5  N   UNL     1      43.831 -14.393   5.804  1.00  0.00    -0.184 NA
HETATM    6  C   UNL     1      43.423 -15.613   5.671  1.00  0.00     0.152 C 
BRANCH   6   7
HETATM    7  C   UNL     1      43.320 -16.179   4.340  1.00  0.00     0.011 A 
HETATM    8  C   UNL     1      43.635 -17.513   3.924  1.00  0.00     0.005 A 
HETATM    9  C   UNL     1      43.366 -17.597   2.554  1.00  0.00     0.043 A 
HETATM   10  C   UNL     1      44.109 -18.668   4.584  1.00  0.00     0.033 A 
HETATM   11  C   UNL     1      43.549 -18.769   1.811  1.00  0.00     0.031 A 
HETATM   12  N   UNL     1      42.913 -16.362   2.153  1.00  0.00    -0.364 N 
HETATM   13  C   UNL     1      44.017 -19.899   2.487  1.00  0.00     0.021 A 
HETATM   14  C   UNL     1      44.291 -19.846   3.851  1.00  0.00     0.012 A 
HETATM   15 BR   UNL     1      44.914 -21.398   4.736  1.00  0.00    -0.051 Br
HETATM   16  H   UNL     1      42.638 -16.127   1.209  1.00  0.00     0.165 HD
HETATM   17  C   UNL     1      42.875 -15.506   3.217  1.00  0.00     0.102 A 
ENDBRANCH   6   7
ENDBRANCH   2   5
BRANCH   1  18
HETATM   18  C   UNL     1      44.957 -12.745   8.931  1.00  0.00     0.280 C 
BRANCH  18  19
HETATM   19  O   UNL     1      44.861 -11.321   8.904  1.00  0.00    -0.342 OA
BRANCH  19  20
HETATM   20  C   UNL     1      43.912 -10.820   9.756  1.00  0.00     0.069 A 
HETATM   21  C   UNL     1      44.163 -10.456  11.080  1.00  0.00     0.044 A 
HETATM   22  C   UNL     1      43.139  -9.932  11.891  1.00  0.00    -0.053 A 
HETATM   23  C   UNL     1      41.842  -9.788  11.359  1.00  0.00    -0.056 A 
HETATM   24  C   UNL     1      43.451  -9.563  13.316  1.00  0.00     0.049 C 
HETATM   25  C   UNL     1      40.710  -9.239  12.185  1.00  0.00     0.049 C 
HETATM   26  C   UNL     1      41.612 -10.126  10.018  1.00  0.00     0.010 A 
HETATM   27  C   UNL     1      42.641 -10.631   9.220  1.00  0.00     0.037 A 
ENDBRANCH  19  20
ENDBRANCH  18  19
ENDBRANCH   1  18
TORSDOF 5
ENDMDL
MODEL 3
REMARK VINA RESULT:      -8.4      3.078     10.239
REMARK  5 active torsions:
REMARK  status: ('A' for Active; 'I' for Inactive)
REMARK    1  A    between atoms: C_6  and  O_7 
REMARK    2  A    between atoms: O_7  and  C_8 
REMARK    3  A    between atoms: C_8  and  C_9 
REMARK       I    between atoms: C_9  and  N_10 
REMARK    4  A    between atoms: N_10  and  N_11 
REMARK    5  A    between atoms: C_12  and  C_13 
ROOT
HETATM    1  C   UNL     1      43.305 -15.856   6.269  1.00  0.00     0.261 C 
HETATM    2  N   UNL     1      44.451 -15.336   6.855  1.00  0.00    -0.246 N 
HETATM    3  O   UNL     1      42.152 -15.607   6.617  1.00  0.00    -0.269 OA
HETATM    4  H   UNL     1      45.362 -15.634   6.517  1.00  0.00     0.192 HD
ENDROOT
BRANCH   2   5
HETATM    5  N   UNL     1      44.342 -14.488   7.916  1.00  0.00    -0.184 NA
HETATM    6  C   UNL     1      44.795 -13.289   7.745  1.00  0.00     0.152 C 
BRANCH   6   7
HETATM    7  C   UNL     1      44.701 -12.340   8.837  1.00  0.00     0.011 A 
HETATM    8  C   UNL     1      43.646 -11.408   9.106  1.00  0.00     0.005 A 
HETATM    9  C   UNL     1      43.990 -10.714  10.270  1.00  0.00     0.043 A 
HETATM   10  C   UNL     1      42.420 -11.096   8.479  1.00  0.00     0.033 A 
HETATM   11  C   UNL     1      43.177  -9.726  10.837  1.00  0.00     0.031 A 
HETATM   12  N   UNL     1      45.207 -11.200  10.688  1.00  0.00    -0.364 N 
HETATM   13  C   UNL     1      41.967  -9.436  10.199  1.00  0.00     0.021 A 
HETATM   14  C   UNL     1      41.598 -10.113   9.040  1.00  0.00     0.012 A 
HETATM   15 BR   UNL     1      39.948  -9.702   8.209  1.00  0.00    -0.051 Br
HETATM   16  H   UNL     1      45.703 -10.884  11.510  1.00  0.00     0.165 HD
HETATM   17  C   UNL     1      45.639 -12.179   9.840  1.00  0.00     0.102 A 
ENDBRANCH   6   7
ENDBRANCH   2   5
BRANCH   1  18
HETATM   18  C   UNL     1      43.596 -16.706   5.037  1.00  0.00     0.280 C 
BRANCH  18  19
HETATM   19  O   UNL     1      44.437 -17.814   5.361  1.00  0.00    -0.342 OA
BRANCH  19  20
HETATM   20  C   UNL     1      44.349 -18.848   4.467  1.00  0.00     0.069 A 
HETATM   21  C   UNL     1      44.582 -20.186   4.793  1.00  0.00     0.044 A 
HETATM   22  C   UNL     1      44.455 -21.197   3.823  1.00  0.00    -0.053 A 
HETATM   23  C   UNL     1      44.102 -20.849   2.504  1.00  0.00    -0.056 A 
HETATM   24  C   UNL     1      44.726 -22.625   4.214  1.00  0.00     0.049 C 
HETATM   25  C   UNL     1      43.959 -21.890   1.427  1.00  0.00     0.049 C 
HETATM   26  C   UNL     1      43.838 -19.506   2.199  1.00  0.00     0.010 A 
HETATM   27  C   UNL     1      43.954 -18.514   3.176  1.00  0.00     0.037 A 
ENDBRANCH  19  20
ENDBRANCH  18  19
ENDBRANCH   1  18
TORSDOF 5
ENDMDL
MODEL 4
REMARK VINA RESULT:      -8.3      1.395      1.732
REMARK  5 active torsions:
REMARK  status: ('A' for Active; 'I' for Inactive)
REMARK    1  A    between atoms: C_6  and  O_7 
REMARK    2  A    between atoms: O_7  and  C_8 
REMARK    3  A    between atoms: C_8  and  C_9 
REMARK       I    between atoms: C_9  and  N_10 
REMARK    4  A    between atoms: N_10  and  N_11 
REMARK    5  A    between atoms: C_12  and  C_13 
ROOT
HETATM    1  C   UNL     1      44.884 -13.622   7.237  1.00  0.00     0.261 C 
HETATM    2  N   UNL     1      43.712 -14.337   7.027  1.00  0.00    -0.246 N 
HETATM    3  O   UNL     1      45.848 -13.596   6.474  1.00  0.00    -0.269 OA
HETATM    4  H   UNL     1      42.986 -14.323   7.738  1.00  0.00     0.192 HD
ENDROOT
BRANCH   2   5
HETATM    5  N   UNL     1      43.578 -15.099   5.906  1.00  0.00    -0.184 NA
HETATM    6  C   UNL     1      43.642 -16.380   6.069  1.00  0.00     0.152 C 
BRANCH   6   7
HETATM    7  C   UNL     1      43.500 -17.244   4.912  1.00  0.00     0.011 A 
HETATM    8  C   UNL     1      42.565 -17.125   3.834  1.00  0.00     0.005 A 
HETATM    9  C   UNL     1      42.814 -18.177   2.948  1.00  0.00     0.043 A 
HETATM   10  C   UNL     1      41.536 -16.212   3.515  1.00  0.00     0.033 A 
HETATM   11  C   UNL     1      42.089 -18.367   1.765  1.00  0.00     0.031 A 
HETATM   12  N   UNL     1      43.854 -18.910   3.470  1.00  0.00    -0.364 N 
HETATM   13  C   UNL     1      41.077 -17.449   1.471  1.00  0.00     0.021 A 
HETATM   14  C   UNL     1      40.808 -16.390   2.334  1.00  0.00     0.012 A 
HETATM   15 BR   UNL     1      39.437 -15.160   1.898  1.00  0.00    -0.051 Br
HETATM   16  H   UNL     1      44.253 -19.733   3.039  1.00  0.00     0.165 HD
HETATM   17  C   UNL     1      44.277 -18.356   4.644  1.00  0.00     0.102 A 
ENDBRANCH   6   7
ENDBRANCH   2   5
BRANCH   1  18
HETATM   18  C   UNL     1      44.834 -12.746   8.485  1.00  0.00     0.280 C 
BRANCH  18  19
HETATM   19  O   UNL     1      43.728 -11.845   8.439  1.00  0.00    -0.342 OA
BRANCH  19  20
HETATM   20  C   UNL     1      43.536 -11.154   9.607  1.00  0.00     0.069 A 
HETATM   21  C   UNL     1      42.492 -10.252   9.820  1.00  0.00     0.044 A 
HETATM   22  C   UNL     1      42.350  -9.591  11.054  1.00  0.00    -0.053 A 
HETATM   23  C   UNL     1      43.284  -9.836  12.080  1.00  0.00    -0.056 A 
HETATM   24  C   UNL     1      41.217  -8.618  11.237  1.00  0.00     0.049 C 
HETATM   25  C   UNL     1      43.182  -9.151  13.417  1.00  0.00     0.049 C 
HETATM   26  C   UNL     1      44.308 -10.770  11.864  1.00  0.00     0.010 A 
HETATM   27  C   UNL     1      44.428 -11.430  10.639  1.00  0.00     0.037 A 
ENDBRANCH  19  20
ENDBRANCH  18  19
ENDBRANCH   1  18
TORSDOF 5
ENDMDL
MODEL 5
REMARK VINA RESULT:      -8.2      7.450     10.466
REMARK  5 active torsions:
REMARK  status: ('A' for Active; 'I' for Inactive)
REMARK    1  A    between atoms: C_6  and  O_7 
REMARK    2  A    between atoms: O_7  and  C_8 
REMARK    3  A    between atoms: C_8  and  C_9 
REMARK       I    between atoms: C_9  and  N_10 
REMARK    4  A    between atoms: N_10  and  N_11 
REMARK    5  A    between atoms: C_12  and  C_13 
ROOT
HETATM    1  C   UNL     1      42.070 -15.796   2.236  1.00  0.00     0.261 C 
HETATM    2  N   UNL     1      41.169 -16.237   1.277  1.00  0.00    -0.246 N 
HETATM    3  O   UNL     1      42.555 -14.667   2.292  1.00  0.00    -0.269 OA
HETATM    4  H   UNL     1      40.854 -17.203   1.296  1.00  0.00     0.192 HD
ENDROOT
BRANCH   2   5
HETATM    5  N   UNL     1      40.771 -15.391   0.285  1.00  0.00    -0.184 NA
HETATM    6  C   UNL     1      41.257 -15.615  -0.892  1.00  0.00     0.152 C 
BRANCH   6   7
HETATM    7  C   UNL     1      40.864 -14.753  -1.990  1.00  0.00     0.011 A 
HETATM    8  C   UNL     1      41.302 -13.415  -2.259  1.00  0.00     0.005 A 
HETATM    9  C   UNL     1      40.663 -12.995  -3.430  1.00  0.00     0.043 A 
HETATM   10  C   UNL     1      42.195 -12.523  -1.628  1.00  0.00     0.033 A 
HETATM   11  C   UNL     1      40.866 -11.733  -3.999  1.00  0.00     0.031 A 
HETATM   12  N   UNL     1      39.865 -14.033  -3.852  1.00  0.00    -0.364 N 
HETATM   13  C   UNL     1      41.757 -10.867  -3.357  1.00  0.00     0.021 A 
HETATM   14  C   UNL     1      42.408 -11.260  -2.191  1.00  0.00     0.012 A 
HETATM   15 BR   UNL     1      43.614 -10.066  -1.353  1.00  0.00    -0.051 Br
HETATM   16  H   UNL     1      39.284 -14.015  -4.679  1.00  0.00     0.165 HD
HETATM   17  C   UNL     1      39.982 -15.094  -2.999  1.00  0.00     0.102 A 
ENDBRANCH   6   7
ENDBRANCH   2   5
BRANCH   1  18
HETATM   18  C   UNL     1      42.335 -16.828   3.327  1.00  0.00     0.280 C 
BRANCH  18  19
HETATM   19  O   UNL     1      43.725 -17.141   3.416  1.00  0.00    -0.342 OA
BRANCH  19  20
HETATM   20  C   UNL     1      43.976 -18.476   3.600  1.00  0.00     0.069 A 
HETATM   21  C   UNL     1      43.925 -19.429   2.581  1.00  0.00     0.044 A 
HETATM   22  C   UNL     1      44.211 -20.781   2.844  1.00  0.00    -0.053 A 
HETATM   23  C   UNL     1      44.538 -21.176   4.156  1.00  0.00    -0.056 A 
HETATM   24  C   UNL     1      44.134 -21.778   1.718  1.00  0.00     0.049 C 
HETATM   25  C   UNL     1      44.847 -22.610   4.493  1.00  0.00     0.049 C 
HETATM   26  C   UNL     1      44.618 -20.203   5.163  1.00  0.00     0.010 A 
HETATM   27  C   UNL     1      44.346 -18.861   4.885  1.00  0.00     0.037 A 
ENDBRANCH  19  20
ENDBRANCH  18  19
ENDBRANCH   1  18
TORSDOF 5
ENDMDL
MODEL 6
REMARK VINA RESULT:      -8.1      6.583      9.999
REMARK  5 active torsions:
REMARK  status: ('A' for Active; 'I' for Inactive)
REMARK    1  A    between atoms: C_6  and  O_7 
REMARK    2  A    between atoms: O_7  and  C_8 
REMARK    3  A    between atoms: C_8  and  C_9 
REMARK       I    between atoms: C_9  and  N_10 
REMARK    4  A    between atoms: N_10  and  N_11 
REMARK    5  A    between atoms: C_12  and  C_13 
ROOT
HETATM    1  C   UNL     1      41.713 -15.015   0.422  1.00  0.00     0.261 C 
HETATM    2  N   UNL     1      42.130 -16.287   0.052  1.00  0.00    -0.246 N 
HETATM    3  O   UNL     1      42.006 -14.448   1.473  1.00  0.00    -0.269 OA
HETATM    4  H   UNL     1      41.802 -16.684  -0.824  1.00  0.00     0.192 HD
ENDROOT
BRANCH   2   5
HETATM    5  N   UNL     1      42.917 -17.012   0.896  1.00  0.00    -0.184 NA
HETATM    6  C   UNL     1      42.381 -18.064   1.423  1.00  0.00     0.152 C 
BRANCH   6   7
HETATM    7  C   UNL     1      43.171 -18.880   2.324  1.00  0.00     0.011 A 
HETATM    8  C   UNL     1      43.634 -18.545   3.638  1.00  0.00     0.005 A 
HETATM    9  C   UNL     1      44.345 -19.647   4.123  1.00  0.00     0.043 A 
HETATM   10  C   UNL     1      43.505 -17.414   4.472  1.00  0.00     0.033 A 
HETATM   11  C   UNL     1      44.934 -19.677   5.392  1.00  0.00     0.031 A 
HETATM   12  N   UNL     1      44.320 -20.610   3.141  1.00  0.00    -0.364 N 
HETATM   13  C   UNL     1      44.790 -18.545   6.200  1.00  0.00     0.021 A 
HETATM   14  C   UNL     1      44.086 -17.434   5.744  1.00  0.00     0.012 A 
HETATM   15 BR   UNL     1      43.904 -15.924   6.870  1.00  0.00    -0.051 Br
HETATM   16  H   UNL     1      44.754 -21.521   3.215  1.00  0.00     0.165 HD
HETATM   17  C   UNL     1      43.614 -20.163   2.061  1.00  0.00     0.102 A 
ENDBRANCH   6   7
ENDBRANCH   2   5
BRANCH   1  18
HETATM   18  C   UNL     1      40.924 -14.303  -0.672  1.00  0.00     0.280 C 
BRANCH  18  19
HETATM   19  O   UNL     1      41.650 -14.283  -1.901  1.00  0.00    -0.342 OA
BRANCH  19  20
HETATM   20  C   UNL     1      41.921 -13.019  -2.356  1.00  0.00     0.069 A 
HETATM   21  C   UNL     1      42.655 -12.071  -1.641  1.00  0.00     0.044 A 
HETATM   22  C   UNL     1      42.908 -10.797  -2.180  1.00  0.00    -0.053 A 
HETATM   23  C   UNL     1      42.399 -10.472  -3.454  1.00  0.00    -0.056 A 
HETATM   24  C   UNL     1      43.695  -9.801  -1.371  1.00  0.00     0.049 C 
HETATM   25  C   UNL     1      42.634  -9.122  -4.075  1.00  0.00     0.049 C 
HETATM   26  C   UNL     1      41.692 -11.445  -4.175  1.00  0.00     0.010 A 
HETATM   27  C   UNL     1      41.461 -12.712  -3.633  1.00  0.00     0.037 A 
ENDBRANCH  19  20
ENDBRANCH  18  19
ENDBRANCH   1  18
TORSDOF 5
ENDMDL
MODEL 7
REMARK VINA RESULT:      -8.1      7.134     10.287
REMARK  5 active torsions:
REMARK  status: ('A' for Active; 'I' for Inactive)
REMARK    1  A    between atoms: C_6  and  O_7 
REMARK    2  A    between atoms: O_7  and  C_8 
REMARK    3  A    between atoms: C_8  and  C_9 
REMARK       I    between atoms: C_9  and  N_10 
REMARK    4  A    between atoms: N_10  and  N_11 
REMARK    5  A    between atoms: C_12  and  C_13 
ROOT
HETATM    1  C   UNL     1      41.790 -15.779   2.785  1.00  0.00     0.261 C 
HETATM    2  N   UNL     1      42.276 -15.899   1.489  1.00  0.00    -0.246 N 
HETATM    3  O   UNL     1      40.848 -15.068   3.128  1.00  0.00    -0.269 OA
HETATM    4  H   UNL     1      43.087 -16.486   1.314  1.00  0.00     0.192 HD
ENDROOT
BRANCH   2   5
HETATM    5  N   UNL     1      41.703 -15.179   0.484  1.00  0.00    -0.184 NA
HETATM    6  C   UNL     1      41.336 -15.843  -0.563  1.00  0.00     0.152 C 
BRANCH   6   7
HETATM    7  C   UNL     1      40.715 -15.132  -1.664  1.00  0.00     0.011 A 
HETATM    8  C   UNL     1      39.622 -14.207  -1.610  1.00  0.00     0.005 A 
HETATM    9  C   UNL     1      39.381 -13.769  -2.916  1.00  0.00     0.043 A 
HETATM   10  C   UNL     1      38.821 -13.684  -0.572  1.00  0.00     0.033 A 
HETATM   11  C   UNL     1      38.383 -12.843  -3.239  1.00  0.00     0.031 A 
HETATM   12  N   UNL     1      40.287 -14.408  -3.731  1.00  0.00    -0.364 N 
HETATM   13  C   UNL     1      37.604 -12.339  -2.194  1.00  0.00     0.021 A 
HETATM   14  C   UNL     1      37.823 -12.754  -0.883  1.00  0.00     0.012 A 
HETATM   15 BR   UNL     1      36.756 -12.042   0.508  1.00  0.00    -0.051 Br
HETATM   16  H   UNL     1      40.350 -14.283  -4.733  1.00  0.00     0.165 HD
HETATM   17  C   UNL     1      41.095 -15.222  -2.990  1.00  0.00     0.102 A 
ENDBRANCH   6   7
ENDBRANCH   2   5
BRANCH   1  18
HETATM   18  C   UNL     1      42.474 -16.722   3.769  1.00  0.00     0.280 C 
BRANCH  18  19
HETATM   19  O   UNL     1      43.742 -17.153   3.275  1.00  0.00    -0.342 OA
BRANCH  19  20
HETATM   20  C   UNL     1      43.993 -18.482   3.497  1.00  0.00     0.069 A 
HETATM   21  C   UNL     1      43.971 -19.460   2.500  1.00  0.00     0.044 A 
HETATM   22  C   UNL     1      44.255 -20.805   2.802  1.00  0.00    -0.053 A 
HETATM   23  C   UNL     1      44.551 -21.166   4.132  1.00  0.00    -0.056 A 
HETATM   24  C   UNL     1      44.210 -21.828   1.700  1.00  0.00     0.049 C 
HETATM   25  C   UNL     1      44.856 -22.591   4.510  1.00  0.00     0.049 C 
HETATM   26  C   UNL     1      44.603 -20.169   5.117  1.00  0.00     0.010 A 
HETATM   27  C   UNL     1      44.332 -18.835   4.799  1.00  0.00     0.037 A 
ENDBRANCH  19  20
ENDBRANCH  18  19
ENDBRANCH   1  18
TORSDOF 5
ENDMDL
MODEL 8
REMARK VINA RESULT:      -8.0      7.581     10.645
REMARK  5 active torsions:
REMARK  status: ('A' for Active; 'I' for Inactive)
REMARK    1  A    between atoms: C_6  and  O_7 
REMARK    2  A    between atoms: O_7  and  C_8 
REMARK    3  A    between atoms: C_8  and  C_9 
REMARK       I    between atoms: C_9  and  N_10 
REMARK    4  A    between atoms: N_10  and  N_11 
REMARK    5  A    between atoms: C_12  and  C_13 
ROOT
HETATM    1  C   UNL     1      40.572 -15.768   2.273  1.00  0.00     0.261 C 
HETATM    2  N   UNL     1      41.591 -15.251   1.485  1.00  0.00    -0.246 N 
HETATM    3  O   UNL     1      39.370 -15.567   2.104  1.00  0.00    -0.269 OA
HETATM    4  H   UNL     1      42.558 -15.446   1.730  1.00  0.00     0.192 HD
ENDROOT
BRANCH   2   5
HETATM    5  N   UNL     1      41.288 -14.435   0.436  1.00  0.00    -0.184 NA
HETATM    6  C   UNL     1      41.410 -14.946  -0.745  1.00  0.00     0.152 C 
BRANCH   6   7
HETATM    7  C   UNL     1      41.095 -14.127  -1.900  1.00  0.00     0.011 A 
HETATM    8  C   UNL     1      41.580 -12.816  -2.209  1.00  0.00     0.005 A 
HETATM    9  C   UNL     1      41.011 -12.437  -3.429  1.00  0.00     0.043 A 
HETATM   10  C   UNL     1      42.464 -11.915  -1.576  1.00  0.00     0.033 A 
HETATM   11  C   UNL     1      41.274 -11.209  -4.046  1.00  0.00     0.031 A 
HETATM   12  N   UNL     1      40.207 -13.474  -3.841  1.00  0.00    -0.364 N 
HETATM   13  C   UNL     1      42.154 -10.335  -3.400  1.00  0.00     0.021 A 
HETATM   14  C   UNL     1      42.738 -10.686  -2.186  1.00  0.00     0.012 A 
HETATM   15 BR   UNL     1      43.932  -9.482  -1.346  1.00  0.00    -0.051 Br
HETATM   16  H   UNL     1      39.668 -13.482  -4.697  1.00  0.00     0.165 HD
HETATM   17  C   UNL     1      40.255 -14.495  -2.935  1.00  0.00     0.102 A 
ENDBRANCH   6   7
ENDBRANCH   2   5
BRANCH   1  18
HETATM   18  C   UNL     1      41.073 -16.736   3.339  1.00  0.00     0.280 C 
BRANCH  18  19
HETATM   19  O   UNL     1      42.500 -16.768   3.378  1.00  0.00    -0.342 OA
BRANCH  19  20
HETATM   20  C   UNL     1      43.026 -18.017   3.177  1.00  0.00     0.069 A 
HETATM   21  C   UNL     1      43.770 -18.716   4.129  1.00  0.00     0.044 A 
HETATM   22  C   UNL     1      44.264 -20.004   3.856  1.00  0.00    -0.053 A 
HETATM   23  C   UNL     1      44.015 -20.587   2.597  1.00  0.00    -0.056 A 
HETATM   24  C   UNL     1      45.070 -20.718   4.907  1.00  0.00     0.049 C 
HETATM   25  C   UNL     1      44.526 -21.960   2.250  1.00  0.00     0.049 C 
HETATM   26  C   UNL     1      43.238 -19.888   1.661  1.00  0.00     0.010 A 
HETATM   27  C   UNL     1      42.741 -18.615   1.953  1.00  0.00     0.037 A 
ENDBRANCH  19  20
ENDBRANCH  18  19
ENDBRANCH   1  18
TORSDOF 5
ENDMDL
MODEL 9
REMARK VINA RESULT:      -8.0      6.003     10.210
REMARK  5 active torsions:
REMARK  status: ('A' for Active; 'I' for Inactive)
REMARK    1  A    between atoms: C_6  and  O_7 
REMARK    2  A    between atoms: O_7  and  C_8 
REMARK    3  A    between atoms: C_8  and  C_9 
REMARK       I    between atoms: C_9  and  N_10 
REMARK    4  A    between atoms: N_10  and  N_11 
REMARK    5  A    between atoms: C_12  and  C_13 
ROOT
HETATM    1  C   UNL     1      42.006 -13.591   1.393  1.00  0.00     0.261 C 
HETATM    2  N   UNL     1      41.918 -14.977   1.415  1.00  0.00    -0.246 N 
HETATM    3  O   UNL     1      42.801 -12.918   2.045  1.00  0.00    -0.269 OA
HETATM    4  H   UNL     1      41.199 -15.439   0.866  1.00  0.00     0.192 HD
ENDROOT
BRANCH   2   5
HETATM    5  N   UNL     1      42.750 -15.693   2.222  1.00  0.00    -0.184 NA
HETATM    6  C   UNL     1      42.215 -16.233   3.268  1.00  0.00     0.152 C 
BRANCH   6   7
HETATM    7  C   UNL     1      43.049 -17.014   4.161  1.00  0.00     0.011 A 
HETATM    8  C   UNL     1      43.575 -18.329   3.951  1.00  0.00     0.005 A 
HETATM    9  C   UNL     1      44.331 -18.662   5.079  1.00  0.00     0.043 A 
HETATM   10  C   UNL     1      43.496 -19.267   2.899  1.00  0.00     0.033 A 
HETATM   11  C   UNL     1      45.005 -19.881   5.213  1.00  0.00     0.031 A 
HETATM   12  N   UNL     1      44.260 -17.595   5.944  1.00  0.00    -0.364 N 
HETATM   13  C   UNL     1      44.914 -20.793   4.158  1.00  0.00     0.021 A 
HETATM   14  C   UNL     1      44.171 -20.487   3.021  1.00  0.00     0.012 A 
HETATM   15 BR   UNL     1      44.077 -21.741   1.607  1.00  0.00    -0.051 Br
HETATM   16  H   UNL     1      44.715 -17.552   6.846  1.00  0.00     0.165 HD
HETATM   17  C   UNL     1      43.500 -16.599   5.401  1.00  0.00     0.102 A 
ENDBRANCH   6   7
ENDBRANCH   2   5
BRANCH   1  18
HETATM   18  C   UNL     1      41.075 -12.950   0.369  1.00  0.00     0.280 C 
BRANCH  18  19
HETATM   19  O   UNL     1      41.443 -13.316  -0.962  1.00  0.00    -0.342 OA
BRANCH  19  20
HETATM   20  C   UNL     1      40.374 -13.652  -1.752  1.00  0.00     0.069 A 
HETATM   21  C   UNL     1      40.313 -14.806  -2.536  1.00  0.00     0.044 A 
HETATM   22  C   UNL     1      39.174 -15.093  -3.309  1.00  0.00    -0.053 A 
HETATM   23  C   UNL     1      38.088 -14.195  -3.300  1.00  0.00    -0.056 A 
HETATM   24  C   UNL     1      39.155 -16.342  -4.149  1.00  0.00     0.049 C 
HETATM   25  C   UNL     1      36.848 -14.450  -4.114  1.00  0.00     0.049 C 
HETATM   26  C   UNL     1      38.149 -13.057  -2.482  1.00  0.00     0.010 A 
HETATM   27  C   UNL     1      39.281 -12.792  -1.708  1.00  0.00     0.037 A 
ENDBRANCH  19  20
ENDBRANCH  18  19
ENDBRANCH   1  18
TORSDOF 5
ENDMDL
MODEL 10
REMARK VINA RESULT:      -7.9      7.465     10.525
REMARK  5 active torsions:
REMARK  status: ('A' for Active; 'I' for Inactive)
REMARK    1  A    between atoms: C_6  and  O_7 
REMARK    2  A    between atoms: O_7  and  C_8 
REMARK    3  A    between atoms: C_8  and  C_9 
REMARK       I    between atoms: C_9  and  N_10 
REMARK    4  A    between atoms: N_10  and  N_11 
REMARK    5  A    between atoms: C_12  and  C_13 
ROOT
HETATM    1  C   UNL     1      40.741 -16.537   2.234  1.00  0.00     0.261 C 
HETATM    2  N   UNL     1      39.798 -15.608   2.652  1.00  0.00    -0.246 N 
HETATM    3  O   UNL     1      40.965 -16.848   1.066  1.00  0.00    -0.269 OA
HETATM    4  H   UNL     1      39.663 -15.448   3.647  1.00  0.00     0.192 HD
ENDROOT
BRANCH   2   5
HETATM    5  N   UNL     1      39.021 -14.973   1.731  1.00  0.00    -0.184 NA
HETATM    6  C   UNL     1      39.346 -13.754   1.444  1.00  0.00     0.152 C 
BRANCH   6   7
HETATM    7  C   UNL     1      38.559 -13.029   0.465  1.00  0.00     0.011 A 
HETATM    8  C   UNL     1      38.336 -13.365  -0.910  1.00  0.00     0.005 A 
HETATM    9  C   UNL     1      37.505 -12.379  -1.450  1.00  0.00     0.043 A 
HETATM   10  C   UNL     1      38.749 -14.424  -1.747  1.00  0.00     0.033 A 
HETATM   11  C   UNL     1      37.069 -12.394  -2.780  1.00  0.00     0.031 A 
HETATM   12  N   UNL     1      37.239 -11.477  -0.446  1.00  0.00    -0.364 N 
HETATM   13  C   UNL     1      37.490 -13.454  -3.589  1.00  0.00     0.021 A 
HETATM   14  C   UNL     1      38.315 -14.451  -3.077  1.00  0.00     0.012 A 
HETATM   15 BR   UNL     1      38.857 -15.876  -4.198  1.00  0.00    -0.051 Br
HETATM   16  H   UNL     1      36.658 -10.656  -0.548  1.00  0.00     0.165 HD
HETATM   17  C   UNL     1      37.861 -11.861   0.708  1.00  0.00     0.102 A 
ENDBRANCH   6   7
ENDBRANCH   2   5
BRANCH   1  18
HETATM   18  C   UNL     1      41.591 -17.081   3.378  1.00  0.00     0.280 C 
BRANCH  18  19
HETATM   19  O   UNL     1      42.949 -17.256   2.973  1.00  0.00    -0.342 OA
BRANCH  19  20
HETATM   20  C   UNL     1      43.482 -18.461   3.352  1.00  0.00     0.069 A 
HETATM   21  C   UNL     1      43.684 -19.535   2.482  1.00  0.00     0.044 A 
HETATM   22  C   UNL     1      44.252 -20.737   2.940  1.00  0.00    -0.053 A 
HETATM   23  C   UNL     1      44.607 -20.860   4.299  1.00  0.00    -0.056 A 
HETATM   24  C   UNL     1      44.442 -21.874   1.972  1.00  0.00     0.049 C 
HETATM   25  C   UNL     1      45.213 -22.126   4.843  1.00  0.00     0.049 C 
HETATM   26  C   UNL     1      44.430 -19.762   5.154  1.00  0.00     0.010 A 
HETATM   27  C   UNL     1      43.878 -18.569   4.681  1.00  0.00     0.037 A 
ENDBRANCH  19  20
ENDBRANCH  18  19
ENDBRANCH   1  18
TORSDOF 5
ENDMDL
