MODEL 1
REMARK VINA RESULT:      -8.9      0.000      0.000
REMARK  9 active torsions:
REMARK  status: ('A' for Active; 'I' for Inactive)
REMARK    1  A    between atoms: C_3  and  O_4 
REMARK    2  A    between atoms: C_5  and  C_6 
REMARK    3  A    between atoms: C_16  and  N_17 
REMARK    4  A    between atoms: N_17  and  C_18 
REMARK    5  A    between atoms: C_18  and  N_19 
REMARK       I    between atoms: N_19  and  C_20 
REMARK    6  A    between atoms: C_20  and  C_21 
REMARK    7  A    between atoms: C_24  and  O_25 
REMARK    8  A    between atoms: O_25  and  C_26 
REMARK    9  A    between atoms: C_26  and  C_27 
ROOT
HETATM    1  N   UNL     1      39.830 -14.053   4.340  1.00  0.00    -0.333 N 
HETATM    2  H   UNL     1      38.819 -13.973   4.414  1.00  0.00     0.168 HD
ENDROOT
BRANCH   1   3
HETATM    3  C   UNL     1      40.317 -14.397   3.063  1.00  0.00     0.035 A 
HETATM    4  C   UNL     1      40.762 -13.478   2.113  1.00  0.00     0.048 A 
HETATM    5  C   UNL     1      41.287 -13.895   0.873  1.00  0.00     0.053 A 
HETATM    6  C   UNL     1      41.379 -15.274   0.612  1.00  0.00     0.086 A 
HETATM    7  C   UNL     1      40.936 -16.215   1.552  1.00  0.00    -0.026 A 
HETATM    8  C   UNL     1      41.068 -17.694   1.312  1.00  0.00     0.051 C 
HETATM    9  C   UNL     1      40.424 -15.763   2.778  1.00  0.00     0.039 A 
BRANCH   5  10
HETATM   10  C   UNL     1      41.704 -12.857  -0.069  1.00  0.00     0.183 A 
HETATM   11  O   UNL     1      42.459 -11.828   0.440  1.00  0.00    -0.289 OA
HETATM   12  C   UNL     1      42.676 -11.016  -0.634  1.00  0.00     0.106 A 
HETATM   13  C   UNL     1      42.061 -11.592  -1.734  1.00  0.00     0.093 A 
HETATM   14  C   UNL     1      43.380  -9.819  -0.657  1.00  0.00     0.040 A 
HETATM   15  N   UNL     1      41.448 -12.765  -1.363  1.00  0.00    -0.221 NA
HETATM   16  C   UNL     1      42.142 -10.946  -2.973  1.00  0.00     0.034 A 
HETATM   17  C   UNL     1      42.846  -9.734  -3.040  1.00  0.00     0.002 A 
HETATM   18  C   UNL     1      43.452  -9.182  -1.902  1.00  0.00     0.003 A 
ENDBRANCH   5  10
BRANCH   6  19
HETATM   19  O   UNL     1      41.903 -15.775  -0.553  1.00  0.00    -0.359 OA
HETATM   20  H   UNL     1      42.794 -15.404  -0.691  1.00  0.00     0.218 HD
ENDBRANCH   6  19
ENDBRANCH   1   3
BRANCH   1  21
HETATM   21  C   UNL     1      40.439 -13.952   5.565  1.00  0.00     0.179 C 
HETATM   22  S   UNL     1      40.118 -12.562   6.439  1.00  0.00    -0.040 SA
BRANCH  21  23
HETATM   23  N   UNL     1      41.317 -14.957   5.906  1.00  0.00    -0.299 N 
HETATM   24  C   UNL     1      42.708 -14.923   5.867  1.00  0.00     0.257 C 
HETATM   25  O   UNL     1      43.403 -13.926   6.018  1.00  0.00    -0.267 OA
HETATM   26  H   UNL     1      40.892 -15.869   5.835  1.00  0.00     0.171 HD
BRANCH  24  27
HETATM   27  C   UNL     1      43.382 -16.237   5.698  1.00  0.00     0.032 A 
HETATM   28  C   UNL     1      44.317 -16.732   6.615  1.00  0.00     0.020 A 
HETATM   29  C   UNL     1      44.894 -17.993   6.414  1.00  0.00     0.038 A 
HETATM   30  C   UNL     1      44.546 -18.758   5.299  1.00  0.00     0.068 A 
HETATM   31  C   UNL     1      43.649 -18.239   4.365  1.00  0.00     0.038 A 
HETATM   32  C   UNL     1      43.066 -16.987   4.560  1.00  0.00     0.020 A 
BRANCH  30  33
HETATM   33  O   UNL     1      45.028 -20.000   4.995  1.00  0.00    -0.351 OA
BRANCH  33  34
HETATM   34  C   UNL     1      45.135 -20.368   3.618  1.00  0.00     0.179 C 
BRANCH  34  35
HETATM   35  C   UNL     1      44.271 -21.592   3.270  1.00  0.00     0.002 C 
HETATM   36  C   UNL     1      44.326 -21.909   1.773  1.00  0.00     0.011 C 
HETATM   37  C   UNL     1      44.716 -22.805   4.086  1.00  0.00     0.011 C 
ENDBRANCH  34  35
ENDBRANCH  33  34
ENDBRANCH  30  33
ENDBRANCH  24  27
ENDBRANCH  21  23
ENDBRANCH   1  21
TORSDOF 9
ENDMDL
MODEL 2
REMARK VINA RESULT:      -8.9      5.101      9.283
REMARK  9 active torsions:
REMARK  status: ('A' for Active; 'I' for Inactive)
REMARK    1  A    between atoms: C_3  and  O_4 
REMARK    2  A    between atoms: C_5  and  C_6 
REMARK    3  A    between atoms: C_16  and  N_17 
REMARK    4  A    between atoms: N_17  and  C_18 
REMARK    5  A    between atoms: C_18  and  N_19 
REMARK       I    between atoms: N_19  and  C_20 
REMARK    6  A    between atoms: C_20  and  C_21 
REMARK    7  A    between atoms: C_24  and  O_25 
REMARK    8  A    between atoms: O_25  and  C_26 
REMARK    9  A    between atoms: C_26  and  C_27 
ROOT
HETATM    1  N   UNL     1      39.957 -13.810   5.825  1.00  0.00    -0.333 N 
HETATM    2  H   UNL     1      39.570 -14.342   6.601  1.00  0.00     0.168 HD
ENDROOT
BRANCH   1   3
HETATM    3  C   UNL     1      40.117 -14.526   4.621  1.00  0.00     0.035 A 
HETATM    4  C   UNL     1      40.943 -15.639   4.469  1.00  0.00     0.048 A 
HETATM    5  C   UNL     1      41.016 -16.340   3.248  1.00  0.00     0.053 A 
HETATM    6  C   UNL     1      40.214 -15.909   2.176  1.00  0.00     0.086 A 
HETATM    7  C   UNL     1      39.379 -14.791   2.308  1.00  0.00    -0.026 A 
HETATM    8  C   UNL     1      38.479 -14.341   1.189  1.00  0.00     0.051 C 
HETATM    9  C   UNL     1      39.328 -14.121   3.539  1.00  0.00     0.039 A 
BRANCH   5  10
HETATM   10  C   UNL     1      41.929 -17.480   3.177  1.00  0.00     0.183 A 
HETATM   11  O   UNL     1      42.671 -17.750   4.301  1.00  0.00    -0.289 OA
HETATM   12  C   UNL     1      43.433 -18.824   3.944  1.00  0.00     0.106 A 
HETATM   13  C   UNL     1      43.108 -19.160   2.639  1.00  0.00     0.093 A 
HETATM   14  C   UNL     1      44.373 -19.486   4.722  1.00  0.00     0.040 A 
HETATM   15  N   UNL     1      42.149 -18.300   2.162  1.00  0.00    -0.221 NA
HETATM   16  C   UNL     1      43.757 -20.244   2.037  1.00  0.00     0.034 A 
HETATM   17  C   UNL     1      44.714 -20.942   2.790  1.00  0.00     0.002 A 
HETATM   18  C   UNL     1      45.016 -20.567   4.107  1.00  0.00     0.003 A 
ENDBRANCH   5  10
BRANCH   6  19
HETATM   19  O   UNL     1      40.195 -16.545   0.961  1.00  0.00    -0.359 OA
HETATM   20  H   UNL     1      41.034 -17.028   0.837  1.00  0.00     0.218 HD
ENDBRANCH   6  19
ENDBRANCH   1   3
BRANCH   1  21
HETATM   21  C   UNL     1      40.365 -12.562   6.219  1.00  0.00     0.179 C 
HETATM   22  S   UNL     1      41.391 -11.753   5.174  1.00  0.00    -0.040 SA
BRANCH  21  23
HETATM   23  N   UNL     1      39.962 -12.143   7.469  1.00  0.00    -0.299 N 
HETATM   24  C   UNL     1      39.465 -10.893   7.829  1.00  0.00     0.257 C 
HETATM   25  O   UNL     1      38.835 -10.138   7.100  1.00  0.00    -0.267 OA
HETATM   26  H   UNL     1      40.400 -12.677   8.204  1.00  0.00     0.171 HD
BRANCH  24  27
HETATM   27  C   UNL     1      39.669 -10.502   9.248  1.00  0.00     0.032 A 
HETATM   28  C   UNL     1      38.779  -9.672   9.940  1.00  0.00     0.020 A 
HETATM   29  C   UNL     1      39.013  -9.364  11.287  1.00  0.00     0.038 A 
HETATM   30  C   UNL     1      40.133  -9.877  11.943  1.00  0.00     0.068 A 
HETATM   31  C   UNL     1      41.041 -10.666  11.235  1.00  0.00     0.038 A 
HETATM   32  C   UNL     1      40.813 -10.981   9.895  1.00  0.00     0.020 A 
BRANCH  30  33
HETATM   33  O   UNL     1      40.467  -9.661  13.250  1.00  0.00    -0.351 OA
BRANCH  33  34
HETATM   34  C   UNL     1      41.247 -10.652  13.924  1.00  0.00     0.179 C 
BRANCH  34  35
HETATM   35  C   UNL     1      42.411 -10.040  14.721  1.00  0.00     0.002 C 
HETATM   36  C   UNL     1      43.338  -9.222  13.819  1.00  0.00     0.011 C 
HETATM   37  C   UNL     1      41.877  -9.172  15.859  1.00  0.00     0.011 C 
ENDBRANCH  34  35
ENDBRANCH  33  34
ENDBRANCH  30  33
ENDBRANCH  24  27
ENDBRANCH  21  23
ENDBRANCH   1  21
TORSDOF 9
ENDMDL
MODEL 3
REMARK VINA RESULT:      -8.9      5.775     10.225
REMARK  9 active torsions:
REMARK  status: ('A' for Active; 'I' for Inactive)
REMARK    1  A    between atoms: C_3  and  O_4 
REMARK    2  A    between atoms: C_5  and  C_6 
REMARK    3  A    between atoms: C_16  and  N_17 
REMARK    4  A    between atoms: N_17  and  C_18 
REMARK    5  A    between atoms: C_18  and  N_19 
REMARK       I    between atoms: N_19  and  C_20 
REMARK    6  A    between atoms: C_20  and  C_21 
REMARK    7  A    between atoms: C_24  and  O_25 
REMARK    8  A    between atoms: O_25  and  C_26 
REMARK    9  A    between atoms: C_26  and  C_27 
ROOT
HETATM    1  N   UNL     1      44.087 -14.086   7.754  1.00  0.00    -0.333 N 
HETATM    2  H   UNL     1      44.085 -14.757   8.518  1.00  0.00     0.168 HD
ENDROOT
BRANCH   1   3
HETATM    3  C   UNL     1      43.624 -14.578   6.517  1.00  0.00     0.035 A 
HETATM    4  C   UNL     1      43.865 -15.866   6.038  1.00  0.00     0.048 A 
HETATM    5  C   UNL     1      43.326 -16.310   4.814  1.00  0.00     0.053 A 
HETATM    6  C   UNL     1      42.509 -15.430   4.081  1.00  0.00     0.086 A 
HETATM    7  C   UNL     1      42.257 -14.131   4.542  1.00  0.00    -0.026 A 
HETATM    8  C   UNL     1      41.350 -13.190   3.796  1.00  0.00     0.051 C 
HETATM    9  C   UNL     1      42.806 -13.725   5.768  1.00  0.00     0.039 A 
BRANCH   5  10
HETATM   10  C   UNL     1      43.654 -17.668   4.384  1.00  0.00     0.183 A 
HETATM   11  O   UNL     1      43.209 -18.049   3.141  1.00  0.00    -0.289 OA
HETATM   12  C   UNL     1      43.630 -19.341   3.021  1.00  0.00     0.106 A 
HETATM   13  C   UNL     1      44.316 -19.673   4.178  1.00  0.00     0.093 A 
HETATM   14  C   UNL     1      43.425 -20.198   1.948  1.00  0.00     0.040 A 
HETATM   15  N   UNL     1      44.328 -18.601   5.037  1.00  0.00    -0.221 NA
HETATM   16  C   UNL     1      44.857 -20.959   4.301  1.00  0.00     0.034 A 
HETATM   17  C   UNL     1      44.673 -21.856   3.237  1.00  0.00     0.002 A 
HETATM   18  C   UNL     1      43.969 -21.481   2.084  1.00  0.00     0.003 A 
ENDBRANCH   5  10
BRANCH   6  19
HETATM   19  O   UNL     1      41.918 -15.783   2.894  1.00  0.00    -0.359 OA
HETATM   20  H   UNL     1      41.783 -14.983   2.352  1.00  0.00     0.218 HD
ENDBRANCH   6  19
ENDBRANCH   1   3
BRANCH   1  21
HETATM   21  C   UNL     1      44.698 -12.911   8.111  1.00  0.00     0.179 C 
HETATM   22  S   UNL     1      46.323 -12.778   7.739  1.00  0.00    -0.040 SA
BRANCH  21  23
HETATM   23  N   UNL     1      43.935 -12.005   8.815  1.00  0.00    -0.299 N 
HETATM   24  C   UNL     1      44.380 -11.001   9.671  1.00  0.00     0.257 C 
HETATM   25  O   UNL     1      45.450 -10.412   9.587  1.00  0.00    -0.267 OA
HETATM   26  H   UNL     1      42.999 -12.343   8.974  1.00  0.00     0.171 HD
BRANCH  24  27
HETATM   27  C   UNL     1      43.420 -10.580  10.726  1.00  0.00     0.032 A 
HETATM   28  C   UNL     1      42.039 -10.514  10.509  1.00  0.00     0.020 A 
HETATM   29  C   UNL     1      41.184 -10.138  11.554  1.00  0.00     0.038 A 
HETATM   30  C   UNL     1      41.703  -9.823  12.811  1.00  0.00     0.068 A 
HETATM   31  C   UNL     1      43.085  -9.846  13.007  1.00  0.00     0.038 A 
HETATM   32  C   UNL     1      43.942 -10.224  11.974  1.00  0.00     0.020 A 
BRANCH  30  33
HETATM   33  O   UNL     1      40.980  -9.454  13.909  1.00  0.00    -0.351 OA
BRANCH  33  34
HETATM   34  C   UNL     1      41.090  -8.105  14.372  1.00  0.00     0.179 C 
BRANCH  34  35
HETATM   35  C   UNL     1      39.724  -7.406  14.470  1.00  0.00     0.002 C 
HETATM   36  C   UNL     1      38.738  -7.956  13.436  1.00  0.00     0.011 C 
HETATM   37  C   UNL     1      39.153  -7.552  15.879  1.00  0.00     0.011 C 
ENDBRANCH  34  35
ENDBRANCH  33  34
ENDBRANCH  30  33
ENDBRANCH  24  27
ENDBRANCH  21  23
ENDBRANCH   1  21
TORSDOF 9
ENDMDL
MODEL 4
REMARK VINA RESULT:      -8.6      4.498      7.581
REMARK  9 active torsions:
REMARK  status: ('A' for Active; 'I' for Inactive)
REMARK    1  A    between atoms: C_3  and  O_4 
REMARK    2  A    between atoms: C_5  and  C_6 
REMARK    3  A    between atoms: C_16  and  N_17 
REMARK    4  A    between atoms: N_17  and  C_18 
REMARK    5  A    between atoms: C_18  and  N_19 
REMARK       I    between atoms: N_19  and  C_20 
REMARK    6  A    between atoms: C_20  and  C_21 
REMARK    7  A    between atoms: C_24  and  O_25 
REMARK    8  A    between atoms: O_25  and  C_26 
REMARK    9  A    between atoms: C_26  and  C_27 
ROOT
HETATM    1  N   UNL     1      44.155 -15.795   5.734  1.00  0.00    -0.333 N 
HETATM    2  H   UNL     1      44.992 -15.272   5.491  1.00  0.00     0.168 HD
ENDROOT
BRANCH   1   3
HETATM    3  C   UNL     1      43.485 -16.401   4.651  1.00  0.00     0.035 A 
HETATM    4  C   UNL     1      42.521 -15.768   3.866  1.00  0.00     0.048 A 
HETATM    5  C   UNL     1      41.928 -16.417   2.763  1.00  0.00     0.053 A 
HETATM    6  C   UNL     1      42.346 -17.722   2.447  1.00  0.00     0.086 A 
HETATM    7  C   UNL     1      43.312 -18.376   3.224  1.00  0.00    -0.026 A 
HETATM    8  C   UNL     1      43.806 -19.754   2.876  1.00  0.00     0.051 C 
HETATM    9  C   UNL     1      43.884 -17.698   4.311  1.00  0.00     0.039 A 
BRANCH   5  10
HETATM   10  C   UNL     1      40.909 -15.682   2.015  1.00  0.00     0.183 A 
HETATM   11  O   UNL     1      41.208 -15.360   0.714  1.00  0.00    -0.289 OA
HETATM   12  C   UNL     1      40.112 -14.672   0.283  1.00  0.00     0.106 A 
HETATM   13  C   UNL     1      39.204 -14.624   1.329  1.00  0.00     0.093 A 
HETATM   14  C   UNL     1      39.909 -14.109  -0.969  1.00  0.00     0.040 A 
HETATM   15  N   UNL     1      39.720 -15.272   2.424  1.00  0.00    -0.221 NA
HETATM   16  C   UNL     1      37.982 -13.969   1.136  1.00  0.00     0.034 A 
HETATM   17  C   UNL     1      37.736 -13.386  -0.117  1.00  0.00     0.002 A 
HETATM   18  C   UNL     1      38.684 -13.454  -1.148  1.00  0.00     0.003 A 
ENDBRANCH   5  10
BRANCH   6  19
HETATM   19  O   UNL     1      41.848 -18.421   1.376  1.00  0.00    -0.359 OA
HETATM   20  H   UNL     1      42.243 -18.075   0.554  1.00  0.00     0.218 HD
ENDBRANCH   6  19
ENDBRANCH   1   3
BRANCH   1  21
HETATM   21  C   UNL     1      43.820 -15.634   7.054  1.00  0.00     0.179 C 
HETATM   22  S   UNL     1      43.431 -17.026   7.895  1.00  0.00    -0.040 SA
BRANCH  21  23
HETATM   23  N   UNL     1      43.752 -14.340   7.523  1.00  0.00    -0.299 N 
HETATM   24  C   UNL     1      44.802 -13.445   7.709  1.00  0.00     0.257 C 
HETATM   25  O   UNL     1      45.842 -13.420   7.063  1.00  0.00    -0.267 OA
HETATM   26  H   UNL     1      42.931 -14.187   8.088  1.00  0.00     0.171 HD
BRANCH  24  27
HETATM   27  C   UNL     1      44.581 -12.396   8.739  1.00  0.00     0.032 A 
HETATM   28  C   UNL     1      45.508 -12.122   9.751  1.00  0.00     0.020 A 
HETATM   29  C   UNL     1      45.254 -11.099  10.675  1.00  0.00     0.038 A 
HETATM   30  C   UNL     1      44.076 -10.354  10.594  1.00  0.00     0.068 A 
HETATM   31  C   UNL     1      43.136 -10.663   9.611  1.00  0.00     0.038 A 
HETATM   32  C   UNL     1      43.383 -11.676   8.685  1.00  0.00     0.020 A 
BRANCH  30  33
HETATM   33  O   UNL     1      43.716  -9.330  11.423  1.00  0.00    -0.351 OA
BRANCH  33  34
HETATM   34  C   UNL     1      42.324  -9.101  11.654  1.00  0.00     0.179 C 
BRANCH  34  35
HETATM   35  C   UNL     1      41.879  -9.558  13.054  1.00  0.00     0.002 C 
HETATM   36  C   UNL     1      41.226 -10.942  13.009  1.00  0.00     0.011 C 
HETATM   37  C   UNL     1      43.068  -9.563  14.013  1.00  0.00     0.011 C 
ENDBRANCH  34  35
ENDBRANCH  33  34
ENDBRANCH  30  33
ENDBRANCH  24  27
ENDBRANCH  21  23
ENDBRANCH   1  21
TORSDOF 9
ENDMDL
MODEL 5
REMARK VINA RESULT:      -8.5      4.592      8.925
REMARK  9 active torsions:
REMARK  status: ('A' for Active; 'I' for Inactive)
REMARK    1  A    between atoms: C_3  and  O_4 
REMARK    2  A    between atoms: C_5  and  C_6 
REMARK    3  A    between atoms: C_16  and  N_17 
REMARK    4  A    between atoms: N_17  and  C_18 
REMARK    5  A    between atoms: C_18  and  N_19 
REMARK       I    between atoms: N_19  and  C_20 
REMARK    6  A    between atoms: C_20  and  C_21 
REMARK    7  A    between atoms: C_24  and  O_25 
REMARK    8  A    between atoms: O_25  and  C_26 
REMARK    9  A    between atoms: C_26  and  C_27 
ROOT
HETATM    1  N   UNL     1      41.896 -12.160   3.706  1.00  0.00    -0.333 N 
HETATM    2  H   UNL     1      42.829 -11.889   3.406  1.00  0.00     0.168 HD
ENDROOT
BRANCH   1   3
HETATM    3  C   UNL     1      41.447 -13.408   3.228  1.00  0.00     0.035 A 
HETATM    4  C   UNL     1      42.124 -14.614   3.409  1.00  0.00     0.048 A 
HETATM    5  C   UNL     1      41.590 -15.835   2.949  1.00  0.00     0.053 A 
HETATM    6  C   UNL     1      40.334 -15.823   2.317  1.00  0.00     0.086 A 
HETATM    7  C   UNL     1      39.638 -14.622   2.123  1.00  0.00    -0.026 A 
HETATM    8  C   UNL     1      38.273 -14.593   1.489  1.00  0.00     0.051 C 
HETATM    9  C   UNL     1      40.198 -13.426   2.598  1.00  0.00     0.039 A 
BRANCH   5  10
HETATM   10  C   UNL     1      42.385 -17.043   3.164  1.00  0.00     0.183 A 
HETATM   11  O   UNL     1      42.392 -17.968   2.148  1.00  0.00    -0.289 OA
HETATM   12  C   UNL     1      43.176 -18.977   2.625  1.00  0.00     0.106 A 
HETATM   13  C   UNL     1      43.615 -18.613   3.888  1.00  0.00     0.093 A 
HETATM   14  C   UNL     1      43.497 -20.168   1.988  1.00  0.00     0.040 A 
HETATM   15  N   UNL     1      43.108 -17.379   4.219  1.00  0.00    -0.221 NA
HETATM   16  C   UNL     1      44.447 -19.488   4.596  1.00  0.00     0.034 A 
HETATM   17  C   UNL     1      44.797 -20.703   3.986  1.00  0.00     0.002 A 
HETATM   18  C   UNL     1      44.328 -21.035   2.707  1.00  0.00     0.003 A 
ENDBRANCH   5  10
BRANCH   6  19
HETATM   19  O   UNL     1      39.722 -16.964   1.863  1.00  0.00    -0.359 OA
HETATM   20  H   UNL     1      40.400 -17.636   1.664  1.00  0.00     0.218 HD
ENDBRANCH   6  19
ENDBRANCH   1   3
BRANCH   1  21
HETATM   21  C   UNL     1      41.264 -11.146   4.380  1.00  0.00     0.179 C 
HETATM   22  S   UNL     1      40.658  -9.900   3.443  1.00  0.00    -0.040 SA
BRANCH  21  23
HETATM   23  N   UNL     1      41.273 -11.215   5.756  1.00  0.00    -0.299 N 
HETATM   24  C   UNL     1      40.181 -11.350   6.609  1.00  0.00     0.257 C 
HETATM   25  O   UNL     1      39.129 -11.916   6.339  1.00  0.00    -0.267 OA
HETATM   26  H   UNL     1      42.095 -10.784   6.150  1.00  0.00     0.171 HD
BRANCH  24  27
HETATM   27  C   UNL     1      40.365 -10.813   7.983  1.00  0.00     0.032 A 
HETATM   28  C   UNL     1      39.496 -11.117   9.037  1.00  0.00     0.020 A 
HETATM   29  C   UNL     1      39.742 -10.603  10.317  1.00  0.00     0.038 A 
HETATM   30  C   UNL     1      40.848  -9.783  10.547  1.00  0.00     0.068 A 
HETATM   31  C   UNL     1      41.684  -9.447   9.481  1.00  0.00     0.038 A 
HETATM   32  C   UNL     1      41.449  -9.958   8.205  1.00  0.00     0.020 A 
BRANCH  30  33
HETATM   33  O   UNL     1      41.202  -9.229  11.744  1.00  0.00    -0.351 OA
BRANCH  33  34
HETATM   34  C   UNL     1      40.993  -9.993  12.934  1.00  0.00     0.179 C 
BRANCH  34  35
HETATM   35  C   UNL     1      42.312 -10.342  13.645  1.00  0.00     0.002 C 
HETATM   36  C   UNL     1      43.502  -9.627  13.001  1.00  0.00     0.011 C 
HETATM   37  C   UNL     1      42.223  -9.994  15.130  1.00  0.00     0.011 C 
ENDBRANCH  34  35
ENDBRANCH  33  34
ENDBRANCH  30  33
ENDBRANCH  24  27
ENDBRANCH  21  23
ENDBRANCH   1  21
TORSDOF 9
ENDMDL
MODEL 6
REMARK VINA RESULT:      -8.4      3.872      9.118
REMARK  9 active torsions:
REMARK  status: ('A' for Active; 'I' for Inactive)
REMARK    1  A    between atoms: C_3  and  O_4 
REMARK    2  A    between atoms: C_5  and  C_6 
REMARK    3  A    between atoms: C_16  and  N_17 
REMARK    4  A    between atoms: N_17  and  C_18 
REMARK    5  A    between atoms: C_18  and  N_19 
REMARK       I    between atoms: N_19  and  C_20 
REMARK    6  A    between atoms: C_20  and  C_21 
REMARK    7  A    between atoms: C_24  and  O_25 
REMARK    8  A    between atoms: O_25  and  C_26 
REMARK    9  A    between atoms: C_26  and  C_27 
ROOT
HETATM    1  N   UNL     1      41.539 -13.750   3.510  1.00  0.00    -0.333 N 
HETATM    2  H   UNL     1      41.885 -13.537   2.579  1.00  0.00     0.168 HD
ENDROOT
BRANCH   1   3
HETATM    3  C   UNL     1      42.341 -14.627   4.268  1.00  0.00     0.035 A 
HETATM    4  C   UNL     1      42.633 -15.942   3.906  1.00  0.00     0.048 A 
HETATM    5  C   UNL     1      43.487 -16.749   4.685  1.00  0.00     0.053 A 
HETATM    6  C   UNL     1      44.068 -16.192   5.839  1.00  0.00     0.086 A 
HETATM    7  C   UNL     1      43.786 -14.874   6.222  1.00  0.00    -0.026 A 
HETATM    8  C   UNL     1      44.434 -14.246   7.426  1.00  0.00     0.051 C 
HETATM    9  C   UNL     1      42.936 -14.100   5.419  1.00  0.00     0.039 A 
BRANCH   5  10
HETATM   10  C   UNL     1      43.713 -18.122   4.238  1.00  0.00     0.183 A 
HETATM   11  O   UNL     1      44.161 -19.015   5.182  1.00  0.00    -0.289 OA
HETATM   12  C   UNL     1      44.305 -20.182   4.490  1.00  0.00     0.106 A 
HETATM   13  C   UNL     1      43.927 -19.947   3.178  1.00  0.00     0.093 A 
HETATM   14  C   UNL     1      44.747 -21.403   4.981  1.00  0.00     0.040 A 
HETATM   15  N   UNL     1      43.550 -18.634   3.030  1.00  0.00    -0.221 NA
HETATM   16  C   UNL     1      43.981 -21.001   2.258  1.00  0.00     0.034 A 
HETATM   17  C   UNL     1      44.423 -22.253   2.714  1.00  0.00     0.002 A 
HETATM   18  C   UNL     1      44.799 -22.447   4.050  1.00  0.00     0.003 A 
ENDBRANCH   5  10
BRANCH   6  19
HETATM   19  O   UNL     1      44.934 -16.890   6.642  1.00  0.00    -0.359 OA
HETATM   20  H   UNL     1      44.757 -16.668   7.576  1.00  0.00     0.218 HD
ENDBRANCH   6  19
ENDBRANCH   1   3
BRANCH   1  21
HETATM   21  C   UNL     1      40.284 -13.236   3.715  1.00  0.00     0.179 C 
HETATM   22  S   UNL     1      39.253 -13.250   2.398  1.00  0.00    -0.040 SA
BRANCH  21  23
HETATM   23  N   UNL     1      40.034 -12.683   4.953  1.00  0.00    -0.299 N 
HETATM   24  C   UNL     1      40.186 -11.354   5.338  1.00  0.00     0.257 C 
HETATM   25  O   UNL     1      40.073 -10.380   4.604  1.00  0.00    -0.267 OA
HETATM   26  H   UNL     1      40.088 -13.369   5.690  1.00  0.00     0.171 HD
BRANCH  24  27
HETATM   27  C   UNL     1      40.434 -11.126   6.785  1.00  0.00     0.032 A 
HETATM   28  C   UNL     1      39.433 -11.262   7.755  1.00  0.00     0.020 A 
HETATM   29  C   UNL     1      39.739 -11.062   9.108  1.00  0.00     0.038 A 
HETATM   30  C   UNL     1      41.036 -10.722   9.495  1.00  0.00     0.068 A 
HETATM   31  C   UNL     1      42.018 -10.543   8.519  1.00  0.00     0.038 A 
HETATM   32  C   UNL     1      41.723 -10.744   7.171  1.00  0.00     0.020 A 
BRANCH  30  33
HETATM   33  O   UNL     1      41.463 -10.510  10.775  1.00  0.00    -0.351 OA
BRANCH  33  34
HETATM   34  C   UNL     1      42.333  -9.403  11.027  1.00  0.00     0.179 C 
BRANCH  34  35
HETATM   35  C   UNL     1      43.507  -9.777  11.947  1.00  0.00     0.002 C 
HETATM   36  C   UNL     1      43.019 -10.185  13.339  1.00  0.00     0.011 C 
HETATM   37  C   UNL     1      44.332 -10.901  11.323  1.00  0.00     0.011 C 
ENDBRANCH  34  35
ENDBRANCH  33  34
ENDBRANCH  30  33
ENDBRANCH  24  27
ENDBRANCH  21  23
ENDBRANCH   1  21
TORSDOF 9
ENDMDL
MODEL 7
REMARK VINA RESULT:      -8.2      1.975      8.710
REMARK  9 active torsions:
REMARK  status: ('A' for Active; 'I' for Inactive)
REMARK    1  A    between atoms: C_3  and  O_4 
REMARK    2  A    between atoms: C_5  and  C_6 
REMARK    3  A    between atoms: C_16  and  N_17 
REMARK    4  A    between atoms: N_17  and  C_18 
REMARK    5  A    between atoms: C_18  and  N_19 
REMARK       I    between atoms: N_19  and  C_20 
REMARK    6  A    between atoms: C_20  and  C_21 
REMARK    7  A    between atoms: C_24  and  O_25 
REMARK    8  A    between atoms: O_25  and  C_26 
REMARK    9  A    between atoms: C_26  and  C_27 
ROOT
HETATM    1  N   UNL     1      40.169 -14.862   4.974  1.00  0.00    -0.333 N 
HETATM    2  H   UNL     1      39.343 -15.424   5.165  1.00  0.00     0.168 HD
ENDROOT
BRANCH   1   3
HETATM    3  C   UNL     1      41.400 -15.462   5.310  1.00  0.00     0.035 A 
HETATM    4  C   UNL     1      41.864 -16.664   4.777  1.00  0.00     0.048 A 
HETATM    5  C   UNL     1      43.130 -17.181   5.119  1.00  0.00     0.053 A 
HETATM    6  C   UNL     1      43.941 -16.444   6.001  1.00  0.00     0.086 A 
HETATM    7  C   UNL     1      43.492 -15.235   6.550  1.00  0.00    -0.026 A 
HETATM    8  C   UNL     1      44.362 -14.410   7.459  1.00  0.00     0.051 C 
HETATM    9  C   UNL     1      42.228 -14.749   6.183  1.00  0.00     0.039 A 
BRANCH   5  10
HETATM   10  C   UNL     1      43.520 -18.460   4.527  1.00  0.00     0.183 A 
HETATM   11  O   UNL     1      43.162 -18.672   3.218  1.00  0.00    -0.289 OA
HETATM   12  C   UNL     1      43.623 -19.927   2.948  1.00  0.00     0.106 A 
HETATM   13  C   UNL     1      44.246 -20.405   4.090  1.00  0.00     0.093 A 
HETATM   14  C   UNL     1      43.506 -20.628   1.756  1.00  0.00     0.040 A 
HETATM   15  N   UNL     1      44.176 -19.462   5.087  1.00  0.00    -0.221 NA
HETATM   16  C   UNL     1      44.811 -21.685   4.068  1.00  0.00     0.034 A 
HETATM   17  C   UNL     1      44.717 -22.428   2.881  1.00  0.00     0.002 A 
HETATM   18  C   UNL     1      44.074 -21.908   1.748  1.00  0.00     0.003 A 
ENDBRANCH   5  10
BRANCH   6  19
HETATM   19  O   UNL     1      45.198 -16.852   6.368  1.00  0.00    -0.359 OA
HETATM   20  H   UNL     1      45.759 -16.923   5.573  1.00  0.00     0.218 HD
ENDBRANCH   6  19
ENDBRANCH   1   3
BRANCH   1  21
HETATM   21  C   UNL     1      39.838 -13.591   4.577  1.00  0.00     0.179 C 
HETATM   22  S   UNL     1      39.200 -12.590   5.755  1.00  0.00    -0.040 SA
BRANCH  21  23
HETATM   23  N   UNL     1      39.982 -13.302   3.238  1.00  0.00    -0.299 N 
HETATM   24  C   UNL     1      39.854 -14.173   2.159  1.00  0.00     0.257 C 
HETATM   25  O   UNL     1      39.136 -15.164   2.123  1.00  0.00    -0.267 OA
HETATM   26  H   UNL     1      40.561 -12.490   3.088  1.00  0.00     0.171 HD
BRANCH  24  27
HETATM   27  C   UNL     1      40.612 -13.802   0.936  1.00  0.00     0.032 A 
HETATM   28  C   UNL     1      41.388 -12.640   0.850  1.00  0.00     0.020 A 
HETATM   29  C   UNL     1      42.103 -12.361  -0.323  1.00  0.00     0.038 A 
HETATM   30  C   UNL     1      42.041 -13.235  -1.410  1.00  0.00     0.068 A 
HETATM   31  C   UNL     1      41.229 -14.367  -1.334  1.00  0.00     0.038 A 
HETATM   32  C   UNL     1      40.518 -14.654  -0.170  1.00  0.00     0.020 A 
BRANCH  30  33
HETATM   33  O   UNL     1      42.695 -13.083  -2.600  1.00  0.00    -0.351 OA
BRANCH  33  34
HETATM   34  C   UNL     1      41.999 -12.460  -3.682  1.00  0.00     0.179 C 
BRANCH  34  35
HETATM   35  C   UNL     1      42.104 -10.926  -3.641  1.00  0.00     0.002 C 
HETATM   36  C   UNL     1      42.542 -10.358  -4.993  1.00  0.00     0.011 C 
HETATM   37  C   UNL     1      40.771 -10.314  -3.214  1.00  0.00     0.011 C 
ENDBRANCH  34  35
ENDBRANCH  33  34
ENDBRANCH  30  33
ENDBRANCH  24  27
ENDBRANCH  21  23
ENDBRANCH   1  21
TORSDOF 9
ENDMDL
MODEL 8
REMARK VINA RESULT:      -8.2      5.053     10.855
REMARK  9 active torsions:
REMARK  status: ('A' for Active; 'I' for Inactive)
REMARK    1  A    between atoms: C_3  and  O_4 
REMARK    2  A    between atoms: C_5  and  C_6 
REMARK    3  A    between atoms: C_16  and  N_17 
REMARK    4  A    between atoms: N_17  and  C_18 
REMARK    5  A    between atoms: C_18  and  N_19 
REMARK       I    between atoms: N_19  and  C_20 
REMARK    6  A    between atoms: C_20  and  C_21 
REMARK    7  A    between atoms: C_24  and  O_25 
REMARK    8  A    between atoms: O_25  and  C_26 
REMARK    9  A    between atoms: C_26  and  C_27 
ROOT
HETATM    1  N   UNL     1      41.567 -15.251  -1.294  1.00  0.00    -0.333 N 
HETATM    2  H   UNL     1      41.936 -15.942  -1.942  1.00  0.00     0.168 HD
ENDROOT
BRANCH   1   3
HETATM    3  C   UNL     1      41.416 -15.691   0.037  1.00  0.00     0.035 A 
HETATM    4  C   UNL     1      42.106 -16.766   0.596  1.00  0.00     0.048 A 
HETATM    5  C   UNL     1      41.946 -17.120   1.951  1.00  0.00     0.053 A 
HETATM    6  C   UNL     1      41.083 -16.348   2.750  1.00  0.00     0.086 A 
HETATM    7  C   UNL     1      40.378 -15.265   2.207  1.00  0.00    -0.026 A 
HETATM    8  C   UNL     1      39.486 -14.399   3.054  1.00  0.00     0.051 C 
HETATM    9  C   UNL     1      40.566 -14.939   0.855  1.00  0.00     0.039 A 
BRANCH   5  10
HETATM   10  C   UNL     1      42.694 -18.277   2.441  1.00  0.00     0.183 A 
HETATM   11  O   UNL     1      42.755 -19.371   1.612  1.00  0.00    -0.289 OA
HETATM   12  C   UNL     1      43.477 -20.284   2.323  1.00  0.00     0.106 A 
HETATM   13  C   UNL     1      43.828 -19.701   3.529  1.00  0.00     0.093 A 
HETATM   14  C   UNL     1      43.816 -21.574   1.937  1.00  0.00     0.040 A 
HETATM   15  N   UNL     1      43.327 -18.424   3.592  1.00  0.00    -0.221 NA
HETATM   16  C   UNL     1      44.585 -20.442   4.445  1.00  0.00     0.034 A 
HETATM   17  C   UNL     1      44.950 -21.751   4.093  1.00  0.00     0.002 A 
HETATM   18  C   UNL     1      44.571 -22.305   2.863  1.00  0.00     0.003 A 
ENDBRANCH   5  10
BRANCH   6  19
HETATM   19  O   UNL     1      40.886 -16.597   4.084  1.00  0.00    -0.359 OA
HETATM   20  H   UNL     1      39.983 -16.326   4.333  1.00  0.00     0.218 HD
ENDBRANCH   6  19
ENDBRANCH   1   3
BRANCH   1  21
HETATM   21  C   UNL     1      41.167 -14.110  -1.940  1.00  0.00     0.179 C 
HETATM   22  S   UNL     1      42.353 -12.965  -2.226  1.00  0.00    -0.040 SA
BRANCH  21  23
HETATM   23  N   UNL     1      39.820 -13.986  -2.206  1.00  0.00    -0.299 N 
HETATM   24  C   UNL     1      39.073 -14.675  -3.157  1.00  0.00     0.257 C 
HETATM   25  O   UNL     1      39.302 -15.808  -3.562  1.00  0.00    -0.267 OA
HETATM   26  H   UNL     1      39.461 -13.087  -1.924  1.00  0.00     0.171 HD
BRANCH  24  27
HETATM   27  C   UNL     1      37.856 -13.979  -3.650  1.00  0.00     0.032 A 
HETATM   28  C   UNL     1      37.686 -12.593  -3.554  1.00  0.00     0.020 A 
HETATM   29  C   UNL     1      36.528 -11.992  -4.066  1.00  0.00     0.038 A 
HETATM   30  C   UNL     1      35.537 -12.771  -4.667  1.00  0.00     0.068 A 
HETATM   31  C   UNL     1      35.692 -14.157  -4.717  1.00  0.00     0.038 A 
HETATM   32  C   UNL     1      36.844 -14.762  -4.215  1.00  0.00     0.020 A 
BRANCH  30  33
HETATM   33  O   UNL     1      34.372 -12.310  -5.210  1.00  0.00    -0.351 OA
BRANCH  33  34
HETATM   34  C   UNL     1      33.877 -11.040  -4.777  1.00  0.00     0.179 C 
BRANCH  34  35
HETATM   35  C   UNL     1      32.810 -11.171  -3.677  1.00  0.00     0.002 C 
HETATM   36  C   UNL     1      32.142 -12.548  -3.706  1.00  0.00     0.011 C 
HETATM   37  C   UNL     1      33.427 -10.909  -2.304  1.00  0.00     0.011 C 
ENDBRANCH  34  35
ENDBRANCH  33  34
ENDBRANCH  30  33
ENDBRANCH  24  27
ENDBRANCH  21  23
ENDBRANCH   1  21
TORSDOF 9
ENDMDL
MODEL 9
REMARK VINA RESULT:      -7.9      2.723      3.795
REMARK  9 active torsions:
REMARK  status: ('A' for Active; 'I' for Inactive)
REMARK    1  A    between atoms: C_3  and  O_4 
REMARK    2  A    between atoms: C_5  and  C_6 
REMARK    3  A    between atoms: C_16  and  N_17 
REMARK    4  A    between atoms: N_17  and  C_18 
REMARK    5  A    between atoms: C_18  and  N_19 
REMARK       I    between atoms: N_19  and  C_20 
REMARK    6  A    between atoms: C_20  and  C_21 
REMARK    7  A    between atoms: C_24  and  O_25 
REMARK    8  A    between atoms: O_25  and  C_26 
REMARK    9  A    between atoms: C_26  and  C_27 
ROOT
HETATM    1  N   UNL     1      39.907 -13.161   5.230  1.00  0.00    -0.333 N 
HETATM    2  H   UNL     1      39.341 -13.900   5.639  1.00  0.00     0.168 HD
ENDROOT
BRANCH   1   3
HETATM    3  C   UNL     1      39.406 -12.606   4.034  1.00  0.00     0.035 A 
HETATM    4  C   UNL     1      39.508 -13.209   2.781  1.00  0.00     0.048 A 
HETATM    5  C   UNL     1      38.937 -12.622   1.633  1.00  0.00     0.053 A 
HETATM    6  C   UNL     1      38.231 -11.414   1.776  1.00  0.00     0.086 A 
HETATM    7  C   UNL     1      38.120 -10.790   3.027  1.00  0.00    -0.026 A 
HETATM    8  C   UNL     1      37.332  -9.522   3.209  1.00  0.00     0.051 C 
HETATM    9  C   UNL     1      38.697 -11.406   4.148  1.00  0.00     0.039 A 
BRANCH   5  10
HETATM   10  C   UNL     1      39.117 -13.317   0.359  1.00  0.00     0.183 A 
HETATM   11  O   UNL     1      40.276 -14.037   0.204  1.00  0.00    -0.289 OA
HETATM   12  C   UNL     1      40.185 -14.543  -1.059  1.00  0.00     0.106 A 
HETATM   13  C   UNL     1      38.980 -14.122  -1.599  1.00  0.00     0.093 A 
HETATM   14  C   UNL     1      41.113 -15.338  -1.717  1.00  0.00     0.040 A 
HETATM   15  N   UNL     1      38.308 -13.345  -0.687  1.00  0.00    -0.221 NA
HETATM   16  C   UNL     1      38.645 -14.517  -2.900  1.00  0.00     0.034 A 
HETATM   17  C   UNL     1      39.556 -15.323  -3.600  1.00  0.00     0.002 A 
HETATM   18  C   UNL     1      40.767 -15.724  -3.018  1.00  0.00     0.003 A 
ENDBRANCH   5  10
BRANCH   6  19
HETATM   19  O   UNL     1      37.618 -10.785   0.723  1.00  0.00    -0.359 OA
HETATM   20  H   UNL     1      36.695 -11.095   0.655  1.00  0.00     0.218 HD
ENDBRANCH   6  19
ENDBRANCH   1   3
BRANCH   1  21
HETATM   21  C   UNL     1      41.102 -13.015   5.886  1.00  0.00     0.179 C 
HETATM   22  S   UNL     1      41.361 -11.541   6.635  1.00  0.00    -0.040 SA
BRANCH  21  23
HETATM   23  N   UNL     1      41.997 -14.058   5.786  1.00  0.00    -0.299 N 
HETATM   24  C   UNL     1      42.787 -14.400   4.692  1.00  0.00     0.257 C 
HETATM   25  O   UNL     1      43.218 -13.622   3.851  1.00  0.00    -0.267 OA
HETATM   26  H   UNL     1      41.781 -14.804   6.429  1.00  0.00     0.171 HD
BRANCH  24  27
HETATM   27  C   UNL     1      43.184 -15.830   4.604  1.00  0.00     0.032 A 
HETATM   28  C   UNL     1      43.678 -16.546   5.701  1.00  0.00     0.020 A 
HETATM   29  C   UNL     1      44.007 -17.901   5.560  1.00  0.00     0.038 A 
HETATM   30  C   UNL     1      43.850 -18.541   4.329  1.00  0.00     0.068 A 
HETATM   31  C   UNL     1      43.402 -17.809   3.229  1.00  0.00     0.038 A 
HETATM   32  C   UNL     1      43.067 -16.461   3.362  1.00  0.00     0.020 A 
BRANCH  30  33
HETATM   33  O   UNL     1      44.125 -19.852   4.065  1.00  0.00    -0.351 OA
BRANCH  33  34
HETATM   34  C   UNL     1      44.812 -20.172   2.852  1.00  0.00     0.179 C 
BRANCH  34  35
HETATM   35  C   UNL     1      44.659 -21.652   2.465  1.00  0.00     0.002 C 
HETATM   36  C   UNL     1      44.548 -22.546   3.702  1.00  0.00     0.011 C 
HETATM   37  C   UNL     1      43.441 -21.841   1.562  1.00  0.00     0.011 C 
ENDBRANCH  34  35
ENDBRANCH  33  34
ENDBRANCH  30  33
ENDBRANCH  24  27
ENDBRANCH  21  23
ENDBRANCH   1  21
TORSDOF 9
ENDMDL
MODEL 10
REMARK VINA RESULT:      -7.8      4.212      9.909
REMARK  9 active torsions:
REMARK  status: ('A' for Active; 'I' for Inactive)
REMARK    1  A    between atoms: C_3  and  O_4 
REMARK    2  A    between atoms: C_5  and  C_6 
REMARK    3  A    between atoms: C_16  and  N_17 
REMARK    4  A    between atoms: N_17  and  C_18 
REMARK    5  A    between atoms: C_18  and  N_19 
REMARK       I    between atoms: N_19  and  C_20 
REMARK    6  A    between atoms: C_20  and  C_21 
REMARK    7  A    between atoms: C_24  and  O_25 
REMARK    8  A    between atoms: O_25  and  C_26 
REMARK    9  A    between atoms: C_26  and  C_27 
ROOT
HETATM    1  N   UNL     1      42.102 -13.460   0.985  1.00  0.00    -0.333 N 
HETATM    2  H   UNL     1      42.959 -13.539   0.444  1.00  0.00     0.168 HD
ENDROOT
BRANCH   1   3
HETATM    3  C   UNL     1      42.046 -14.253   2.150  1.00  0.00     0.035 A 
HETATM    4  C   UNL     1      42.580 -15.537   2.258  1.00  0.00     0.048 A 
HETATM    5  C   UNL     1      42.536 -16.253   3.471  1.00  0.00     0.053 A 
HETATM    6  C   UNL     1      41.958 -15.637   4.595  1.00  0.00     0.086 A 
HETATM    7  C   UNL     1      41.413 -14.348   4.508  1.00  0.00    -0.026 A 
HETATM    8  C   UNL     1      40.831 -13.653   5.709  1.00  0.00     0.051 C 
HETATM    9  C   UNL     1      41.479 -13.663   3.285  1.00  0.00     0.039 A 
BRANCH   5  10
HETATM   10  C   UNL     1      43.100 -17.602   3.480  1.00  0.00     0.183 A 
HETATM   11  O   UNL     1      42.897 -18.366   2.356  1.00  0.00    -0.289 OA
HETATM   12  C   UNL     1      43.497 -19.555   2.651  1.00  0.00     0.106 A 
HETATM   13  C   UNL     1      44.043 -19.451   3.921  1.00  0.00     0.093 A 
HETATM   14  C   UNL     1      43.568 -20.685   1.848  1.00  0.00     0.040 A 
HETATM   15  N   UNL     1      43.786 -18.204   4.437  1.00  0.00    -0.221 NA
HETATM   16  C   UNL     1      44.724 -20.550   4.458  1.00  0.00     0.034 A 
HETATM   17  C   UNL     1      44.819 -21.713   3.678  1.00  0.00     0.002 A 
HETATM   18  C   UNL     1      44.250 -21.777   2.399  1.00  0.00     0.003 A 
ENDBRANCH   5  10
BRANCH   6  19
HETATM   19  O   UNL     1      41.896 -16.244   5.824  1.00  0.00    -0.359 OA
HETATM   20  H   UNL     1      42.800 -16.443   6.130  1.00  0.00     0.218 HD
ENDBRANCH   6  19
ENDBRANCH   1   3
BRANCH   1  21
HETATM   21  C   UNL     1      41.158 -12.707   0.334  1.00  0.00     0.179 C 
HETATM   22  S   UNL     1      41.217 -11.056   0.598  1.00  0.00    -0.040 SA
BRANCH  21  23
HETATM   23  N   UNL     1      40.210 -13.393  -0.393  1.00  0.00    -0.299 N 
HETATM   24  C   UNL     1      40.419 -14.411  -1.319  1.00  0.00     0.257 C 
HETATM   25  O   UNL     1      41.346 -15.211  -1.304  1.00  0.00    -0.267 OA
HETATM   26  H   UNL     1      39.360 -12.861  -0.500  1.00  0.00     0.171 HD
BRANCH  24  27
HETATM   27  C   UNL     1      39.370 -14.561  -2.362  1.00  0.00     0.032 A 
HETATM   28  C   UNL     1      39.400 -15.575  -3.325  1.00  0.00     0.020 A 
HETATM   29  C   UNL     1      38.364 -15.680  -4.264  1.00  0.00     0.038 A 
HETATM   30  C   UNL     1      37.303 -14.773  -4.246  1.00  0.00     0.068 A 
HETATM   31  C   UNL     1      37.303 -13.736  -3.312  1.00  0.00     0.038 A 
HETATM   32  C   UNL     1      38.328 -13.628  -2.372  1.00  0.00     0.020 A 
BRANCH  30  33
HETATM   33  O   UNL     1      36.233 -14.772  -5.095  1.00  0.00    -0.351 OA
BRANCH  33  34
HETATM   34  C   UNL     1      35.370 -13.633  -5.098  1.00  0.00     0.179 C 
BRANCH  34  35
HETATM   35  C   UNL     1      35.315 -12.943  -6.472  1.00  0.00     0.002 C 
HETATM   36  C   UNL     1      35.541 -13.941  -7.610  1.00  0.00     0.011 C 
HETATM   37  C   UNL     1      33.977 -12.226  -6.653  1.00  0.00     0.011 C 
ENDBRANCH  34  35
ENDBRANCH  33  34
ENDBRANCH  30  33
ENDBRANCH  24  27
ENDBRANCH  21  23
ENDBRANCH   1  21
TORSDOF 9
ENDMDL
