MODEL 1
REMARK VINA RESULT:      -7.9      0.000      0.000
REMARK  3 active torsions:
REMARK  status: ('A' for Active; 'I' for Inactive)
REMARK    1  A    between atoms: C_8  and  C_9 
REMARK    2  A    between atoms: C_10  and  O_11 
REMARK    3  A    between atoms: C_24  and  N_25 
ROOT
HETATM    1  C   UNL     1      43.947 -15.978   1.770  1.00  0.00     0.073 C 
HETATM    2  C   UNL     1      43.260 -14.933   2.569  1.00  0.00     0.062 A 
HETATM    3  N   UNL     1      43.405 -13.635   2.252  1.00  0.00    -0.177 NA
HETATM    4  N   UNL     1      42.646 -12.984   3.156  1.00  0.00    -0.256 N 
HETATM    5  H   UNL     1      42.597 -11.973   3.117  1.00  0.00     0.191 HD
HETATM    6  C   UNL     1      42.020 -13.825   4.017  1.00  0.00     0.175 A 
HETATM    7  C   UNL     1      42.411 -15.098   3.688  1.00  0.00     0.034 A 
HETATM    8  C   UNL     1      41.858 -16.255   4.444  1.00  0.00     0.109 A 
HETATM    9  C   UNL     1      40.948 -15.783   5.581  1.00  0.00     0.081 A 
HETATM   10  C   UNL     1      40.350 -16.797   6.386  1.00  0.00     0.100 C 
HETATM   11  N   UNL     1      39.826 -17.610   7.026  1.00  0.00    -0.191 NA
HETATM   12  C   UNL     1      40.660 -14.469   5.794  1.00  0.00     0.140 A 
HETATM   13  O   UNL     1      41.198 -13.445   4.989  1.00  0.00    -0.279 OA
ENDROOT
BRANCH   8  14
HETATM   14  C   UNL     1      43.028 -17.155   4.863  1.00  0.00     0.000 A 
HETATM   15  C   UNL     1      43.780 -16.752   6.000  1.00  0.00     0.076 A 
HETATM   16  C   UNL     1      44.853 -17.519   6.450  1.00  0.00     0.038 A 
HETATM   17  C   UNL     1      45.222 -18.673   5.770  1.00  0.00     0.015 A 
HETATM   18  C   UNL     1      44.530 -19.093   4.631  1.00  0.00    -0.025 A 
HETATM   19  C   UNL     1      43.421 -18.345   4.151  1.00  0.00    -0.016 A 
HETATM   20  C   UNL     1      44.955 -20.262   3.977  1.00  0.00     0.012 A 
HETATM   21  C   UNL     1      42.793 -18.857   2.986  1.00  0.00     0.013 A 
HETATM   22  C   UNL     1      43.225 -20.021   2.341  1.00  0.00     0.001 A 
HETATM   23  C   UNL     1      44.307 -20.726   2.838  1.00  0.00     0.001 A 
BRANCH  15  24
HETATM   24  O   UNL     1      43.371 -15.606   6.638  1.00  0.00    -0.355 OA
HETATM   25  C   UNL     1      44.367 -14.629   6.922  1.00  0.00     0.210 C 
ENDBRANCH  15  24
ENDBRANCH   8  14
BRANCH  12  26
HETATM   26  N   UNL     1      39.834 -13.981   6.783  1.00  0.00    -0.282 NA
HETATM   27  H   UNL     1      39.918 -12.985   6.972  1.00  0.00     0.126 HD
HETATM   28  H   UNL     1      39.866 -14.552   7.624  1.00  0.00     0.126 HD
ENDBRANCH  12  26
TORSDOF 3
ENDMDL
MODEL 2
REMARK VINA RESULT:      -7.7      5.125      7.607
REMARK  3 active torsions:
REMARK  status: ('A' for Active; 'I' for Inactive)
REMARK    1  A    between atoms: C_8  and  C_9 
REMARK    2  A    between atoms: C_10  and  O_11 
REMARK    3  A    between atoms: C_24  and  N_25 
ROOT
HETATM    1  C   UNL     1      39.477 -14.852  -3.138  1.00  0.00     0.073 C 
HETATM    2  C   UNL     1      40.774 -14.158  -2.938  1.00  0.00     0.062 A 
HETATM    3  N   UNL     1      41.847 -14.506  -3.668  1.00  0.00    -0.177 NA
HETATM    4  N   UNL     1      42.823 -13.678  -3.243  1.00  0.00    -0.256 N 
HETATM    5  H   UNL     1      43.744 -13.754  -3.657  1.00  0.00     0.191 HD
HETATM    6  C   UNL     1      42.396 -12.815  -2.287  1.00  0.00     0.175 A 
HETATM    7  C   UNL     1      41.080 -13.109  -2.041  1.00  0.00     0.034 A 
HETATM    8  C   UNL     1      40.319 -12.299  -1.049  1.00  0.00     0.109 A 
HETATM    9  C   UNL     1      41.223 -11.262  -0.379  1.00  0.00     0.081 A 
HETATM   10  C   UNL     1      40.616 -10.416   0.595  1.00  0.00     0.100 C 
HETATM   11  N   UNL     1      40.128  -9.696   1.363  1.00  0.00    -0.191 NA
HETATM   12  C   UNL     1      42.530 -11.093  -0.725  1.00  0.00     0.140 A 
HETATM   13  O   UNL     1      43.149 -11.882  -1.716  1.00  0.00    -0.279 OA
ENDROOT
BRANCH   8  14
HETATM   14  C   UNL     1      39.601 -13.264  -0.096  1.00  0.00     0.000 A 
HETATM   15  C   UNL     1      38.181 -13.195  -0.054  1.00  0.00     0.076 A 
HETATM   16  C   UNL     1      37.454 -14.044   0.780  1.00  0.00     0.038 A 
HETATM   17  C   UNL     1      38.112 -14.947   1.605  1.00  0.00     0.015 A 
HETATM   18  C   UNL     1      39.506 -15.031   1.618  1.00  0.00    -0.025 A 
HETATM   19  C   UNL     1      40.282 -14.193   0.771  1.00  0.00    -0.016 A 
HETATM   20  C   UNL     1      40.118 -15.955   2.481  1.00  0.00     0.012 A 
HETATM   21  C   UNL     1      41.688 -14.356   0.866  1.00  0.00     0.013 A 
HETATM   22  C   UNL     1      42.288 -15.278   1.731  1.00  0.00     0.001 A 
HETATM   23  C   UNL     1      41.501 -16.080   2.539  1.00  0.00     0.001 A 
BRANCH  15  24
HETATM   24  O   UNL     1      37.581 -12.288  -0.892  1.00  0.00    -0.355 OA
HETATM   25  C   UNL     1      36.794 -11.266  -0.288  1.00  0.00     0.210 C 
ENDBRANCH  15  24
ENDBRANCH   8  14
BRANCH  12  26
HETATM   26  N   UNL     1      43.389 -10.166  -0.179  1.00  0.00    -0.282 NA
HETATM   27  H   UNL     1      43.002  -9.236  -0.041  1.00  0.00     0.126 HD
HETATM   28  H   UNL     1      44.292 -10.158  -0.648  1.00  0.00     0.126 HD
ENDBRANCH  12  26
TORSDOF 3
ENDMDL
MODEL 3
REMARK VINA RESULT:      -7.5      7.331     10.229
REMARK  3 active torsions:
REMARK  status: ('A' for Active; 'I' for Inactive)
REMARK    1  A    between atoms: C_8  and  C_9 
REMARK    2  A    between atoms: C_10  and  O_11 
REMARK    3  A    between atoms: C_24  and  N_25 
ROOT
HETATM    1  C   UNL     1      36.571 -14.774  -3.928  1.00  0.00     0.073 C 
HETATM    2  C   UNL     1      37.983 -15.213  -3.796  1.00  0.00     0.062 A 
HETATM    3  N   UNL     1      38.298 -16.516  -3.886  1.00  0.00    -0.177 NA
HETATM    4  N   UNL     1      39.638 -16.547  -3.739  1.00  0.00    -0.256 N 
HETATM    5  H   UNL     1      40.114 -17.440  -3.770  1.00  0.00     0.191 HD
HETATM    6  C   UNL     1      40.174 -15.311  -3.575  1.00  0.00     0.175 A 
HETATM    7  C   UNL     1      39.133 -14.419  -3.580  1.00  0.00     0.034 A 
HETATM    8  C   UNL     1      39.413 -12.962  -3.451  1.00  0.00     0.109 A 
HETATM    9  C   UNL     1      40.908 -12.707  -3.244  1.00  0.00     0.081 A 
HETATM   10  C   UNL     1      41.313 -11.347  -3.107  1.00  0.00     0.100 C 
HETATM   11  N   UNL     1      41.664 -10.244  -3.030  1.00  0.00    -0.191 NA
HETATM   12  C   UNL     1      41.832 -13.709  -3.251  1.00  0.00     0.140 A 
HETATM   13  O   UNL     1      41.470 -15.059  -3.430  1.00  0.00    -0.279 OA
ENDROOT
BRANCH   8  14
HETATM   14  C   UNL     1      38.489 -12.393  -2.366  1.00  0.00     0.000 A 
HETATM   15  C   UNL     1      37.553 -11.401  -2.768  1.00  0.00     0.076 A 
HETATM   16  C   UNL     1      36.673 -10.840  -1.844  1.00  0.00     0.038 A 
HETATM   17  C   UNL     1      36.721 -11.223  -0.509  1.00  0.00     0.015 A 
HETATM   18  C   UNL     1      37.643 -12.173  -0.064  1.00  0.00    -0.025 A 
HETATM   19  C   UNL     1      38.547 -12.778  -0.978  1.00  0.00    -0.016 A 
HETATM   20  C   UNL     1      37.654 -12.513   1.300  1.00  0.00     0.012 A 
HETATM   21  C   UNL     1      39.443 -13.727  -0.420  1.00  0.00     0.013 A 
HETATM   22  C   UNL     1      39.448 -14.057   0.939  1.00  0.00     0.001 A 
HETATM   23  C   UNL     1      38.551 -13.450   1.801  1.00  0.00     0.001 A 
BRANCH  15  24
HETATM   24  O   UNL     1      37.544 -11.062  -4.099  1.00  0.00    -0.355 OA
HETATM   25  C   UNL     1      36.304 -11.172  -4.790  1.00  0.00     0.210 C 
ENDBRANCH  15  24
ENDBRANCH   8  14
BRANCH  12  26
HETATM   26  N   UNL     1      43.190 -13.545  -3.093  1.00  0.00    -0.282 NA
HETATM   27  H   UNL     1      43.473 -12.889  -2.368  1.00  0.00     0.126 HD
HETATM   28  H   UNL     1      43.662 -13.387  -3.981  1.00  0.00     0.126 HD
ENDBRANCH  12  26
TORSDOF 3
ENDMDL
MODEL 4
REMARK VINA RESULT:      -7.5      7.101      9.904
REMARK  3 active torsions:
REMARK  status: ('A' for Active; 'I' for Inactive)
REMARK    1  A    between atoms: C_8  and  C_9 
REMARK    2  A    between atoms: C_10  and  O_11 
REMARK    3  A    between atoms: C_24  and  N_25 
ROOT
HETATM    1  C   UNL     1      40.493 -13.240   0.867  1.00  0.00     0.073 C 
HETATM    2  C   UNL     1      40.736 -14.249  -0.194  1.00  0.00     0.062 A 
HETATM    3  N   UNL     1      41.760 -15.113  -0.084  1.00  0.00    -0.177 NA
HETATM    4  N   UNL     1      41.672 -15.876  -1.192  1.00  0.00    -0.256 N 
HETATM    5  H   UNL     1      42.353 -16.613  -1.334  1.00  0.00     0.191 HD
HETATM    6  C   UNL     1      40.625 -15.532  -1.983  1.00  0.00     0.175 A 
HETATM    7  C   UNL     1      40.007 -14.464  -1.386  1.00  0.00     0.034 A 
HETATM    8  C   UNL     1      38.788 -13.877  -2.010  1.00  0.00     0.109 A 
HETATM    9  C   UNL     1      38.466 -14.567  -3.337  1.00  0.00     0.081 A 
HETATM   10  C   UNL     1      37.317 -14.098  -4.040  1.00  0.00     0.100 C 
HETATM   11  N   UNL     1      36.364 -13.753  -4.606  1.00  0.00    -0.191 NA
HETATM   12  C   UNL     1      39.187 -15.620  -3.813  1.00  0.00     0.140 A 
HETATM   13  O   UNL     1      40.301 -16.136  -3.121  1.00  0.00    -0.279 OA
ENDROOT
BRANCH   8  14
HETATM   14  C   UNL     1      38.976 -12.355  -2.083  1.00  0.00     0.000 A 
HETATM   15  C   UNL     1      38.011 -11.551  -1.418  1.00  0.00     0.076 A 
HETATM   16  C   UNL     1      38.116 -10.161  -1.431  1.00  0.00     0.038 A 
HETATM   17  C   UNL     1      39.150  -9.543  -2.122  1.00  0.00     0.015 A 
HETATM   18  C   UNL     1      40.105 -10.292  -2.813  1.00  0.00    -0.025 A 
HETATM   19  C   UNL     1      40.041 -11.712  -2.811  1.00  0.00    -0.016 A 
HETATM   20  C   UNL     1      41.123  -9.613  -3.505  1.00  0.00     0.012 A 
HETATM   21  C   UNL     1      41.057 -12.374  -3.547  1.00  0.00     0.013 A 
HETATM   22  C   UNL     1      42.065 -11.689  -4.234  1.00  0.00     0.001 A 
HETATM   23  C   UNL     1      42.099 -10.305  -4.212  1.00  0.00     0.001 A 
BRANCH  15  24
HETATM   24  O   UNL     1      37.011 -12.212  -0.747  1.00  0.00    -0.355 OA
HETATM   25  C   UNL     1      36.923 -12.002   0.659  1.00  0.00     0.210 C 
ENDBRANCH  15  24
ENDBRANCH   8  14
BRANCH  12  26
HETATM   26  N   UNL     1      38.937 -16.297  -4.985  1.00  0.00    -0.282 NA
HETATM   27  H   UNL     1      38.543 -17.229  -4.879  1.00  0.00     0.126 HD
HETATM   28  H   UNL     1      39.731 -16.269  -5.620  1.00  0.00     0.126 HD
ENDBRANCH  12  26
TORSDOF 3
ENDMDL
MODEL 5
REMARK VINA RESULT:      -7.4      5.198      8.063
REMARK  3 active torsions:
REMARK  status: ('A' for Active; 'I' for Inactive)
REMARK    1  A    between atoms: C_8  and  C_9 
REMARK    2  A    between atoms: C_10  and  O_11 
REMARK    3  A    between atoms: C_24  and  N_25 
ROOT
HETATM    1  C   UNL     1      41.402 -12.420  -3.584  1.00  0.00     0.073 C 
HETATM    2  C   UNL     1      41.200 -13.770  -3.002  1.00  0.00     0.062 A 
HETATM    3  N   UNL     1      40.791 -14.787  -3.779  1.00  0.00    -0.177 NA
HETATM    4  N   UNL     1      40.731 -15.843  -2.943  1.00  0.00    -0.256 N 
HETATM    5  H   UNL     1      40.440 -16.742  -3.309  1.00  0.00     0.191 HD
HETATM    6  C   UNL     1      41.102 -15.529  -1.676  1.00  0.00     0.175 A 
HETATM    7  C   UNL     1      41.390 -14.188  -1.665  1.00  0.00     0.034 A 
HETATM    8  C   UNL     1      41.863 -13.549  -0.405  1.00  0.00     0.109 A 
HETATM    9  C   UNL     1      41.872 -14.553   0.749  1.00  0.00     0.081 A 
HETATM   10  C   UNL     1      42.307 -14.068   2.017  1.00  0.00     0.100 C 
HETATM   11  N   UNL     1      42.694 -13.697   3.047  1.00  0.00    -0.191 NA
HETATM   12  C   UNL     1      41.544 -15.865   0.585  1.00  0.00     0.140 A 
HETATM   13  O   UNL     1      41.153 -16.388  -0.664  1.00  0.00    -0.279 OA
ENDROOT
BRANCH   8  14
HETATM   14  C   UNL     1      41.032 -12.280  -0.173  1.00  0.00     0.000 A 
HETATM   15  C   UNL     1      41.725 -11.039  -0.195  1.00  0.00     0.076 A 
HETATM   16  C   UNL     1      41.040  -9.840  -0.000  1.00  0.00     0.038 A 
HETATM   17  C   UNL     1      39.673  -9.848   0.249  1.00  0.00     0.015 A 
HETATM   18  C   UNL     1      38.956 -11.044   0.308  1.00  0.00    -0.025 A 
HETATM   19  C   UNL     1      39.616 -12.286   0.100  1.00  0.00    -0.016 A 
HETATM   20  C   UNL     1      37.578 -10.992   0.575  1.00  0.00     0.012 A 
HETATM   21  C   UNL     1      38.796 -13.440   0.185  1.00  0.00     0.013 A 
HETATM   22  C   UNL     1      37.424 -13.377   0.454  1.00  0.00     0.001 A 
HETATM   23  C   UNL     1      36.813 -12.151   0.648  1.00  0.00     0.001 A 
BRANCH  15  24
HETATM   24  O   UNL     1      43.074 -11.088  -0.449  1.00  0.00    -0.355 OA
HETATM   25  C   UNL     1      43.603 -10.114  -1.343  1.00  0.00     0.210 C 
ENDBRANCH  15  24
ENDBRANCH   8  14
BRANCH  12  26
HETATM   26  N   UNL     1      41.553 -16.822   1.575  1.00  0.00    -0.282 NA
HETATM   27  H   UNL     1      42.437 -17.307   1.710  1.00  0.00     0.126 HD
HETATM   28  H   UNL     1      40.758 -17.454   1.504  1.00  0.00     0.126 HD
ENDBRANCH  12  26
TORSDOF 3
ENDMDL
MODEL 6
REMARK VINA RESULT:      -7.2      5.482      8.063
REMARK  3 active torsions:
REMARK  status: ('A' for Active; 'I' for Inactive)
REMARK    1  A    between atoms: C_8  and  C_9 
REMARK    2  A    between atoms: C_10  and  O_11 
REMARK    3  A    between atoms: C_24  and  N_25 
ROOT
HETATM    1  C   UNL     1      37.595 -12.494  -2.488  1.00  0.00     0.073 C 
HETATM    2  C   UNL     1      37.590 -12.573  -1.006  1.00  0.00     0.062 A 
HETATM    3  N   UNL     1      36.723 -11.836  -0.292  1.00  0.00    -0.177 NA
HETATM    4  N   UNL     1      36.983 -12.163   0.990  1.00  0.00    -0.256 N 
HETATM    5  H   UNL     1      36.444 -11.724   1.727  1.00  0.00     0.191 HD
HETATM    6  C   UNL     1      37.970 -13.088   1.104  1.00  0.00     0.175 A 
HETATM    7  C   UNL     1      38.409 -13.362  -0.166  1.00  0.00     0.034 A 
HETATM    8  C   UNL     1      39.480 -14.377  -0.369  1.00  0.00     0.109 A 
HETATM    9  C   UNL     1      39.988 -14.914   0.971  1.00  0.00     0.081 A 
HETATM   10  C   UNL     1      41.018 -15.898   0.917  1.00  0.00     0.100 C 
HETATM   11  N   UNL     1      41.831 -16.727   0.889  1.00  0.00    -0.191 NA
HETATM   12  C   UNL     1      39.455 -14.534   2.165  1.00  0.00     0.140 A 
HETATM   13  O   UNL     1      38.405 -13.597   2.251  1.00  0.00    -0.279 OA
ENDROOT
BRANCH   8  14
HETATM   14  C   UNL     1      40.549 -13.766  -1.286  1.00  0.00     0.000 A 
HETATM   15  C   UNL     1      40.823 -14.446  -2.504  1.00  0.00     0.076 A 
HETATM   16  C   UNL     1      41.775 -13.951  -3.394  1.00  0.00     0.038 A 
HETATM   17  C   UNL     1      42.490 -12.800  -3.085  1.00  0.00     0.015 A 
HETATM   18  C   UNL     1      42.274 -12.115  -1.888  1.00  0.00    -0.025 A 
HETATM   19  C   UNL     1      41.302 -12.580  -0.962  1.00  0.00    -0.016 A 
HETATM   20  C   UNL     1      43.034 -10.963  -1.624  1.00  0.00     0.012 A 
HETATM   21  C   UNL     1      41.165 -11.813   0.224  1.00  0.00     0.013 A 
HETATM   22  C   UNL     1      41.929 -10.669   0.479  1.00  0.00     0.001 A 
HETATM   23  C   UNL     1      42.865 -10.242  -0.448  1.00  0.00     0.001 A 
BRANCH  15  24
HETATM   24  O   UNL     1      40.086 -15.576  -2.761  1.00  0.00    -0.355 OA
HETATM   25  C   UNL     1      39.224 -15.546  -3.894  1.00  0.00     0.210 C 
ENDBRANCH  15  24
ENDBRANCH   8  14
BRANCH  12  26
HETATM   26  N   UNL     1      39.850 -14.994   3.401  1.00  0.00    -0.282 NA
HETATM   27  H   UNL     1      39.106 -15.116   4.083  1.00  0.00     0.126 HD
HETATM   28  H   UNL     1      40.646 -14.475   3.766  1.00  0.00     0.126 HD
ENDBRANCH  12  26
TORSDOF 3
ENDMDL
MODEL 7
REMARK VINA RESULT:      -7.1      5.516      8.591
REMARK  3 active torsions:
REMARK  status: ('A' for Active; 'I' for Inactive)
REMARK    1  A    between atoms: C_8  and  C_9 
REMARK    2  A    between atoms: C_10  and  O_11 
REMARK    3  A    between atoms: C_24  and  N_25 
ROOT
HETATM    1  C   UNL     1      40.851 -14.286   2.551  1.00  0.00     0.073 C 
HETATM    2  C   UNL     1      41.141 -14.927   1.245  1.00  0.00     0.062 A 
HETATM    3  N   UNL     1      42.066 -15.899   1.159  1.00  0.00    -0.177 NA
HETATM    4  N   UNL     1      42.057 -16.254  -0.142  1.00  0.00    -0.256 N 
HETATM    5  H   UNL     1      42.686 -16.984  -0.454  1.00  0.00     0.191 HD
HETATM    6  C   UNL     1      41.152 -15.552  -0.870  1.00  0.00     0.175 A 
HETATM    7  C   UNL     1      40.555 -14.662  -0.014  1.00  0.00     0.034 A 
HETATM    8  C   UNL     1      39.480 -13.764  -0.521  1.00  0.00     0.109 A 
HETATM    9  C   UNL     1      39.273 -13.952  -2.025  1.00  0.00     0.081 A 
HETATM   10  C   UNL     1      38.267 -13.149  -2.639  1.00  0.00     0.100 C 
HETATM   11  N   UNL     1      37.427 -12.529  -3.146  1.00  0.00    -0.191 NA
HETATM   12  C   UNL     1      39.958 -14.879  -2.752  1.00  0.00     0.140 A 
HETATM   13  O   UNL     1      40.926 -15.720  -2.168  1.00  0.00    -0.279 OA
ENDROOT
BRANCH   8  14
HETATM   14  C   UNL     1      39.803 -12.333  -0.071  1.00  0.00     0.000 A 
HETATM   15  C   UNL     1      38.826 -11.665   0.717  1.00  0.00     0.076 A 
HETATM   16  C   UNL     1      39.048 -10.367   1.172  1.00  0.00     0.038 A 
HETATM   17  C   UNL     1      40.216  -9.696   0.833  1.00  0.00     0.015 A 
HETATM   18  C   UNL     1      41.191 -10.301   0.037  1.00  0.00    -0.025 A 
HETATM   19  C   UNL     1      41.009 -11.630  -0.433  1.00  0.00    -0.016 A 
HETATM   20  C   UNL     1      42.348  -9.571  -0.284  1.00  0.00     0.012 A 
HETATM   21  C   UNL     1      42.058 -12.147  -1.236  1.00  0.00     0.013 A 
HETATM   22  C   UNL     1      43.205 -11.411  -1.552  1.00  0.00     0.001 A 
HETATM   23  C   UNL     1      43.351 -10.120  -1.074  1.00  0.00     0.001 A 
BRANCH  15  24
HETATM   24  O   UNL     1      37.691 -12.375   1.027  1.00  0.00    -0.355 OA
HETATM   25  C   UNL     1      36.451 -11.856   0.557  1.00  0.00     0.210 C 
ENDBRANCH  15  24
ENDBRANCH   8  14
BRANCH  12  26
HETATM   26  N   UNL     1      39.804 -15.113  -4.100  1.00  0.00    -0.282 NA
HETATM   27  H   UNL     1      40.625 -15.474  -4.580  1.00  0.00     0.126 HD
HETATM   28  H   UNL     1      39.375 -14.323  -4.579  1.00  0.00     0.126 HD
ENDBRANCH  12  26
TORSDOF 3
ENDMDL
MODEL 8
REMARK VINA RESULT:      -7.0      7.383      9.738
REMARK  3 active torsions:
REMARK  status: ('A' for Active; 'I' for Inactive)
REMARK    1  A    between atoms: C_8  and  C_9 
REMARK    2  A    between atoms: C_10  and  O_11 
REMARK    3  A    between atoms: C_24  and  N_25 
ROOT
HETATM    1  C   UNL     1      40.999 -15.647  -2.642  1.00  0.00     0.073 C 
HETATM    2  C   UNL     1      39.722 -15.205  -3.256  1.00  0.00     0.062 A 
HETATM    3  N   UNL     1      39.170 -15.916  -4.254  1.00  0.00    -0.177 NA
HETATM    4  N   UNL     1      38.037 -15.248  -4.552  1.00  0.00    -0.256 N 
HETATM    5  H   UNL     1      37.440 -15.601  -5.290  1.00  0.00     0.191 HD
HETATM    6  C   UNL     1      37.853 -14.155  -3.769  1.00  0.00     0.175 A 
HETATM    7  C   UNL     1      38.936 -14.075  -2.932  1.00  0.00     0.034 A 
HETATM    8  C   UNL     1      39.005 -12.984  -1.921  1.00  0.00     0.109 A 
HETATM    9  C   UNL     1      37.811 -12.036  -2.056  1.00  0.00     0.081 A 
HETATM   10  C   UNL     1      37.754 -10.943  -1.142  1.00  0.00     0.100 C 
HETATM   11  N   UNL     1      37.675 -10.070  -0.382  1.00  0.00    -0.191 NA
HETATM   12  C   UNL     1      36.807 -12.241  -2.954  1.00  0.00     0.140 A 
HETATM   13  O   UNL     1      36.809 -13.337  -3.841  1.00  0.00    -0.279 OA
ENDROOT
BRANCH   8  14
HETATM   14  C   UNL     1      40.387 -12.326  -2.023  1.00  0.00     0.000 A 
HETATM   15  C   UNL     1      41.257 -12.471  -0.908  1.00  0.00     0.076 A 
HETATM   16  C   UNL     1      42.533 -11.909  -0.925  1.00  0.00     0.038 A 
HETATM   17  C   UNL     1      42.958 -11.173  -2.024  1.00  0.00     0.015 A 
HETATM   18  C   UNL     1      42.128 -10.981  -3.130  1.00  0.00    -0.025 A 
HETATM   19  C   UNL     1      40.826 -11.550  -3.156  1.00  0.00    -0.016 A 
HETATM   20  C   UNL     1      42.607 -10.217  -4.208  1.00  0.00     0.012 A 
HETATM   21  C   UNL     1      40.064 -11.290  -4.325  1.00  0.00     0.013 A 
HETATM   22  C   UNL     1      40.550 -10.526  -5.392  1.00  0.00     0.001 A 
HETATM   23  C   UNL     1      41.824  -9.990  -5.334  1.00  0.00     0.001 A 
BRANCH  15  24
HETATM   24  O   UNL     1      40.788 -13.211   0.150  1.00  0.00    -0.355 OA
HETATM   25  C   UNL     1      41.671 -14.180   0.708  1.00  0.00     0.210 C 
ENDBRANCH  15  24
ENDBRANCH   8  14
BRANCH  12  26
HETATM   26  N   UNL     1      35.697 -11.441  -3.111  1.00  0.00    -0.282 NA
HETATM   27  H   UNL     1      34.824 -11.930  -3.290  1.00  0.00     0.126 HD
HETATM   28  H   UNL     1      35.867 -10.675  -3.759  1.00  0.00     0.126 HD
ENDBRANCH  12  26
TORSDOF 3
ENDMDL
MODEL 9
REMARK VINA RESULT:      -7.0      4.922      7.359
REMARK  3 active torsions:
REMARK  status: ('A' for Active; 'I' for Inactive)
REMARK    1  A    between atoms: C_8  and  C_9 
REMARK    2  A    between atoms: C_10  and  O_11 
REMARK    3  A    between atoms: C_24  and  N_25 
ROOT
HETATM    1  C   UNL     1      37.317 -13.469   0.138  1.00  0.00     0.073 C 
HETATM    2  C   UNL     1      38.106 -13.706  -1.096  1.00  0.00     0.062 A 
HETATM    3  N   UNL     1      37.584 -14.425  -2.105  1.00  0.00    -0.177 NA
HETATM    4  N   UNL     1      38.548 -14.425  -3.048  1.00  0.00    -0.256 N 
HETATM    5  H   UNL     1      38.381 -14.916  -3.919  1.00  0.00     0.191 HD
HETATM    6  C   UNL     1      39.646 -13.721  -2.675  1.00  0.00     0.175 A 
HETATM    7  C   UNL     1      39.412 -13.260  -1.405  1.00  0.00     0.034 A 
HETATM    8  C   UNL     1      40.436 -12.415  -0.729  1.00  0.00     0.109 A 
HETATM    9  C   UNL     1      41.685 -12.266  -1.602  1.00  0.00     0.081 A 
HETATM   10  C   UNL     1      42.746 -11.476  -1.070  1.00  0.00     0.100 C 
HETATM   11  N   UNL     1      43.604 -10.806  -0.668  1.00  0.00    -0.191 NA
HETATM   12  C   UNL     1      41.776 -12.798  -2.852  1.00  0.00     0.140 A 
HETATM   13  O   UNL     1      40.727 -13.545  -3.425  1.00  0.00    -0.279 OA
ENDROOT
BRANCH   8  14
HETATM   14  C   UNL     1      40.674 -12.986   0.675  1.00  0.00     0.000 A 
HETATM   15  C   UNL     1      40.454 -12.112   1.775  1.00  0.00     0.076 A 
HETATM   16  C   UNL     1      40.640 -12.556   3.083  1.00  0.00     0.038 A 
HETATM   17  C   UNL     1      41.075 -13.853   3.326  1.00  0.00     0.015 A 
HETATM   18  C   UNL     1      41.331 -14.738   2.276  1.00  0.00    -0.025 A 
HETATM   19  C   UNL     1      41.138 -14.327   0.930  1.00  0.00    -0.016 A 
HETATM   20  C   UNL     1      41.780 -16.034   2.581  1.00  0.00     0.012 A 
HETATM   21  C   UNL     1      41.431 -15.301  -0.059  1.00  0.00     0.013 A 
HETATM   22  C   UNL     1      41.879 -16.589   0.255  1.00  0.00     0.001 A 
HETATM   23  C   UNL     1      42.053 -16.957   1.578  1.00  0.00     0.001 A 
BRANCH  15  24
HETATM   24  O   UNL     1      40.022 -10.842   1.479  1.00  0.00    -0.355 OA
HETATM   25  C   UNL     1      40.852  -9.760   1.889  1.00  0.00     0.210 C 
ENDBRANCH  15  24
ENDBRANCH   8  14
BRANCH  12  26
HETATM   26  N   UNL     1      42.860 -12.682  -3.694  1.00  0.00    -0.282 NA
HETATM   27  H   UNL     1      42.646 -12.400  -4.648  1.00  0.00     0.126 HD
HETATM   28  H   UNL     1      43.471 -13.494  -3.645  1.00  0.00     0.126 HD
ENDBRANCH  12  26
TORSDOF 3
ENDMDL
MODEL 10
REMARK VINA RESULT:      -6.8      4.443      7.316
REMARK  3 active torsions:
REMARK  status: ('A' for Active; 'I' for Inactive)
REMARK    1  A    between atoms: C_8  and  C_9 
REMARK    2  A    between atoms: C_10  and  O_11 
REMARK    3  A    between atoms: C_24  and  N_25 
ROOT
HETATM    1  C   UNL     1      37.765 -13.424  -0.210  1.00  0.00     0.073 C 
HETATM    2  C   UNL     1      38.045 -12.536   0.945  1.00  0.00     0.062 A 
HETATM    3  N   UNL     1      37.118 -11.658   1.364  1.00  0.00    -0.177 NA
HETATM    4  N   UNL     1      37.693 -11.042   2.417  1.00  0.00    -0.256 N 
HETATM    5  H   UNL     1      37.174 -10.323   2.907  1.00  0.00     0.191 HD
HETATM    6  C   UNL     1      38.938 -11.512   2.683  1.00  0.00     0.175 A 
HETATM    7  C   UNL     1      39.216 -12.464   1.736  1.00  0.00     0.034 A 
HETATM    8  C   UNL     1      40.514 -13.193   1.785  1.00  0.00     0.109 A 
HETATM    9  C   UNL     1      41.398 -12.661   2.915  1.00  0.00     0.081 A 
HETATM   10  C   UNL     1      42.675 -13.276   3.073  1.00  0.00     0.100 C 
HETATM   11  N   UNL     1      43.701 -13.792   3.239  1.00  0.00    -0.191 NA
HETATM   12  C   UNL     1      40.984 -11.691   3.778  1.00  0.00     0.140 A 
HETATM   13  O   UNL     1      39.712 -11.094   3.677  1.00  0.00    -0.279 OA
ENDROOT
BRANCH   8  14
HETATM   14  C   UNL     1      41.136 -13.155   0.383  1.00  0.00     0.000 A 
HETATM   15  C   UNL     1      41.168 -14.376  -0.345  1.00  0.00     0.076 A 
HETATM   16  C   UNL     1      41.709 -14.423  -1.628  1.00  0.00     0.038 A 
HETATM   17  C   UNL     1      42.254 -13.280  -2.200  1.00  0.00     0.015 A 
HETATM   18  C   UNL     1      42.271 -12.065  -1.512  1.00  0.00    -0.025 A 
HETATM   19  C   UNL     1      41.715 -11.974  -0.207  1.00  0.00    -0.016 A 
HETATM   20  C   UNL     1      42.845 -10.945  -2.135  1.00  0.00     0.012 A 
HETATM   21  C   UNL     1      41.787 -10.695   0.404  1.00  0.00     0.013 A 
HETATM   22  C   UNL     1      42.364  -9.586  -0.225  1.00  0.00     0.001 A 
HETATM   23  C   UNL     1      42.893  -9.711  -1.497  1.00  0.00     0.001 A 
BRANCH  15  24
HETATM   24  O   UNL     1      40.612 -15.474   0.265  1.00  0.00    -0.355 OA
HETATM   25  C   UNL     1      41.418 -16.645   0.354  1.00  0.00     0.210 C 
ENDBRANCH  15  24
ENDBRANCH   8  14
BRANCH  12  26
HETATM   26  N   UNL     1      41.721 -11.185   4.826  1.00  0.00    -0.282 NA
HETATM   27  H   UNL     1      42.125 -10.264   4.674  1.00  0.00     0.126 HD
HETATM   28  H   UNL     1      42.391 -11.862   5.184  1.00  0.00     0.126 HD
ENDBRANCH  12  26
TORSDOF 3
ENDMDL
