MODEL 1
REMARK VINA RESULT:      -9.7      0.000      0.000
REMARK  8 active torsions:
REMARK  status: ('A' for Active; 'I' for Inactive)
REMARK    1  A    between atoms: N_2  and  C_4 
REMARK    2  A    between atoms: N_2  and  C_32 
REMARK    3  A    between atoms: C_4  and  C_5 
REMARK    4  A    between atoms: N_8  and  C_9 
REMARK    5  A    between atoms: C_12  and  N_13 
REMARK       I    between atoms: N_13  and  C_14 
REMARK       I    between atoms: C_14  and  N_15 
REMARK    6  A    between atoms: N_15  and  C_16 
REMARK    7  A    between atoms: C_18  and  C_19 
REMARK    8  A    between atoms: C_32  and  C_33 
ROOT
HETATM    1  C   UNL     1      40.120 -12.630   6.496  1.00  0.00     0.161 C 
HETATM    2  C   UNL     1      41.437 -12.492   5.750  1.00  0.00     0.179 C 
HETATM    3  C   UNL     1      41.450 -13.671   4.789  1.00  0.00     0.177 C 
HETATM    4  C   UNL     1      42.489 -14.611   5.382  1.00  0.00     0.141 C 
HETATM    5  C   UNL     1      43.400 -13.655   6.149  1.00  0.00     0.196 C 
HETATM    6  O   UNL     1      42.547 -12.608   6.653  1.00  0.00    -0.379 OA
HETATM    7  O   UNL     1      40.138 -14.261   4.794  1.00  0.00    -0.379 OA
HETATM    8  C   UNL     1      39.260 -13.337   5.462  1.00  0.00     0.198 C 
ENDROOT
BRANCH   1   9
HETATM    9  N   UNL     1      39.620 -11.370   6.990  1.00  0.00    -0.274 N 
HETATM   10  N   UNL     1      39.093 -10.441   6.172  1.00  0.00     0.005 NA
HETATM   11  N   UNL     1      38.731  -9.404   6.910  1.00  0.00    -0.161 NA
HETATM   12  C   UNL     1      39.029  -9.685   8.217  1.00  0.00     0.095 A 
HETATM   13  C   UNL     1      39.582 -10.943   8.292  1.00  0.00     0.139 A 
BRANCH  12  14
HETATM   14  C   UNL     1      38.780  -8.668   9.267  1.00  0.00     0.296 C 
BRANCH  14  15
HETATM   15  N   UNL     1      39.412  -9.039  10.593  1.00  0.00    -0.066 N 
HETATM   16  C   UNL     1      38.415  -9.059  11.718  1.00  0.00     0.270 C 
HETATM   17  H   UNL     1      39.725 -10.013  10.475  1.00  0.00     0.280 HD
BRANCH  15  18
HETATM   18  C   UNL     1      40.629  -8.205  10.889  1.00  0.00     0.273 C 
BRANCH  18  19
HETATM   19  C   UNL     1      41.863  -9.021  11.156  1.00  0.00    -0.033 A 
HETATM   20  C   UNL     1      42.422  -9.818  10.145  1.00  0.00     0.009 A 
HETATM   21  C   UNL     1      43.550 -10.599  10.403  1.00  0.00     0.001 A 
HETATM   22  C   UNL     1      44.129 -10.591  11.670  1.00  0.00     0.000 A 
HETATM   23  C   UNL     1      43.585  -9.802  12.681  1.00  0.00     0.001 A 
HETATM   24  C   UNL     1      42.459  -9.018  12.427  1.00  0.00     0.009 A 
ENDBRANCH  18  19
ENDBRANCH  15  18
ENDBRANCH  14  15
ENDBRANCH  12  14
ENDBRANCH   1   9
BRANCH   4  25
HETATM   25  N   UNL     1      43.144 -15.496   4.428  1.00  0.00    -0.334 N 
HETATM   26  C   UNL     1      43.192 -16.865   4.604  1.00  0.00     0.321 C 
HETATM   27  N   UNL     1      43.816 -17.476   3.540  1.00  0.00    -0.309 N 
HETATM   28  O   UNL     1      42.691 -17.411   5.577  1.00  0.00    -0.247 OA
HETATM   29  H   UNL     1      44.144 -16.863   2.810  1.00  0.00     0.170 HD
HETATM   30  H   UNL     1      43.925 -15.094   3.928  1.00  0.00     0.164 HD
BRANCH  27  31
HETATM   31  C   UNL     1      43.955 -18.857   3.297  1.00  0.00     0.037 A 
HETATM   32  C   UNL     1      44.324 -19.790   4.270  1.00  0.00     0.045 A 
HETATM   33  C   UNL     1      44.401 -21.162   3.966  1.00  0.00     0.050 A 
HETATM   34  C   UNL     1      44.128 -21.587   2.658  1.00  0.00     0.016 A 
HETATM   35  C   UNL     1      43.769 -20.663   1.680  1.00  0.00     0.003 A 
HETATM   36  C   UNL     1      43.680 -19.307   2.000  1.00  0.00     0.029 A 
BRANCH  33  37
HETATM   37  C   UNL     1      44.799 -22.163   5.023  1.00  0.00     0.417 C 
HETATM   38  F   UNL     1      46.147 -22.303   5.159  1.00  0.00    -0.166 F 
HETATM   39  F   UNL     1      44.336 -21.834   6.262  1.00  0.00    -0.166 F 
HETATM   40  F   UNL     1      44.317 -23.409   4.763  1.00  0.00    -0.166 F 
ENDBRANCH  33  37
ENDBRANCH  27  31
ENDBRANCH   4  25
TORSDOF 8
ENDMDL
MODEL 2
REMARK VINA RESULT:      -9.2      1.444      2.079
REMARK  8 active torsions:
REMARK  status: ('A' for Active; 'I' for Inactive)
REMARK    1  A    between atoms: N_2  and  C_4 
REMARK    2  A    between atoms: N_2  and  C_32 
REMARK    3  A    between atoms: C_4  and  C_5 
REMARK    4  A    between atoms: N_8  and  C_9 
REMARK    5  A    between atoms: C_12  and  N_13 
REMARK       I    between atoms: N_13  and  C_14 
REMARK       I    between atoms: C_14  and  N_15 
REMARK    6  A    between atoms: N_15  and  C_16 
REMARK    7  A    between atoms: C_18  and  C_19 
REMARK    8  A    between atoms: C_32  and  C_33 
ROOT
HETATM    1  C   UNL     1      39.999 -11.307   5.407  1.00  0.00     0.161 C 
HETATM    2  C   UNL     1      40.467 -12.669   5.893  1.00  0.00     0.179 C 
HETATM    3  C   UNL     1      41.535 -13.078   4.890  1.00  0.00     0.177 C 
HETATM    4  C   UNL     1      40.870 -14.181   4.080  1.00  0.00     0.141 C 
HETATM    5  C   UNL     1      39.845 -14.741   5.064  1.00  0.00     0.196 C 
HETATM    6  O   UNL     1      39.394 -13.621   5.851  1.00  0.00    -0.379 OA
HETATM    7  O   UNL     1      41.839 -11.933   4.075  1.00  0.00    -0.379 OA
HETATM    8  C   UNL     1      41.246 -10.788   4.714  1.00  0.00     0.198 C 
ENDROOT
BRANCH   1   9
HETATM    9  N   UNL     1      39.467 -10.486   6.469  1.00  0.00    -0.274 N 
HETATM   10  N   UNL     1      38.704  -9.406   6.221  1.00  0.00     0.005 NA
HETATM   11  N   UNL     1      38.376  -8.862   7.382  1.00  0.00    -0.161 NA
HETATM   12  C   UNL     1      38.936  -9.616   8.379  1.00  0.00     0.095 A 
HETATM   13  C   UNL     1      39.622 -10.667   7.818  1.00  0.00     0.139 A 
BRANCH  12  14
HETATM   14  C   UNL     1      38.776  -9.203   9.795  1.00  0.00     0.296 C 
BRANCH  14  15
HETATM   15  N   UNL     1      39.882  -9.737  10.682  1.00  0.00    -0.066 N 
HETATM   16  C   UNL     1      39.421  -9.982  12.091  1.00  0.00     0.270 C 
HETATM   17  H   UNL     1      40.110 -10.663  10.293  1.00  0.00     0.280 HD
BRANCH  15  18
HETATM   18  C   UNL     1      41.126  -8.894  10.599  1.00  0.00     0.273 C 
BRANCH  18  19
HETATM   19  C   UNL     1      42.397  -9.697  10.631  1.00  0.00    -0.033 A 
HETATM   20  C   UNL     1      42.811 -10.421   9.503  1.00  0.00     0.009 A 
HETATM   21  C   UNL     1      43.974 -11.191   9.545  1.00  0.00     0.001 A 
HETATM   22  C   UNL     1      44.734 -11.243  10.712  1.00  0.00     0.000 A 
HETATM   23  C   UNL     1      44.336 -10.526  11.836  1.00  0.00     0.001 A 
HETATM   24  C   UNL     1      43.174  -9.754  11.799  1.00  0.00     0.009 A 
ENDBRANCH  18  19
ENDBRANCH  15  18
ENDBRANCH  14  15
ENDBRANCH  12  14
ENDBRANCH   1   9
BRANCH   4  25
HETATM   25  N   UNL     1      41.779 -15.147   3.479  1.00  0.00    -0.334 N 
HETATM   26  C   UNL     1      42.299 -16.212   4.188  1.00  0.00     0.321 C 
HETATM   27  N   UNL     1      43.083 -17.004   3.381  1.00  0.00    -0.309 N 
HETATM   28  O   UNL     1      42.029 -16.399   5.366  1.00  0.00    -0.247 OA
HETATM   29  H   UNL     1      43.171 -16.706   2.421  1.00  0.00     0.170 HD
HETATM   30  H   UNL     1      42.367 -14.788   2.739  1.00  0.00     0.164 HD
BRANCH  27  31
HETATM   31  C   UNL     1      43.689 -18.235   3.704  1.00  0.00     0.037 A 
HETATM   32  C   UNL     1      43.643 -19.368   2.888  1.00  0.00     0.045 A 
HETATM   33  C   UNL     1      44.310 -20.552   3.255  1.00  0.00     0.050 A 
HETATM   34  C   UNL     1      45.004 -20.596   4.472  1.00  0.00     0.016 A 
HETATM   35  C   UNL     1      45.046 -19.473   5.297  1.00  0.00     0.003 A 
HETATM   36  C   UNL     1      44.395 -18.300   4.912  1.00  0.00     0.029 A 
BRANCH  33  37
HETATM   37  C   UNL     1      44.257 -21.771   2.367  1.00  0.00     0.417 C 
HETATM   38  F   UNL     1      45.256 -21.814   1.442  1.00  0.00    -0.166 F 
HETATM   39  F   UNL     1      44.351 -22.937   3.066  1.00  0.00    -0.166 F 
HETATM   40  F   UNL     1      43.093 -21.850   1.665  1.00  0.00    -0.166 F 
ENDBRANCH  33  37
ENDBRANCH  27  31
ENDBRANCH   4  25
TORSDOF 8
ENDMDL
MODEL 3
REMARK VINA RESULT:      -9.0      7.325     11.168
REMARK  8 active torsions:
REMARK  status: ('A' for Active; 'I' for Inactive)
REMARK    1  A    between atoms: N_2  and  C_4 
REMARK    2  A    between atoms: N_2  and  C_32 
REMARK    3  A    between atoms: C_4  and  C_5 
REMARK    4  A    between atoms: N_8  and  C_9 
REMARK    5  A    between atoms: C_12  and  N_13 
REMARK       I    between atoms: N_13  and  C_14 
REMARK       I    between atoms: C_14  and  N_15 
REMARK    6  A    between atoms: N_15  and  C_16 
REMARK    7  A    between atoms: C_18  and  C_19 
REMARK    8  A    between atoms: C_32  and  C_33 
ROOT
HETATM    1  C   UNL     1      42.293 -15.049   3.899  1.00  0.00     0.161 C 
HETATM    2  C   UNL     1      41.907 -16.000   2.778  1.00  0.00     0.179 C 
HETATM    3  C   UNL     1      41.992 -15.150   1.519  1.00  0.00     0.177 C 
HETATM    4  C   UNL     1      40.538 -14.935   1.126  1.00  0.00     0.141 C 
HETATM    5  C   UNL     1      39.850 -16.161   1.724  1.00  0.00     0.196 C 
HETATM    6  O   UNL     1      40.557 -16.461   2.943  1.00  0.00    -0.379 OA
HETATM    7  O   UNL     1      42.636 -13.911   1.864  1.00  0.00    -0.379 OA
HETATM    8  C   UNL     1      43.211 -14.081   3.172  1.00  0.00     0.198 C 
ENDROOT
BRANCH   1   9
HETATM    9  N   UNL     1      42.854 -15.728   5.042  1.00  0.00    -0.274 N 
HETATM   10  N   UNL     1      43.578 -15.080   5.972  1.00  0.00     0.005 NA
HETATM   11  N   UNL     1      43.956 -15.962   6.884  1.00  0.00    -0.161 NA
HETATM   12  C   UNL     1      43.456 -17.186   6.526  1.00  0.00     0.095 A 
HETATM   13  C   UNL     1      42.736 -17.055   5.362  1.00  0.00     0.139 A 
BRANCH  12  14
HETATM   14  C   UNL     1      43.773 -18.381   7.346  1.00  0.00     0.296 C 
BRANCH  14  15
HETATM   15  N   UNL     1      43.744 -19.662   6.536  1.00  0.00    -0.066 N 
HETATM   16  C   UNL     1      43.613 -20.884   7.401  1.00  0.00     0.270 C 
HETATM   17  H   UNL     1      42.875 -19.608   5.987  1.00  0.00     0.280 HD
BRANCH  15  18
HETATM   18  C   UNL     1      44.889 -19.739   5.563  1.00  0.00     0.273 C 
BRANCH  18  19
HETATM   19  C   UNL     1      44.517 -20.367   4.249  1.00  0.00    -0.033 A 
HETATM   20  C   UNL     1      44.752 -21.732   4.020  1.00  0.00     0.009 A 
HETATM   21  C   UNL     1      44.435 -22.306   2.789  1.00  0.00     0.001 A 
HETATM   22  C   UNL     1      43.881 -21.526   1.776  1.00  0.00     0.000 A 
HETATM   23  C   UNL     1      43.640 -20.172   1.992  1.00  0.00     0.001 A 
HETATM   24  C   UNL     1      43.954 -19.592   3.223  1.00  0.00     0.009 A 
ENDBRANCH  18  19
ENDBRANCH  15  18
ENDBRANCH  14  15
ENDBRANCH  12  14
ENDBRANCH   1   9
BRANCH   4  25
HETATM   25  N   UNL     1      40.305 -14.694  -0.292  1.00  0.00    -0.334 N 
HETATM   26  C   UNL     1      39.214 -13.982  -0.750  1.00  0.00     0.321 C 
HETATM   27  N   UNL     1      39.254 -13.850  -2.119  1.00  0.00    -0.309 N 
HETATM   28  O   UNL     1      38.377 -13.518   0.011  1.00  0.00    -0.247 OA
HETATM   29  H   UNL     1      40.040 -14.279  -2.581  1.00  0.00     0.170 HD
HETATM   30  H   UNL     1      40.651 -15.410  -0.916  1.00  0.00     0.164 HD
BRANCH  27  31
HETATM   31  C   UNL     1      38.389 -13.098  -2.940  1.00  0.00     0.037 A 
HETATM   32  C   UNL     1      37.264 -13.623  -3.580  1.00  0.00     0.045 A 
HETATM   33  C   UNL     1      36.419 -12.802  -4.350  1.00  0.00     0.050 A 
HETATM   34  C   UNL     1      36.734 -11.443  -4.494  1.00  0.00     0.016 A 
HETATM   35  C   UNL     1      37.860 -10.913  -3.867  1.00  0.00     0.003 A 
HETATM   36  C   UNL     1      38.679 -11.736  -3.093  1.00  0.00     0.029 A 
BRANCH  33  37
HETATM   37  C   UNL     1      35.205 -13.377  -5.037  1.00  0.00     0.417 C 
HETATM   38  F   UNL     1      35.008 -14.699  -4.777  1.00  0.00    -0.166 F 
HETATM   39  F   UNL     1      34.049 -12.753  -4.674  1.00  0.00    -0.166 F 
HETATM   40  F   UNL     1      35.278 -13.269  -6.392  1.00  0.00    -0.166 F 
ENDBRANCH  33  37
ENDBRANCH  27  31
ENDBRANCH   4  25
TORSDOF 8
ENDMDL
MODEL 4
REMARK VINA RESULT:      -8.9      4.406     11.295
REMARK  8 active torsions:
REMARK  status: ('A' for Active; 'I' for Inactive)
REMARK    1  A    between atoms: N_2  and  C_4 
REMARK    2  A    between atoms: N_2  and  C_32 
REMARK    3  A    between atoms: C_4  and  C_5 
REMARK    4  A    between atoms: N_8  and  C_9 
REMARK    5  A    between atoms: C_12  and  N_13 
REMARK       I    between atoms: N_13  and  C_14 
REMARK       I    between atoms: C_14  and  N_15 
REMARK    6  A    between atoms: N_15  and  C_16 
REMARK    7  A    between atoms: C_18  and  C_19 
REMARK    8  A    between atoms: C_32  and  C_33 
ROOT
HETATM    1  C   UNL     1      40.338 -14.166   4.333  1.00  0.00     0.161 C 
HETATM    2  C   UNL     1      41.366 -13.049   4.404  1.00  0.00     0.179 C 
HETATM    3  C   UNL     1      41.332 -12.599   5.857  1.00  0.00     0.177 C 
HETATM    4  C   UNL     1      40.639 -11.245   5.801  1.00  0.00     0.141 C 
HETATM    5  C   UNL     1      40.958 -10.768   4.386  1.00  0.00     0.196 C 
HETATM    6  O   UNL     1      40.983 -11.950   3.562  1.00  0.00    -0.379 OA
HETATM    7  O   UNL     1      40.560 -13.558   6.599  1.00  0.00    -0.379 OA
HETATM    8  C   UNL     1      40.382 -14.708   5.751  1.00  0.00     0.198 C 
ENDROOT
BRANCH   1   9
HETATM    9  N   UNL     1      40.610 -15.112   3.277  1.00  0.00    -0.274 N 
HETATM   10  N   UNL     1      40.212 -14.901   2.010  1.00  0.00     0.005 NA
HETATM   11  N   UNL     1      40.600 -15.936   1.282  1.00  0.00    -0.161 NA
HETATM   12  C   UNL     1      41.259 -16.812   2.103  1.00  0.00     0.095 A 
HETATM   13  C   UNL     1      41.292 -16.297   3.377  1.00  0.00     0.139 A 
BRANCH  12  14
HETATM   14  C   UNL     1      41.760 -18.098   1.560  1.00  0.00     0.296 C 
BRANCH  14  15
HETATM   15  N   UNL     1      43.202 -18.364   1.941  1.00  0.00    -0.066 N 
HETATM   16  C   UNL     1      44.144 -17.337   1.377  1.00  0.00     0.270 C 
HETATM   17  H   UNL     1      43.233 -18.246   2.964  1.00  0.00     0.280 HD
BRANCH  15  18
HETATM   18  C   UNL     1      43.612 -19.780   1.638  1.00  0.00     0.273 C 
BRANCH  18  19
HETATM   19  C   UNL     1      44.058 -20.547   2.852  1.00  0.00    -0.033 A 
HETATM   20  C   UNL     1      44.287 -19.886   4.068  1.00  0.00     0.009 A 
HETATM   21  C   UNL     1      44.731 -20.595   5.185  1.00  0.00     0.001 A 
HETATM   22  C   UNL     1      44.949 -21.968   5.099  1.00  0.00     0.000 A 
HETATM   23  C   UNL     1      44.721 -22.636   3.899  1.00  0.00     0.001 A 
HETATM   24  C   UNL     1      44.277 -21.932   2.779  1.00  0.00     0.009 A 
ENDBRANCH  18  19
ENDBRANCH  15  18
ENDBRANCH  14  15
ENDBRANCH  12  14
ENDBRANCH   1   9
BRANCH   4  25
HETATM   25  N   UNL     1      40.979 -10.328   6.881  1.00  0.00    -0.334 N 
HETATM   26  C   UNL     1      40.515 -10.501   8.170  1.00  0.00     0.321 C 
HETATM   27  N   UNL     1      41.022  -9.534   9.008  1.00  0.00    -0.309 N 
HETATM   28  O   UNL     1      39.786 -11.433   8.477  1.00  0.00    -0.247 OA
HETATM   29  H   UNL     1      41.634  -8.856   8.581  1.00  0.00     0.170 HD
HETATM   30  H   UNL     1      41.141  -9.370   6.601  1.00  0.00     0.164 HD
BRANCH  27  31
HETATM   31  C   UNL     1      40.876  -9.440  10.407  1.00  0.00     0.037 A 
HETATM   32  C   UNL     1      41.831  -9.885  11.325  1.00  0.00     0.045 A 
HETATM   33  C   UNL     1      41.637  -9.718  12.709  1.00  0.00     0.050 A 
HETATM   34  C   UNL     1      40.453  -9.122  13.166  1.00  0.00     0.016 A 
HETATM   35  C   UNL     1      39.492  -8.685  12.258  1.00  0.00     0.003 A 
HETATM   36  C   UNL     1      39.705  -8.840  10.887  1.00  0.00     0.029 A 
BRANCH  33  37
HETATM   37  C   UNL     1      42.674 -10.200  13.694  1.00  0.00     0.417 C 
HETATM   38  F   UNL     1      43.206 -11.412  13.374  1.00  0.00    -0.166 F 
HETATM   39  F   UNL     1      43.733  -9.350  13.803  1.00  0.00    -0.166 F 
HETATM   40  F   UNL     1      42.171 -10.333  14.952  1.00  0.00    -0.166 F 
ENDBRANCH  33  37
ENDBRANCH  27  31
ENDBRANCH   4  25
TORSDOF 8
ENDMDL
MODEL 5
REMARK VINA RESULT:      -8.8      7.258     11.031
REMARK  8 active torsions:
REMARK  status: ('A' for Active; 'I' for Inactive)
REMARK    1  A    between atoms: N_2  and  C_4 
REMARK    2  A    between atoms: N_2  and  C_32 
REMARK    3  A    between atoms: C_4  and  C_5 
REMARK    4  A    between atoms: N_8  and  C_9 
REMARK    5  A    between atoms: C_12  and  N_13 
REMARK       I    between atoms: N_13  and  C_14 
REMARK       I    between atoms: C_14  and  N_15 
REMARK    6  A    between atoms: N_15  and  C_16 
REMARK    7  A    between atoms: C_18  and  C_19 
REMARK    8  A    between atoms: C_32  and  C_33 
ROOT
HETATM    1  C   UNL     1      42.225 -14.995   3.848  1.00  0.00     0.161 C 
HETATM    2  C   UNL     1      41.681 -15.950   2.798  1.00  0.00     0.179 C 
HETATM    3  C   UNL     1      41.686 -15.138   1.512  1.00  0.00     0.177 C 
HETATM    4  C   UNL     1      40.214 -14.853   1.257  1.00  0.00     0.141 C 
HETATM    5  C   UNL     1      39.525 -16.024   1.955  1.00  0.00     0.196 C 
HETATM    6  O   UNL     1      40.332 -16.332   3.108  1.00  0.00    -0.379 OA
HETATM    7  O   UNL     1      42.425 -13.928   1.756  1.00  0.00    -0.379 OA
HETATM    8  C   UNL     1      43.117 -14.098   3.007  1.00  0.00     0.198 C 
ENDROOT
BRANCH   1   9
HETATM    9  N   UNL     1      42.860 -15.676   4.950  1.00  0.00    -0.274 N 
HETATM   10  N   UNL     1      43.777 -15.073   5.728  1.00  0.00     0.005 NA
HETATM   11  N   UNL     1      44.176 -15.945   6.641  1.00  0.00    -0.161 NA
HETATM   12  C   UNL     1      43.495 -17.115   6.439  1.00  0.00     0.095 A 
HETATM   13  C   UNL     1      42.637 -16.960   5.375  1.00  0.00     0.139 A 
BRANCH  12  14
HETATM   14  C   UNL     1      43.785 -18.295   7.291  1.00  0.00     0.296 C 
BRANCH  14  15
HETATM   15  N   UNL     1      43.769 -19.592   6.507  1.00  0.00    -0.066 N 
HETATM   16  C   UNL     1      43.683 -20.799   7.399  1.00  0.00     0.270 C 
HETATM   17  H   UNL     1      42.887 -19.569   5.975  1.00  0.00     0.280 HD
BRANCH  15  18
HETATM   18  C   UNL     1      44.896 -19.662   5.512  1.00  0.00     0.273 C 
BRANCH  18  19
HETATM   19  C   UNL     1      44.507 -20.310   4.212  1.00  0.00    -0.033 A 
HETATM   20  C   UNL     1      44.769 -21.670   3.987  1.00  0.00     0.009 A 
HETATM   21  C   UNL     1      44.436 -22.261   2.768  1.00  0.00     0.001 A 
HETATM   22  C   UNL     1      43.838 -21.502   1.764  1.00  0.00     0.000 A 
HETATM   23  C   UNL     1      43.569 -20.153   1.977  1.00  0.00     0.001 A 
HETATM   24  C   UNL     1      43.899 -19.556   3.195  1.00  0.00     0.009 A 
ENDBRANCH  18  19
ENDBRANCH  15  18
ENDBRANCH  14  15
ENDBRANCH  12  14
ENDBRANCH   1   9
BRANCH   4  25
HETATM   25  N   UNL     1      39.855 -14.635  -0.138  1.00  0.00    -0.334 N 
HETATM   26  C   UNL     1      39.877 -13.382  -0.719  1.00  0.00     0.321 C 
HETATM   27  N   UNL     1      39.550 -13.453  -2.054  1.00  0.00    -0.309 N 
HETATM   28  O   UNL     1      40.195 -12.382  -0.091  1.00  0.00    -0.247 OA
HETATM   29  H   UNL     1      39.342 -14.374  -2.409  1.00  0.00     0.170 HD
HETATM   30  H   UNL     1      39.173 -15.277  -0.516  1.00  0.00     0.164 HD
BRANCH  27  31
HETATM   31  C   UNL     1      39.576 -12.415  -3.007  1.00  0.00     0.037 A 
HETATM   32  C   UNL     1      40.747 -11.873  -3.543  1.00  0.00     0.045 A 
HETATM   33  C   UNL     1      40.696 -10.866  -4.525  1.00  0.00     0.050 A 
HETATM   34  C   UNL     1      39.447 -10.386  -4.945  1.00  0.00     0.016 A 
HETATM   35  C   UNL     1      38.275 -10.913  -4.408  1.00  0.00     0.003 A 
HETATM   36  C   UNL     1      38.341 -11.924  -3.448  1.00  0.00     0.029 A 
BRANCH  33  37
HETATM   37  C   UNL     1      41.965 -10.287  -5.100  1.00  0.00     0.417 C 
HETATM   38  F   UNL     1      42.890 -11.229  -5.434  1.00  0.00    -0.166 F 
HETATM   39  F   UNL     1      41.749  -9.565  -6.234  1.00  0.00    -0.166 F 
HETATM   40  F   UNL     1      42.588  -9.443  -4.233  1.00  0.00    -0.166 F 
ENDBRANCH  33  37
ENDBRANCH  27  31
ENDBRANCH   4  25
TORSDOF 8
ENDMDL
MODEL 6
REMARK VINA RESULT:      -8.7      1.711      2.462
REMARK  8 active torsions:
REMARK  status: ('A' for Active; 'I' for Inactive)
REMARK    1  A    between atoms: N_2  and  C_4 
REMARK    2  A    between atoms: N_2  and  C_32 
REMARK    3  A    between atoms: C_4  and  C_5 
REMARK    4  A    between atoms: N_8  and  C_9 
REMARK    5  A    between atoms: C_12  and  N_13 
REMARK       I    between atoms: N_13  and  C_14 
REMARK       I    between atoms: C_14  and  N_15 
REMARK    6  A    between atoms: N_15  and  C_16 
REMARK    7  A    between atoms: C_18  and  C_19 
REMARK    8  A    between atoms: C_32  and  C_33 
ROOT
HETATM    1  C   UNL     1      40.197 -10.598   6.335  1.00  0.00     0.161 C 
HETATM    2  C   UNL     1      40.567 -12.065   6.487  1.00  0.00     0.179 C 
HETATM    3  C   UNL     1      41.352 -12.387   5.224  1.00  0.00     0.177 C 
HETATM    4  C   UNL     1      40.399 -13.254   4.415  1.00  0.00     0.141 C 
HETATM    5  C   UNL     1      39.523 -13.881   5.498  1.00  0.00     0.196 C 
HETATM    6  O   UNL     1      39.389 -12.885   6.530  1.00  0.00    -0.379 OA
HETATM    7  O   UNL     1      41.639 -11.147   4.553  1.00  0.00    -0.379 OA
HETATM    8  C   UNL     1      41.342 -10.085   5.478  1.00  0.00     0.198 C 
ENDROOT
BRANCH   1   9
HETATM    9  N   UNL     1      40.000  -9.936   7.602  1.00  0.00    -0.274 N 
HETATM   10  N   UNL     1      38.774  -9.742   8.121  1.00  0.00     0.005 NA
HETATM   11  N   UNL     1      38.915  -9.111   9.276  1.00  0.00    -0.161 NA
HETATM   12  C   UNL     1      40.253  -8.910   9.492  1.00  0.00     0.095 A 
HETATM   13  C   UNL     1      40.963  -9.444   8.443  1.00  0.00     0.139 A 
BRANCH  12  14
HETATM   14  C   UNL     1      40.703  -8.169  10.696  1.00  0.00     0.296 C 
BRANCH  14  15
HETATM   15  N   UNL     1      41.062  -9.092  11.843  1.00  0.00    -0.066 N 
HETATM   16  C   UNL     1      40.139  -8.932  13.018  1.00  0.00     0.270 C 
HETATM   17  H   UNL     1      40.896 -10.042  11.480  1.00  0.00     0.280 HD
BRANCH  15  18
HETATM   18  C   UNL     1      42.518  -8.995  12.209  1.00  0.00     0.273 C 
BRANCH  18  19
HETATM   19  C   UNL     1      43.332 -10.171  11.743  1.00  0.00    -0.033 A 
HETATM   20  C   UNL     1      43.173 -11.429  12.342  1.00  0.00     0.009 A 
HETATM   21  C   UNL     1      43.952 -12.512  11.930  1.00  0.00     0.001 A 
HETATM   22  C   UNL     1      44.894 -12.348  10.916  1.00  0.00     0.000 A 
HETATM   23  C   UNL     1      45.058 -11.105  10.311  1.00  0.00     0.001 A 
HETATM   24  C   UNL     1      44.281 -10.019  10.719  1.00  0.00     0.009 A 
ENDBRANCH  18  19
ENDBRANCH  15  18
ENDBRANCH  14  15
ENDBRANCH  12  14
ENDBRANCH   1   9
BRANCH   4  25
HETATM   25  N   UNL     1      41.035 -14.179   3.487  1.00  0.00    -0.334 N 
HETATM   26  C   UNL     1      41.694 -15.316   3.912  1.00  0.00     0.321 C 
HETATM   27  N   UNL     1      42.157 -16.045   2.840  1.00  0.00    -0.309 N 
HETATM   28  O   UNL     1      41.786 -15.606   5.096  1.00  0.00    -0.247 OA
HETATM   29  H   UNL     1      41.964 -15.661   1.928  1.00  0.00     0.170 HD
HETATM   30  H   UNL     1      41.387 -13.765   2.635  1.00  0.00     0.164 HD
BRANCH  27  31
HETATM   31  C   UNL     1      42.772 -17.313   2.860  1.00  0.00     0.037 A 
HETATM   32  C   UNL     1      43.544 -17.793   3.921  1.00  0.00     0.045 A 
HETATM   33  C   UNL     1      44.092 -19.089   3.890  1.00  0.00     0.050 A 
HETATM   34  C   UNL     1      43.879 -19.894   2.762  1.00  0.00     0.016 A 
HETATM   35  C   UNL     1      43.119 -19.419   1.695  1.00  0.00     0.003 A 
HETATM   36  C   UNL     1      42.567 -18.138   1.747  1.00  0.00     0.029 A 
BRANCH  33  37
HETATM   37  C   UNL     1      44.924 -19.600   5.041  1.00  0.00     0.417 C 
HETATM   38  F   UNL     1      45.604 -18.619   5.697  1.00  0.00    -0.166 F 
HETATM   39  F   UNL     1      44.177 -20.230   5.992  1.00  0.00    -0.166 F 
HETATM   40  F   UNL     1      45.860 -20.503   4.642  1.00  0.00    -0.166 F 
ENDBRANCH  33  37
ENDBRANCH  27  31
ENDBRANCH   4  25
TORSDOF 8
ENDMDL
MODEL 7
REMARK VINA RESULT:      -8.7      7.396     10.023
REMARK  8 active torsions:
REMARK  status: ('A' for Active; 'I' for Inactive)
REMARK    1  A    between atoms: N_2  and  C_4 
REMARK    2  A    between atoms: N_2  and  C_32 
REMARK    3  A    between atoms: C_4  and  C_5 
REMARK    4  A    between atoms: N_8  and  C_9 
REMARK    5  A    between atoms: C_12  and  N_13 
REMARK       I    between atoms: N_13  and  C_14 
REMARK       I    between atoms: C_14  and  N_15 
REMARK    6  A    between atoms: N_15  and  C_16 
REMARK    7  A    between atoms: C_18  and  C_19 
REMARK    8  A    between atoms: C_32  and  C_33 
ROOT
HETATM    1  C   UNL     1      38.622 -14.061  -2.888  1.00  0.00     0.161 C 
HETATM    2  C   UNL     1      39.733 -13.474  -2.033  1.00  0.00     0.179 C 
HETATM    3  C   UNL     1      40.791 -14.566  -1.990  1.00  0.00     0.177 C 
HETATM    4  C   UNL     1      40.699 -15.106  -0.570  1.00  0.00     0.141 C 
HETATM    5  C   UNL     1      40.154 -13.907   0.204  1.00  0.00     0.196 C 
HETATM    6  O   UNL     1      39.267 -13.219  -0.699  1.00  0.00    -0.379 OA
HETATM    7  O   UNL     1      40.434 -15.566  -2.960  1.00  0.00    -0.379 OA
HETATM    8  C   UNL     1      39.401 -15.004  -3.789  1.00  0.00     0.198 C 
ENDROOT
BRANCH   1   9
HETATM    9  N   UNL     1      37.831 -13.051  -3.550  1.00  0.00    -0.274 N 
HETATM   10  N   UNL     1      38.367 -11.895  -3.981  1.00  0.00     0.005 NA
HETATM   11  N   UNL     1      37.401 -11.179  -4.536  1.00  0.00    -0.161 NA
HETATM   12  C   UNL     1      36.239 -11.899  -4.460  1.00  0.00     0.095 A 
HETATM   13  C   UNL     1      36.495 -13.105  -3.849  1.00  0.00     0.139 A 
BRANCH  12  14
HETATM   14  C   UNL     1      34.972 -11.312  -4.960  1.00  0.00     0.296 C 
BRANCH  14  15
HETATM   15  N   UNL     1      33.838 -11.449  -3.964  1.00  0.00    -0.066 N 
HETATM   16  C   UNL     1      32.587 -11.999  -4.591  1.00  0.00     0.270 C 
HETATM   17  H   UNL     1      34.158 -12.165  -3.295  1.00  0.00     0.280 HD
BRANCH  15  18
HETATM   18  C   UNL     1      33.610 -10.178  -3.191  1.00  0.00     0.273 C 
BRANCH  18  19
HETATM   19  C   UNL     1      33.738 -10.351  -1.703  1.00  0.00    -0.033 A 
HETATM   20  C   UNL     1      34.954 -10.764  -1.136  1.00  0.00     0.009 A 
HETATM   21  C   UNL     1      35.062 -10.954   0.242  1.00  0.00     0.001 A 
HETATM   22  C   UNL     1      33.960 -10.733   1.066  1.00  0.00     0.000 A 
HETATM   23  C   UNL     1      32.750 -10.320   0.515  1.00  0.00     0.001 A 
HETATM   24  C   UNL     1      32.636 -10.128  -0.863  1.00  0.00     0.009 A 
ENDBRANCH  18  19
ENDBRANCH  15  18
ENDBRANCH  14  15
ENDBRANCH  12  14
ENDBRANCH   1   9
BRANCH   4  25
HETATM   25  N   UNL     1      41.922 -15.704  -0.051  1.00  0.00    -0.334 N 
HETATM   26  C   UNL     1      41.912 -16.638   0.967  1.00  0.00     0.321 C 
HETATM   27  N   UNL     1      43.186 -17.086   1.234  1.00  0.00    -0.309 N 
HETATM   28  O   UNL     1      40.874 -17.010   1.494  1.00  0.00    -0.247 OA
HETATM   29  H   UNL     1      43.922 -16.682   0.675  1.00  0.00     0.170 HD
HETATM   30  H   UNL     1      42.745 -15.120  -0.098  1.00  0.00     0.164 HD
BRANCH  27  31
HETATM   31  C   UNL     1      43.572 -18.115   2.116  1.00  0.00     0.037 A 
HETATM   32  C   UNL     1      43.641 -19.465   1.762  1.00  0.00     0.045 A 
HETATM   33  C   UNL     1      44.079 -20.434   2.684  1.00  0.00     0.050 A 
HETATM   34  C   UNL     1      44.422 -20.034   3.983  1.00  0.00     0.016 A 
HETATM   35  C   UNL     1      44.346 -18.692   4.347  1.00  0.00     0.003 A 
HETATM   36  C   UNL     1      43.928 -17.739   3.417  1.00  0.00     0.029 A 
BRANCH  33  37
HETATM   37  C   UNL     1      44.152 -21.890   2.293  1.00  0.00     0.417 C 
HETATM   38  F   UNL     1      45.251 -22.199   1.551  1.00  0.00    -0.166 F 
HETATM   39  F   UNL     1      44.187 -22.724   3.370  1.00  0.00    -0.166 F 
HETATM   40  F   UNL     1      43.079 -22.281   1.553  1.00  0.00    -0.166 F 
ENDBRANCH  33  37
ENDBRANCH  27  31
ENDBRANCH   4  25
TORSDOF 8
ENDMDL
MODEL 8
REMARK VINA RESULT:      -8.6      8.318     11.371
REMARK  8 active torsions:
REMARK  status: ('A' for Active; 'I' for Inactive)
REMARK    1  A    between atoms: N_2  and  C_4 
REMARK    2  A    between atoms: N_2  and  C_32 
REMARK    3  A    between atoms: C_4  and  C_5 
REMARK    4  A    between atoms: N_8  and  C_9 
REMARK    5  A    between atoms: C_12  and  N_13 
REMARK       I    between atoms: N_13  and  C_14 
REMARK       I    between atoms: C_14  and  N_15 
REMARK    6  A    between atoms: N_15  and  C_16 
REMARK    7  A    between atoms: C_18  and  C_19 
REMARK    8  A    between atoms: C_32  and  C_33 
ROOT
HETATM    1  C   UNL     1      38.260 -14.771  -3.137  1.00  0.00     0.161 C 
HETATM    2  C   UNL     1      39.347 -14.030  -2.377  1.00  0.00     0.179 C 
HETATM    3  C   UNL     1      40.462 -15.053  -2.221  1.00  0.00     0.177 C 
HETATM    4  C   UNL     1      40.414 -15.420  -0.745  1.00  0.00     0.141 C 
HETATM    5  C   UNL     1      39.815 -14.166  -0.112  1.00  0.00     0.196 C 
HETATM    6  O   UNL     1      38.883 -13.638  -1.076  1.00  0.00    -0.379 OA
HETATM    7  O   UNL     1      40.148 -16.180  -3.057  1.00  0.00    -0.379 OA
HETATM    8  C   UNL     1      39.077 -15.776  -3.930  1.00  0.00     0.198 C 
ENDROOT
BRANCH   1   9
HETATM    9  N   UNL     1      37.410 -13.891  -3.901  1.00  0.00    -0.274 N 
HETATM   10  N   UNL     1      36.428 -14.358  -4.693  1.00  0.00     0.005 NA
HETATM   11  N   UNL     1      35.833 -13.321  -5.261  1.00  0.00    -0.161 NA
HETATM   12  C   UNL     1      36.445 -12.180  -4.815  1.00  0.00     0.095 A 
HETATM   13  C   UNL     1      37.444 -12.522  -3.933  1.00  0.00     0.139 A 
BRANCH  12  14
HETATM   14  C   UNL     1      36.015 -10.859  -5.334  1.00  0.00     0.296 C 
BRANCH  14  15
HETATM   15  N   UNL     1      34.720 -10.940  -6.117  1.00  0.00    -0.066 N 
HETATM   16  C   UNL     1      34.930 -10.753  -7.594  1.00  0.00     0.270 C 
HETATM   17  H   UNL     1      34.397 -11.911  -5.997  1.00  0.00     0.280 HD
BRANCH  15  18
HETATM   18  C   UNL     1      33.660 -10.038  -5.546  1.00  0.00     0.273 C 
BRANCH  18  19
HETATM   19  C   UNL     1      32.884 -10.664  -4.419  1.00  0.00    -0.033 A 
HETATM   20  C   UNL     1      32.689  -9.969  -3.216  1.00  0.00     0.009 A 
HETATM   21  C   UNL     1      31.997 -10.564  -2.161  1.00  0.00     0.001 A 
HETATM   22  C   UNL     1      31.492 -11.855  -2.297  1.00  0.00     0.000 A 
HETATM   23  C   UNL     1      31.676 -12.553  -3.488  1.00  0.00     0.001 A 
HETATM   24  C   UNL     1      32.367 -11.963  -4.546  1.00  0.00     0.009 A 
ENDBRANCH  18  19
ENDBRANCH  15  18
ENDBRANCH  14  15
ENDBRANCH  12  14
ENDBRANCH   1   9
BRANCH   4  25
HETATM   25  N   UNL     1      41.671 -15.888  -0.178  1.00  0.00    -0.334 N 
HETATM   26  C   UNL     1      41.721 -16.827   0.834  1.00  0.00     0.321 C 
HETATM   27  N   UNL     1      43.024 -17.137   1.152  1.00  0.00    -0.309 N 
HETATM   28  O   UNL     1      40.709 -17.313   1.317  1.00  0.00    -0.247 OA
HETATM   29  H   UNL     1      43.734 -16.652   0.626  1.00  0.00     0.170 HD
HETATM   30  H   UNL     1      42.428 -15.219  -0.189  1.00  0.00     0.164 HD
BRANCH  27  31
HETATM   31  C   UNL     1      43.483 -18.127   2.045  1.00  0.00     0.037 A 
HETATM   32  C   UNL     1      43.589 -19.483   1.724  1.00  0.00     0.045 A 
HETATM   33  C   UNL     1      44.098 -20.409   2.653  1.00  0.00     0.050 A 
HETATM   34  C   UNL     1      44.476 -19.961   3.927  1.00  0.00     0.016 A 
HETATM   35  C   UNL     1      44.364 -18.612   4.258  1.00  0.00     0.003 A 
HETATM   36  C   UNL     1      43.874 -17.702   3.321  1.00  0.00     0.029 A 
BRANCH  33  37
HETATM   37  C   UNL     1      44.210 -21.871   2.298  1.00  0.00     0.417 C 
HETATM   38  F   UNL     1      44.227 -22.695   3.383  1.00  0.00    -0.166 F 
HETATM   39  F   UNL     1      43.178 -22.306   1.521  1.00  0.00    -0.166 F 
HETATM   40  F   UNL     1      45.345 -22.148   1.601  1.00  0.00    -0.166 F 
ENDBRANCH  33  37
ENDBRANCH  27  31
ENDBRANCH   4  25
TORSDOF 8
ENDMDL
MODEL 9
REMARK VINA RESULT:      -8.4      6.408     10.752
REMARK  8 active torsions:
REMARK  status: ('A' for Active; 'I' for Inactive)
REMARK    1  A    between atoms: N_2  and  C_4 
REMARK    2  A    between atoms: N_2  and  C_32 
REMARK    3  A    between atoms: C_4  and  C_5 
REMARK    4  A    between atoms: N_8  and  C_9 
REMARK    5  A    between atoms: C_12  and  N_13 
REMARK       I    between atoms: N_13  and  C_14 
REMARK       I    between atoms: C_14  and  N_15 
REMARK    6  A    between atoms: N_15  and  C_16 
REMARK    7  A    between atoms: C_18  and  C_19 
REMARK    8  A    between atoms: C_32  and  C_33 
ROOT
HETATM    1  C   UNL     1      41.731 -14.579   5.365  1.00  0.00     0.161 C 
HETATM    2  C   UNL     1      42.189 -14.418   3.925  1.00  0.00     0.179 C 
HETATM    3  C   UNL     1      41.734 -13.019   3.539  1.00  0.00     0.177 C 
HETATM    4  C   UNL     1      40.571 -13.264   2.589  1.00  0.00     0.141 C 
HETATM    5  C   UNL     1      40.900 -14.639   2.012  1.00  0.00     0.196 C 
HETATM    6  O   UNL     1      41.539 -15.375   3.074  1.00  0.00    -0.379 OA
HETATM    7  O   UNL     1      41.306 -12.347   4.737  1.00  0.00    -0.379 OA
HETATM    8  C   UNL     1      41.754 -13.140   5.851  1.00  0.00     0.198 C 
ENDROOT
BRANCH   1   9
HETATM    9  N   UNL     1      42.535 -15.519   6.108  1.00  0.00    -0.274 N 
HETATM   10  N   UNL     1      43.757 -15.201   6.571  1.00  0.00     0.005 NA
HETATM   11  N   UNL     1      44.243 -16.260   7.201  1.00  0.00    -0.161 NA
HETATM   12  C   UNL     1      43.308 -17.259   7.140  1.00  0.00     0.095 A 
HETATM   13  C   UNL     1      42.204 -16.801   6.461  1.00  0.00     0.139 A 
BRANCH  12  14
HETATM   14  C   UNL     1      43.611 -18.589   7.722  1.00  0.00     0.296 C 
BRANCH  14  15
HETATM   15  N   UNL     1      43.618 -19.688   6.679  1.00  0.00    -0.066 N 
HETATM   16  C   UNL     1      43.586 -21.061   7.292  1.00  0.00     0.270 C 
HETATM   17  H   UNL     1      42.726 -19.582   6.175  1.00  0.00     0.280 HD
BRANCH  15  18
HETATM   18  C   UNL     1      44.727 -19.507   5.678  1.00  0.00     0.273 C 
BRANCH  18  19
HETATM   19  C   UNL     1      44.363 -19.964   4.292  1.00  0.00    -0.033 A 
HETATM   20  C   UNL     1      43.601 -19.142   3.448  1.00  0.00     0.009 A 
HETATM   21  C   UNL     1      43.238 -19.581   2.174  1.00  0.00     0.001 A 
HETATM   22  C   UNL     1      43.632 -20.842   1.732  1.00  0.00     0.000 A 
HETATM   23  C   UNL     1      44.392 -21.665   2.558  1.00  0.00     0.001 A 
HETATM   24  C   UNL     1      44.759 -21.230   3.833  1.00  0.00     0.009 A 
ENDBRANCH  18  19
ENDBRANCH  15  18
ENDBRANCH  14  15
ENDBRANCH  12  14
ENDBRANCH   1   9
BRANCH   4  25
HETATM   25  N   UNL     1      40.324 -12.203   1.621  1.00  0.00    -0.334 N 
HETATM   26  C   UNL     1      41.318 -11.707   0.800  1.00  0.00     0.321 C 
HETATM   27  N   UNL     1      40.816 -10.754  -0.057  1.00  0.00    -0.309 N 
HETATM   28  O   UNL     1      42.465 -12.127   0.845  1.00  0.00    -0.247 OA
HETATM   29  H   UNL     1      39.832 -10.554   0.033  1.00  0.00     0.170 HD
HETATM   30  H   UNL     1      39.599 -11.546   1.873  1.00  0.00     0.164 HD
BRANCH  27  31
HETATM   31  C   UNL     1      41.485 -10.104  -1.114  1.00  0.00     0.037 A 
HETATM   32  C   UNL     1      41.535 -10.588  -2.424  1.00  0.00     0.045 A 
HETATM   33  C   UNL     1      42.186  -9.863  -3.439  1.00  0.00     0.050 A 
HETATM   34  C   UNL     1      42.814  -8.651  -3.117  1.00  0.00     0.016 A 
HETATM   35  C   UNL     1      42.777  -8.167  -1.812  1.00  0.00     0.003 A 
HETATM   36  C   UNL     1      42.114  -8.888  -0.819  1.00  0.00     0.029 A 
BRANCH  33  37
HETATM   37  C   UNL     1      42.234 -10.392  -4.852  1.00  0.00     0.417 C 
HETATM   38  F   UNL     1      41.007 -10.683  -5.366  1.00  0.00    -0.166 F 
HETATM   39  F   UNL     1      42.800  -9.512  -5.725  1.00  0.00    -0.166 F 
HETATM   40  F   UNL     1      42.962 -11.537  -4.950  1.00  0.00    -0.166 F 
ENDBRANCH  33  37
ENDBRANCH  27  31
ENDBRANCH   4  25
TORSDOF 8
ENDMDL
MODEL 10
REMARK VINA RESULT:      -8.3      7.963     10.948
REMARK  8 active torsions:
REMARK  status: ('A' for Active; 'I' for Inactive)
REMARK    1  A    between atoms: N_2  and  C_4 
REMARK    2  A    between atoms: N_2  and  C_32 
REMARK    3  A    between atoms: C_4  and  C_5 
REMARK    4  A    between atoms: N_8  and  C_9 
REMARK    5  A    between atoms: C_12  and  N_13 
REMARK       I    between atoms: N_13  and  C_14 
REMARK       I    between atoms: C_14  and  N_15 
REMARK    6  A    between atoms: N_15  and  C_16 
REMARK    7  A    between atoms: C_18  and  C_19 
REMARK    8  A    between atoms: C_32  and  C_33 
ROOT
HETATM    1  C   UNL     1      38.604 -14.598  -2.931  1.00  0.00     0.161 C 
HETATM    2  C   UNL     1      39.736 -13.960  -2.144  1.00  0.00     0.179 C 
HETATM    3  C   UNL     1      40.801 -15.043  -2.072  1.00  0.00     0.177 C 
HETATM    4  C   UNL     1      40.755 -15.503  -0.622  1.00  0.00     0.141 C 
HETATM    5  C   UNL     1      40.226 -14.265   0.100  1.00  0.00     0.196 C 
HETATM    6  O   UNL     1      39.308 -13.632  -0.812  1.00  0.00    -0.379 OA
HETATM    7  O   UNL     1      40.422 -16.097  -2.974  1.00  0.00    -0.379 OA
HETATM    8  C   UNL     1      39.361 -15.586  -3.802  1.00  0.00     0.198 C 
ENDROOT
BRANCH   1   9
HETATM    9  N   UNL     1      37.787 -13.631  -3.624  1.00  0.00    -0.274 N 
HETATM   10  N   UNL     1      36.713 -13.992  -4.349  1.00  0.00     0.005 NA
HETATM   11  N   UNL     1      36.178 -12.895  -4.861  1.00  0.00    -0.161 NA
HETATM   12  C   UNL     1      36.923 -11.823  -4.447  1.00  0.00     0.095 A 
HETATM   13  C   UNL     1      37.945 -12.270  -3.642  1.00  0.00     0.139 A 
BRANCH  12  14
HETATM   14  C   UNL     1      36.581 -10.460  -4.920  1.00  0.00     0.296 C 
BRANCH  14  15
HETATM   15  N   UNL     1      35.093 -10.283  -5.150  1.00  0.00    -0.066 N 
HETATM   16  C   UNL     1      34.794  -9.509  -6.404  1.00  0.00     0.270 C 
HETATM   17  H   UNL     1      34.735 -11.235  -5.313  1.00  0.00     0.280 HD
BRANCH  15  18
HETATM   18  C   UNL     1      34.396  -9.741  -3.932  1.00  0.00     0.273 C 
BRANCH  18  19
HETATM   19  C   UNL     1      33.294 -10.630  -3.427  1.00  0.00    -0.033 A 
HETATM   20  C   UNL     1      32.902 -11.763  -4.157  1.00  0.00     0.009 A 
HETATM   21  C   UNL     1      31.858 -12.570  -3.702  1.00  0.00     0.001 A 
HETATM   22  C   UNL     1      31.198 -12.255  -2.516  1.00  0.00     0.000 A 
HETATM   23  C   UNL     1      31.580 -11.136  -1.782  1.00  0.00     0.001 A 
HETATM   24  C   UNL     1      32.624 -10.326  -2.232  1.00  0.00     0.009 A 
ENDBRANCH  18  19
ENDBRANCH  15  18
ENDBRANCH  14  15
ENDBRANCH  12  14
ENDBRANCH   1   9
BRANCH   4  25
HETATM   25  N   UNL     1      41.996 -16.066  -0.108  1.00  0.00    -0.334 N 
HETATM   26  C   UNL     1      42.030 -16.888   1.002  1.00  0.00     0.321 C 
HETATM   27  N   UNL     1      43.311 -17.329   1.247  1.00  0.00    -0.309 N 
HETATM   28  O   UNL     1      41.017 -17.185   1.619  1.00  0.00    -0.247 OA
HETATM   29  H   UNL     1      44.021 -16.999   0.612  1.00  0.00     0.170 HD
HETATM   30  H   UNL     1      42.823 -15.504  -0.259  1.00  0.00     0.164 HD
BRANCH  27  31
HETATM   31  C   UNL     1      43.731 -18.267   2.211  1.00  0.00     0.037 A 
HETATM   32  C   UNL     1      43.962 -17.959   3.554  1.00  0.00     0.045 A 
HETATM   33  C   UNL     1      44.339 -18.959   4.472  1.00  0.00     0.050 A 
HETATM   34  C   UNL     1      44.509 -20.274   4.017  1.00  0.00     0.016 A 
HETATM   35  C   UNL     1      44.290 -20.587   2.677  1.00  0.00     0.003 A 
HETATM   36  C   UNL     1      43.900 -19.590   1.782  1.00  0.00     0.029 A 
BRANCH  33  37
HETATM   37  C   UNL     1      44.585 -18.618   5.921  1.00  0.00     0.417 C 
HETATM   38  F   UNL     1      45.856 -18.197   6.172  1.00  0.00    -0.166 F 
HETATM   39  F   UNL     1      43.771 -17.624   6.375  1.00  0.00    -0.166 F 
HETATM   40  F   UNL     1      44.373 -19.680   6.745  1.00  0.00    -0.166 F 
ENDBRANCH  33  37
ENDBRANCH  27  31
ENDBRANCH   4  25
TORSDOF 8
ENDMDL
