MODEL 1
REMARK VINA RESULT:      -8.1      0.000      0.000
REMARK  3 active torsions:
REMARK  status: ('A' for Active; 'I' for Inactive)
REMARK    1  A    between atoms: C_6  and  N_7 
REMARK       I    between atoms: N_7  and  C_8 
REMARK    2  A    between atoms: C_8  and  C_9 
REMARK    3  A    between atoms: C_9  and  C_10 
ROOT
HETATM    1  C   UNL     1      43.639 -17.499   4.583  1.00  0.00     0.286 C 
HETATM    2  N   UNL     1      43.658 -18.145   3.194  1.00  0.00    -0.056 N 
HETATM    3  H   UNL     1      42.875 -17.789   2.629  1.00  0.00     0.278 HD
HETATM    4  H   UNL     1      44.517 -17.841   2.717  1.00  0.00     0.278 HD
HETATM    5  C   UNL     1      43.619 -19.650   3.202  1.00  0.00     0.209 C 
HETATM    6  C   UNL     1      44.733 -20.190   4.122  1.00  0.00     0.115 C 
HETATM    7  N   UNL     1      44.709 -19.584   5.443  1.00  0.00    -0.353 N 
HETATM    8  C   UNL     1      44.453 -18.254   5.653  1.00  0.00     0.249 C 
HETATM    9  O   UNL     1      44.765 -17.713   6.711  1.00  0.00    -0.271 OA
HETATM   10  C   UNL     1      43.794 -20.182   1.783  1.00  0.00     0.035 C 
HETATM   11  C   UNL     1      43.742 -21.712   1.792  1.00  0.00     0.002 C 
HETATM   12  C   UNL     1      44.735 -22.326   2.783  1.00  0.00     0.002 C 
HETATM   13  C   UNL     1      44.633 -21.715   4.183  1.00  0.00     0.027 C 
HETATM   14  H   UNL     1      45.260 -20.013   6.185  1.00  0.00     0.163 HD
ENDROOT
BRANCH   1  15
HETATM   15  C   UNL     1      42.215 -17.201   5.068  1.00  0.00     0.146 C 
BRANCH  15  16
HETATM   16  C   UNL     1      41.565 -16.105   4.251  1.00  0.00     0.224 C 
HETATM   17  N   UNL     1      40.768 -16.569   3.225  1.00  0.00    -0.327 N 
HETATM   18  H   UNL     1      40.496 -17.549   3.228  1.00  0.00     0.169 HD
HETATM   19  O   UNL     1      41.864 -14.940   4.485  1.00  0.00    -0.273 OA
BRANCH  17  20
HETATM   20  C   UNL     1      40.327 -15.842   2.096  1.00  0.00     0.036 A 
HETATM   21  C   UNL     1      39.103 -15.176   2.028  1.00  0.00     0.053 A 
HETATM   22  C   UNL     1      38.787 -14.410   0.902  1.00  0.00     0.036 A 
HETATM   23  C   UNL     1      39.674 -14.311  -0.167  1.00  0.00     0.024 A 
HETATM   24 CL   UNL     1      37.294 -13.553   0.854  1.00  0.00    -0.084 Cl
HETATM   25  C   UNL     1      40.891 -14.984  -0.111  1.00  0.00     0.004 A 
HETATM   26  C   UNL     1      41.218 -15.741   1.018  1.00  0.00     0.029 A 
ENDBRANCH  17  20
ENDBRANCH  15  16
ENDBRANCH   1  15
TORSDOF 3
ENDMDL
MODEL 2
REMARK VINA RESULT:      -8.0      3.119      6.443
REMARK  3 active torsions:
REMARK  status: ('A' for Active; 'I' for Inactive)
REMARK    1  A    between atoms: C_6  and  N_7 
REMARK       I    between atoms: N_7  and  C_8 
REMARK    2  A    between atoms: C_8  and  C_9 
REMARK    3  A    between atoms: C_9  and  C_10 
ROOT
HETATM    1  C   UNL     1      40.992 -15.053   4.977  1.00  0.00     0.286 C 
HETATM    2  N   UNL     1      40.592 -16.077   3.909  1.00  0.00    -0.056 N 
HETATM    3  H   UNL     1      40.789 -17.030   4.243  1.00  0.00     0.278 HD
HETATM    4  H   UNL     1      39.571 -16.021   3.786  1.00  0.00     0.278 HD
HETATM    5  C   UNL     1      41.249 -15.876   2.570  1.00  0.00     0.209 C 
HETATM    6  C   UNL     1      41.038 -14.420   2.105  1.00  0.00     0.115 C 
HETATM    7  N   UNL     1      41.427 -13.449   3.115  1.00  0.00    -0.353 N 
HETATM    8  C   UNL     1      41.174 -13.615   4.452  1.00  0.00     0.249 C 
HETATM    9  O   UNL     1      41.204 -12.658   5.221  1.00  0.00    -0.271 OA
HETATM   10  C   UNL     1      40.666 -16.851   1.552  1.00  0.00     0.035 C 
HETATM   11  C   UNL     1      41.345 -16.651   0.194  1.00  0.00     0.002 C 
HETATM   12  C   UNL     1      41.291 -15.197  -0.279  1.00  0.00     0.002 C 
HETATM   13  C   UNL     1      41.776 -14.206   0.783  1.00  0.00     0.027 C 
HETATM   14  H   UNL     1      41.524 -12.473   2.839  1.00  0.00     0.163 HD
ENDROOT
BRANCH   1  15
HETATM   15  C   UNL     1      42.207 -15.510   5.795  1.00  0.00     0.146 C 
BRANCH  15  16
HETATM   16  C   UNL     1      42.477 -16.989   5.614  1.00  0.00     0.224 C 
HETATM   17  N   UNL     1      43.630 -17.266   4.911  1.00  0.00    -0.327 N 
HETATM   18  H   UNL     1      44.305 -16.517   4.774  1.00  0.00     0.169 HD
HETATM   19  O   UNL     1      41.634 -17.792   5.998  1.00  0.00    -0.273 OA
BRANCH  17  20
HETATM   20  C   UNL     1      43.969 -18.483   4.278  1.00  0.00     0.036 A 
HETATM   21  C   UNL     1      44.449 -19.605   4.955  1.00  0.00     0.053 A 
HETATM   22  C   UNL     1      44.676 -20.796   4.259  1.00  0.00     0.036 A 
HETATM   23  C   UNL     1      44.444 -20.877   2.888  1.00  0.00     0.024 A 
HETATM   24 CL   UNL     1      45.220 -22.187   5.115  1.00  0.00    -0.084 Cl
HETATM   25  C   UNL     1      43.979 -19.757   2.205  1.00  0.00     0.004 A 
HETATM   26  C   UNL     1      43.737 -18.568   2.898  1.00  0.00     0.029 A 
ENDBRANCH  17  20
ENDBRANCH  15  16
ENDBRANCH   1  15
TORSDOF 3
ENDMDL
MODEL 3
REMARK VINA RESULT:      -7.9      5.953      7.561
REMARK  3 active torsions:
REMARK  status: ('A' for Active; 'I' for Inactive)
REMARK    1  A    between atoms: C_6  and  N_7 
REMARK       I    between atoms: N_7  and  C_8 
REMARK    2  A    between atoms: C_8  and  C_9 
REMARK    3  A    between atoms: C_9  and  C_10 
ROOT
HETATM    1  C   UNL     1      43.993 -14.588   6.973  1.00  0.00     0.286 C 
HETATM    2  N   UNL     1      44.148 -16.067   7.345  1.00  0.00    -0.056 N 
HETATM    3  H   UNL     1      44.907 -16.180   8.031  1.00  0.00     0.278 HD
HETATM    4  H   UNL     1      43.284 -16.364   7.820  1.00  0.00     0.278 HD
HETATM    5  C   UNL     1      44.394 -16.984   6.178  1.00  0.00     0.209 C 
HETATM    6  C   UNL     1      43.312 -16.754   5.103  1.00  0.00     0.115 C 
HETATM    7  N   UNL     1      43.173 -15.352   4.742  1.00  0.00    -0.353 N 
HETATM    8  C   UNL     1      43.229 -14.334   5.658  1.00  0.00     0.249 C 
HETATM    9  O   UNL     1      42.782 -13.221   5.390  1.00  0.00    -0.271 OA
HETATM   10  C   UNL     1      44.380 -18.437   6.646  1.00  0.00     0.035 C 
HETATM   11  C   UNL     1      44.642 -19.367   5.458  1.00  0.00     0.002 C 
HETATM   12  C   UNL     1      43.686 -19.110   4.291  1.00  0.00     0.002 C 
HETATM   13  C   UNL     1      43.617 -17.634   3.890  1.00  0.00     0.027 C 
HETATM   14  H   UNL     1      42.642 -15.116   3.905  1.00  0.00     0.163 HD
ENDROOT
BRANCH   1  15
HETATM   15  C   UNL     1      45.331 -13.839   6.998  1.00  0.00     0.146 C 
BRANCH  15  16
HETATM   16  C   UNL     1      45.378 -12.817   8.115  1.00  0.00     0.224 C 
HETATM   17  N   UNL     1      44.202 -12.712   8.827  1.00  0.00    -0.327 N 
HETATM   18  H   UNL     1      43.504 -13.444   8.720  1.00  0.00     0.169 HD
HETATM   19  O   UNL     1      46.377 -12.117   8.231  1.00  0.00    -0.273 OA
BRANCH  17  20
HETATM   20  C   UNL     1      43.806 -11.643   9.662  1.00  0.00     0.036 A 
HETATM   21  C   UNL     1      42.810 -10.723   9.330  1.00  0.00     0.053 A 
HETATM   22  C   UNL     1      42.423  -9.749  10.255  1.00  0.00     0.036 A 
HETATM   23  C   UNL     1      43.030  -9.671  11.506  1.00  0.00     0.024 A 
HETATM   24 CL   UNL     1      41.158  -8.653   9.851  1.00  0.00    -0.084 Cl
HETATM   25  C   UNL     1      44.033 -10.577  11.838  1.00  0.00     0.004 A 
HETATM   26  C   UNL     1      44.415 -11.561  10.922  1.00  0.00     0.029 A 
ENDBRANCH  17  20
ENDBRANCH  15  16
ENDBRANCH   1  15
TORSDOF 3
ENDMDL
MODEL 4
REMARK VINA RESULT:      -7.8      3.180      6.723
REMARK  3 active torsions:
REMARK  status: ('A' for Active; 'I' for Inactive)
REMARK    1  A    between atoms: C_6  and  N_7 
REMARK       I    between atoms: N_7  and  C_8 
REMARK    2  A    between atoms: C_8  and  C_9 
REMARK    3  A    between atoms: C_9  and  C_10 
ROOT
HETATM    1  C   UNL     1      40.868 -15.319   1.260  1.00  0.00     0.286 C 
HETATM    2  N   UNL     1      42.192 -14.765   1.797  1.00  0.00    -0.056 N 
HETATM    3  H   UNL     1      42.983 -15.213   1.315  1.00  0.00     0.278 HD
HETATM    4  H   UNL     1      42.236 -13.766   1.554  1.00  0.00     0.278 HD
HETATM    5  C   UNL     1      42.373 -14.907   3.284  1.00  0.00     0.209 C 
HETATM    6  C   UNL     1      41.146 -14.320   4.012  1.00  0.00     0.115 C 
HETATM    7  N   UNL     1      39.890 -14.854   3.509  1.00  0.00    -0.353 N 
HETATM    8  C   UNL     1      39.653 -15.082   2.178  1.00  0.00     0.249 C 
HETATM    9  O   UNL     1      38.505 -15.206   1.757  1.00  0.00    -0.271 OA
HETATM   10  C   UNL     1      43.646 -14.190   3.724  1.00  0.00     0.035 C 
HETATM   11  C   UNL     1      43.834 -14.346   5.236  1.00  0.00     0.002 C 
HETATM   12  C   UNL     1      42.601 -13.903   6.027  1.00  0.00     0.002 C 
HETATM   13  C   UNL     1      41.305 -14.540   5.517  1.00  0.00     0.027 C 
HETATM   14  H   UNL     1      39.042 -14.694   4.051  1.00  0.00     0.163 HD
ENDROOT
BRANCH   1  15
HETATM   15  C   UNL     1      40.979 -16.792   0.845  1.00  0.00     0.146 C 
BRANCH  15  16
HETATM   16  C   UNL     1      42.295 -17.397   1.284  1.00  0.00     0.224 C 
HETATM   17  N   UNL     1      42.182 -18.282   2.336  1.00  0.00    -0.327 N 
HETATM   18  H   UNL     1      41.258 -18.630   2.578  1.00  0.00     0.169 HD
HETATM   19  O   UNL     1      43.330 -16.995   0.765  1.00  0.00    -0.273 OA
BRANCH  17  20
HETATM   20  C   UNL     1      43.217 -18.726   3.190  1.00  0.00     0.036 A 
HETATM   21  C   UNL     1      43.599 -18.066   4.359  1.00  0.00     0.053 A 
HETATM   22  C   UNL     1      44.575 -18.624   5.189  1.00  0.00     0.036 A 
HETATM   23  C   UNL     1      45.190 -19.829   4.858  1.00  0.00     0.024 A 
HETATM   24 CL   UNL     1      45.000 -17.824   6.653  1.00  0.00    -0.084 Cl
HETATM   25  C   UNL     1      44.824 -20.485   3.686  1.00  0.00     0.004 A 
HETATM   26  C   UNL     1      43.838 -19.938   2.859  1.00  0.00     0.029 A 
ENDBRANCH  17  20
ENDBRANCH  15  16
ENDBRANCH   1  15
TORSDOF 3
ENDMDL
MODEL 5
REMARK VINA RESULT:      -7.7      3.144      7.323
REMARK  3 active torsions:
REMARK  status: ('A' for Active; 'I' for Inactive)
REMARK    1  A    between atoms: C_6  and  N_7 
REMARK       I    between atoms: N_7  and  C_8 
REMARK    2  A    between atoms: C_8  and  C_9 
REMARK    3  A    between atoms: C_9  and  C_10 
ROOT
HETATM    1  C   UNL     1      40.919 -15.851   2.990  1.00  0.00     0.286 C 
HETATM    2  N   UNL     1      41.035 -16.034   1.473  1.00  0.00    -0.056 N 
HETATM    3  H   UNL     1      41.772 -16.719   1.255  1.00  0.00     0.278 HD
HETATM    4  H   UNL     1      40.153 -16.446   1.138  1.00  0.00     0.278 HD
HETATM    5  C   UNL     1      41.295 -14.766   0.707  1.00  0.00     0.209 C 
HETATM    6  C   UNL     1      40.249 -13.702   1.098  1.00  0.00     0.115 C 
HETATM    7  N   UNL     1      40.147 -13.521   2.537  1.00  0.00    -0.353 N 
HETATM    8  C   UNL     1      40.198 -14.562   3.428  1.00  0.00     0.249 C 
HETATM    9  O   UNL     1      39.781 -14.427   4.576  1.00  0.00    -0.271 OA
HETATM   10  C   UNL     1      41.239 -15.042  -0.793  1.00  0.00     0.035 C 
HETATM   11  C   UNL     1      41.516 -13.752  -1.570  1.00  0.00     0.002 C 
HETATM   12  C   UNL     1      40.599 -12.604  -1.144  1.00  0.00     0.002 C 
HETATM   13  C   UNL     1      40.570 -12.394   0.373  1.00  0.00     0.027 C 
HETATM   14  H   UNL     1      39.645 -12.708   2.890  1.00  0.00     0.163 HD
ENDROOT
BRANCH   1  15
HETATM   15  C   UNL     1      42.271 -16.007   3.699  1.00  0.00     0.146 C 
BRANCH  15  16
HETATM   16  C   UNL     1      42.554 -17.452   4.051  1.00  0.00     0.224 C 
HETATM   17  N   UNL     1      43.644 -17.984   3.396  1.00  0.00    -0.327 N 
HETATM   18  H   UNL     1      44.288 -17.348   2.931  1.00  0.00     0.169 HD
HETATM   19  O   UNL     1      41.767 -18.045   4.778  1.00  0.00    -0.273 OA
BRANCH  17  20
HETATM   20  C   UNL     1      43.950 -19.354   3.226  1.00  0.00     0.036 A 
HETATM   21  C   UNL     1      44.533 -20.150   4.213  1.00  0.00     0.053 A 
HETATM   22  C   UNL     1      44.719 -21.517   3.988  1.00  0.00     0.036 A 
HETATM   23  C   UNL     1      44.344 -22.099   2.779  1.00  0.00     0.024 A 
HETATM   24 CL   UNL     1      45.393 -22.496   5.233  1.00  0.00    -0.084 Cl
HETATM   25  C   UNL     1      43.775 -21.307   1.786  1.00  0.00     0.004 A 
HETATM   26  C   UNL     1      43.574 -19.943   2.011  1.00  0.00     0.029 A 
ENDBRANCH  17  20
ENDBRANCH  15  16
ENDBRANCH   1  15
TORSDOF 3
ENDMDL
MODEL 6
REMARK VINA RESULT:      -7.7      3.388      7.566
REMARK  3 active torsions:
REMARK  status: ('A' for Active; 'I' for Inactive)
REMARK    1  A    between atoms: C_6  and  N_7 
REMARK       I    between atoms: N_7  and  C_8 
REMARK    2  A    between atoms: C_8  and  C_9 
REMARK    3  A    between atoms: C_9  and  C_10 
ROOT
HETATM    1  C   UNL     1      42.062 -15.926   2.362  1.00  0.00     0.286 C 
HETATM    2  N   UNL     1      42.338 -14.430   2.176  1.00  0.00    -0.056 N 
HETATM    3  H   UNL     1      42.804 -14.050   3.011  1.00  0.00     0.278 HD
HETATM    4  H   UNL     1      43.007 -14.327   1.401  1.00  0.00     0.278 HD
HETATM    5  C   UNL     1      41.119 -13.601   1.871  1.00  0.00     0.209 C 
HETATM    6  C   UNL     1      40.361 -14.218   0.677  1.00  0.00     0.115 C 
HETATM    7  N   UNL     1      40.091 -15.635   0.858  1.00  0.00    -0.353 N 
HETATM    8  C   UNL     1      40.993 -16.505   1.414  1.00  0.00     0.249 C 
HETATM    9  O   UNL     1      40.881 -17.717   1.249  1.00  0.00    -0.271 OA
HETATM   10  C   UNL     1      41.530 -12.166   1.557  1.00  0.00     0.035 C 
HETATM   11  C   UNL     1      40.287 -11.323   1.259  1.00  0.00     0.002 C 
HETATM   12  C   UNL     1      39.410 -11.940   0.167  1.00  0.00     0.002 C 
HETATM   13  C   UNL     1      39.084 -13.413   0.426  1.00  0.00     0.027 C 
HETATM   14  H   UNL     1      39.424 -16.086   0.234  1.00  0.00     0.163 HD
ENDROOT
BRANCH   1  15
HETATM   15  C   UNL     1      41.769 -16.286   3.824  1.00  0.00     0.146 C 
BRANCH  15  16
HETATM   16  C   UNL     1      42.236 -17.687   4.158  1.00  0.00     0.224 C 
HETATM   17  N   UNL     1      43.316 -18.110   3.412  1.00  0.00    -0.327 N 
HETATM   18  H   UNL     1      43.844 -17.417   2.888  1.00  0.00     0.169 HD
HETATM   19  O   UNL     1      41.584 -18.350   4.956  1.00  0.00    -0.273 OA
BRANCH  17  20
HETATM   20  C   UNL     1      43.750 -19.442   3.224  1.00  0.00     0.036 A 
HETATM   21  C   UNL     1      44.383 -20.201   4.210  1.00  0.00     0.053 A 
HETATM   22  C   UNL     1      44.700 -21.540   3.964  1.00  0.00     0.036 A 
HETATM   23  C   UNL     1      44.408 -22.129   2.736  1.00  0.00     0.024 A 
HETATM   24 CL   UNL     1      45.434 -22.478   5.207  1.00  0.00    -0.084 Cl
HETATM   25  C   UNL     1      43.790 -21.373   1.744  1.00  0.00     0.004 A 
HETATM   26  C   UNL     1      43.458 -20.038   1.990  1.00  0.00     0.029 A 
ENDBRANCH  17  20
ENDBRANCH  15  16
ENDBRANCH   1  15
TORSDOF 3
ENDMDL
MODEL 7
REMARK VINA RESULT:      -7.7      1.482      1.862
REMARK  3 active torsions:
REMARK  status: ('A' for Active; 'I' for Inactive)
REMARK    1  A    between atoms: C_6  and  N_7 
REMARK       I    between atoms: N_7  and  C_8 
REMARK    2  A    between atoms: C_8  and  C_9 
REMARK    3  A    between atoms: C_9  and  C_10 
ROOT
HETATM    1  C   UNL     1      43.587 -17.436   4.214  1.00  0.00     0.286 C 
HETATM    2  N   UNL     1      43.964 -18.459   3.136  1.00  0.00    -0.056 N 
HETATM    3  H   UNL     1      43.357 -18.343   2.313  1.00  0.00     0.278 HD
HETATM    4  H   UNL     1      44.920 -18.245   2.820  1.00  0.00     0.278 HD
HETATM    5  C   UNL     1      43.916 -19.893   3.589  1.00  0.00     0.209 C 
HETATM    6  C   UNL     1      44.748 -20.055   4.878  1.00  0.00     0.115 C 
HETATM    7  N   UNL     1      44.383 -19.091   5.904  1.00  0.00    -0.353 N 
HETATM    8  C   UNL     1      44.089 -17.781   5.630  1.00  0.00     0.249 C 
HETATM    9  O   UNL     1      44.117 -16.932   6.517  1.00  0.00    -0.271 OA
HETATM   10  C   UNL     1      44.452 -20.805   2.490  1.00  0.00     0.035 C 
HETATM   11  C   UNL     1      44.391 -22.264   2.949  1.00  0.00     0.002 C 
HETATM   12  C   UNL     1      45.087 -22.484   4.294  1.00  0.00     0.002 C 
HETATM   13  C   UNL     1      44.628 -21.498   5.372  1.00  0.00     0.027 C 
HETATM   14  H   UNL     1      44.720 -19.242   6.853  1.00  0.00     0.163 HD
ENDROOT
BRANCH   1  15
HETATM   15  C   UNL     1      42.087 -17.115   4.213  1.00  0.00     0.146 C 
BRANCH  15  16
HETATM   16  C   UNL     1      41.595 -16.750   2.828  1.00  0.00     0.224 C 
HETATM   17  N   UNL     1      41.169 -15.444   2.712  1.00  0.00    -0.327 N 
HETATM   18  H   UNL     1      41.416 -14.786   3.448  1.00  0.00     0.169 HD
HETATM   19  O   UNL     1      41.518 -17.630   1.980  1.00  0.00    -0.273 OA
BRANCH  17  20
HETATM   20  C   UNL     1      40.345 -14.905   1.698  1.00  0.00     0.036 A 
HETATM   21  C   UNL     1      40.794 -14.594   0.413  1.00  0.00     0.053 A 
HETATM   22  C   UNL     1      39.888 -14.146  -0.553  1.00  0.00     0.036 A 
HETATM   23  C   UNL     1      38.539 -13.989  -0.248  1.00  0.00     0.024 A 
HETATM   24 CL   UNL     1      40.446 -13.815  -2.147  1.00  0.00    -0.084 Cl
HETATM   25  C   UNL     1      38.088 -14.283   1.035  1.00  0.00     0.004 A 
HETATM   26  C   UNL     1      38.986 -14.745   2.001  1.00  0.00     0.029 A 
ENDBRANCH  17  20
ENDBRANCH  15  16
ENDBRANCH   1  15
TORSDOF 3
ENDMDL
MODEL 8
REMARK VINA RESULT:      -7.7      2.404      3.179
REMARK  3 active torsions:
REMARK  status: ('A' for Active; 'I' for Inactive)
REMARK    1  A    between atoms: C_6  and  N_7 
REMARK       I    between atoms: N_7  and  C_8 
REMARK    2  A    between atoms: C_8  and  C_9 
REMARK    3  A    between atoms: C_9  and  C_10 
ROOT
HETATM    1  C   UNL     1      42.727 -17.210   2.186  1.00  0.00     0.286 C 
HETATM    2  N   UNL     1      43.349 -18.528   1.712  1.00  0.00    -0.056 N 
HETATM    3  H   UNL     1      42.793 -18.922   0.940  1.00  0.00     0.278 HD
HETATM    4  H   UNL     1      44.276 -18.316   1.319  1.00  0.00     0.278 HD
HETATM    5  C   UNL     1      43.509 -19.568   2.788  1.00  0.00     0.209 C 
HETATM    6  C   UNL     1      44.260 -18.957   3.988  1.00  0.00     0.115 C 
HETATM    7  N   UNL     1      43.665 -17.712   4.445  1.00  0.00    -0.353 N 
HETATM    8  C   UNL     1      43.175 -16.758   3.591  1.00  0.00     0.249 C 
HETATM    9  O   UNL     1      42.995 -15.605   3.973  1.00  0.00    -0.271 OA
HETATM   10  C   UNL     1      44.271 -20.772   2.239  1.00  0.00     0.035 C 
HETATM   11  C   UNL     1      44.422 -21.833   3.332  1.00  0.00     0.002 C 
HETATM   12  C   UNL     1      45.045 -21.270   4.612  1.00  0.00     0.002 C 
HETATM   13  C   UNL     1      44.349 -19.999   5.105  1.00  0.00     0.027 C 
HETATM   14  H   UNL     1      43.951 -17.338   5.348  1.00  0.00     0.163 HD
ENDROOT
BRANCH   1  15
HETATM   15  C   UNL     1      41.199 -17.207   2.057  1.00  0.00     0.146 C 
BRANCH  15  16
HETATM   16  C   UNL     1      40.720 -16.116   1.123  1.00  0.00     0.224 C 
HETATM   17  N   UNL     1      41.145 -16.268  -0.180  1.00  0.00    -0.327 N 
HETATM   18  H   UNL     1      41.528 -17.167  -0.463  1.00  0.00     0.169 HD
HETATM   19  O   UNL     1      40.105 -15.166   1.593  1.00  0.00    -0.273 OA
BRANCH  17  20
HETATM   20  C   UNL     1      41.179 -15.275  -1.185  1.00  0.00     0.036 A 
HETATM   21  C   UNL     1      41.776 -14.023  -1.023  1.00  0.00     0.053 A 
HETATM   22  C   UNL     1      41.838 -13.135  -2.101  1.00  0.00     0.036 A 
HETATM   23  C   UNL     1      41.297 -13.475  -3.338  1.00  0.00     0.024 A 
HETATM   24 CL   UNL     1      42.623 -11.616  -1.901  1.00  0.00    -0.084 Cl
HETATM   25  C   UNL     1      40.688 -14.716  -3.502  1.00  0.00     0.004 A 
HETATM   26  C   UNL     1      40.635 -15.613  -2.432  1.00  0.00     0.029 A 
ENDBRANCH  17  20
ENDBRANCH  15  16
ENDBRANCH   1  15
TORSDOF 3
ENDMDL
MODEL 9
REMARK VINA RESULT:      -7.6      3.331      7.382
REMARK  3 active torsions:
REMARK  status: ('A' for Active; 'I' for Inactive)
REMARK    1  A    between atoms: C_6  and  N_7 
REMARK       I    between atoms: N_7  and  C_8 
REMARK    2  A    between atoms: C_8  and  C_9 
REMARK    3  A    between atoms: C_9  and  C_10 
ROOT
HETATM    1  C   UNL     1      42.418 -15.219   3.520  1.00  0.00     0.286 C 
HETATM    2  N   UNL     1      41.022 -15.661   3.067  1.00  0.00    -0.056 N 
HETATM    3  H   UNL     1      41.074 -16.581   2.610  1.00  0.00     0.278 HD
HETATM    4  H   UNL     1      40.445 -15.791   3.910  1.00  0.00     0.278 HD
HETATM    5  C   UNL     1      40.324 -14.692   2.152  1.00  0.00     0.209 C 
HETATM    6  C   UNL     1      40.323 -13.287   2.790  1.00  0.00     0.115 C 
HETATM    7  N   UNL     1      41.650 -12.864   3.210  1.00  0.00    -0.353 N 
HETATM    8  C   UNL     1      42.554 -13.709   3.798  1.00  0.00     0.249 C 
HETATM    9  O   UNL     1      43.507 -13.265   4.434  1.00  0.00    -0.271 OA
HETATM   10  C   UNL     1      38.895 -15.159   1.891  1.00  0.00     0.035 C 
HETATM   11  C   UNL     1      38.191 -14.178   0.950  1.00  0.00     0.002 C 
HETATM   12  C   UNL     1      38.260 -12.733   1.452  1.00  0.00     0.002 C 
HETATM   13  C   UNL     1      39.682 -12.297   1.817  1.00  0.00     0.027 C 
HETATM   14  H   UNL     1      41.794 -11.884   3.449  1.00  0.00     0.163 HD
ENDROOT
BRANCH   1  15
HETATM   15  C   UNL     1      43.520 -15.717   2.575  1.00  0.00     0.146 C 
BRANCH  15  16
HETATM   16  C   UNL     1      43.339 -17.179   2.229  1.00  0.00     0.224 C 
HETATM   17  N   UNL     1      43.702 -18.043   3.241  1.00  0.00    -0.327 N 
HETATM   18  H   UNL     1      43.834 -17.666   4.176  1.00  0.00     0.169 HD
HETATM   19  O   UNL     1      42.998 -17.477   1.091  1.00  0.00    -0.273 OA
BRANCH  17  20
HETATM   20  C   UNL     1      43.991 -19.422   3.120  1.00  0.00     0.036 A 
HETATM   21  C   UNL     1      44.555 -20.192   4.138  1.00  0.00     0.053 A 
HETATM   22  C   UNL     1      44.724 -21.568   3.960  1.00  0.00     0.036 A 
HETATM   23  C   UNL     1      44.352 -22.185   2.769  1.00  0.00     0.024 A 
HETATM   24 CL   UNL     1      45.375 -22.513   5.243  1.00  0.00    -0.084 Cl
HETATM   25  C   UNL     1      43.802 -21.420   1.744  1.00  0.00     0.004 A 
HETATM   26  C   UNL     1      43.617 -20.046   1.922  1.00  0.00     0.029 A 
ENDBRANCH  17  20
ENDBRANCH  15  16
ENDBRANCH   1  15
TORSDOF 3
ENDMDL
MODEL 10
REMARK VINA RESULT:      -7.6      1.736      2.262
REMARK  3 active torsions:
REMARK  status: ('A' for Active; 'I' for Inactive)
REMARK    1  A    between atoms: C_6  and  N_7 
REMARK       I    between atoms: N_7  and  C_8 
REMARK    2  A    between atoms: C_8  and  C_9 
REMARK    3  A    between atoms: C_9  and  C_10 
ROOT
HETATM    1  C   UNL     1      42.312 -15.853   5.703  1.00  0.00     0.286 C 
HETATM    2  N   UNL     1      42.997 -15.655   4.346  1.00  0.00    -0.056 N 
HETATM    3  H   UNL     1      42.556 -14.875   3.839  1.00  0.00     0.278 HD
HETATM    4  H   UNL     1      43.970 -15.369   4.523  1.00  0.00     0.278 HD
HETATM    5  C   UNL     1      43.008 -16.875   3.465  1.00  0.00     0.209 C 
HETATM    6  C   UNL     1      43.581 -18.073   4.249  1.00  0.00     0.115 C 
HETATM    7  N   UNL     1      42.924 -18.267   5.532  1.00  0.00    -0.353 N 
HETATM    8  C   UNL     1      42.557 -17.231   6.350  1.00  0.00     0.249 C 
HETATM    9  O   UNL     1      42.322 -17.423   7.540  1.00  0.00    -0.271 OA
HETATM   10  C   UNL     1      43.841 -16.607   2.215  1.00  0.00     0.035 C 
HETATM   11  C   UNL     1      43.841 -17.846   1.315  1.00  0.00     0.002 C 
HETATM   12  C   UNL     1      44.277 -19.111   2.059  1.00  0.00     0.002 C 
HETATM   13  C   UNL     1      43.514 -19.323   3.370  1.00  0.00     0.027 C 
HETATM   14  H   UNL     1      43.080 -19.142   6.030  1.00  0.00     0.163 HD
ENDROOT
BRANCH   1  15
HETATM   15  C   UNL     1      40.817 -15.514   5.654  1.00  0.00     0.146 C 
BRANCH  15  16
HETATM   16  C   UNL     1      40.481 -14.641   4.464  1.00  0.00     0.224 C 
HETATM   17  N   UNL     1      39.753 -15.284   3.486  1.00  0.00    -0.327 N 
HETATM   18  H   UNL     1      39.313 -16.172   3.714  1.00  0.00     0.169 HD
HETATM   19  O   UNL     1      40.949 -13.509   4.413  1.00  0.00    -0.273 OA
BRANCH  17  20
HETATM   20  C   UNL     1      39.595 -14.881   2.140  1.00  0.00     0.036 A 
HETATM   21  C   UNL     1      38.569 -14.048   1.691  1.00  0.00     0.053 A 
HETATM   22  C   UNL     1      38.542 -13.632   0.357  1.00  0.00     0.036 A 
HETATM   23  C   UNL     1      39.519 -14.050  -0.542  1.00  0.00     0.024 A 
HETATM   24 CL   UNL     1      37.299 -12.563  -0.170  1.00  0.00    -0.084 Cl
HETATM   25  C   UNL     1      40.537 -14.892  -0.104  1.00  0.00     0.004 A 
HETATM   26  C   UNL     1      40.577 -15.301   1.232  1.00  0.00     0.029 A 
ENDBRANCH  17  20
ENDBRANCH  15  16
ENDBRANCH   1  15
TORSDOF 3
ENDMDL
