MODEL 1
REMARK VINA RESULT:      -9.8      0.000      0.000
REMARK  7 active torsions:
REMARK  status: ('A' for Active; 'I' for Inactive)
REMARK    1  A    between atoms: C_2  and  O_3 
REMARK    2  A    between atoms: O_3  and  C_4 
REMARK    3  A    between atoms: C_5  and  O_6 
REMARK    4  A    between atoms: C_7  and  C_8 
REMARK    5  A    between atoms: N_9  and  N_10 
REMARK       I    between atoms: N_10  and  C_11 
REMARK    6  A    between atoms: C_11  and  C_12 
REMARK    7  A    between atoms: C_16  and  C_17 
ROOT
HETATM    1  C   UNL     1      42.469 -13.307   5.271  1.00  0.00     0.121 A 
HETATM    2  N   UNL     1      42.845 -12.901   4.021  1.00  0.00    -0.272 N 
HETATM    3  H   UNL     1      42.872 -11.945   3.678  1.00  0.00     0.189 HD
HETATM    4  N   UNL     1      43.162 -13.902   3.189  1.00  0.00    -0.174 NA
HETATM    5  C   UNL     1      43.023 -15.016   3.923  1.00  0.00     0.090 A 
HETATM    6  C   UNL     1      42.610 -14.680   5.247  1.00  0.00     0.071 A 
ENDROOT
BRANCH   1   7
HETATM    7  C   UNL     1      42.020 -12.356   6.258  1.00  0.00     0.289 C 
HETATM    8  N   UNL     1      42.949 -12.063   7.244  1.00  0.00    -0.242 N 
HETATM    9  H   UNL     1      43.858 -12.507   7.237  1.00  0.00     0.192 HD
HETATM   10  O   UNL     1      40.883 -11.892   6.217  1.00  0.00    -0.264 OA
BRANCH   8  11
HETATM   11  N   UNL     1      42.578 -11.344   8.343  1.00  0.00    -0.183 NA
HETATM   12  C   UNL     1      43.252 -11.589   9.422  1.00  0.00     0.153 C 
BRANCH  12  13
HETATM   13  C   UNL     1      42.918 -10.945  10.707  1.00  0.00     0.019 A 
HETATM   14  C   UNL     1      41.588 -10.853  11.120  1.00  0.00     0.110 A 
HETATM   15  C   UNL     1      41.249 -10.194  12.310  1.00  0.00     0.102 A 
HETATM   16  C   UNL     1      42.261  -9.645  13.100  1.00  0.00     0.040 A 
HETATM   17  C   UNL     1      43.596  -9.744  12.694  1.00  0.00     0.004 A 
HETATM   18  C   UNL     1      43.926 -10.388  11.500  1.00  0.00     0.016 A 
BRANCH  14  19
HETATM   19  O   UNL     1      40.583 -11.394  10.358  1.00  0.00    -0.357 OA
HETATM   20  H   UNL     1      40.971 -12.200   9.961  1.00  0.00     0.218 HD
ENDBRANCH  14  19
BRANCH  15  21
HETATM   21  O   UNL     1      39.905 -10.160  12.586  1.00  0.00    -0.349 OA
BRANCH  21  22
HETATM   22  C   UNL     1      39.281  -8.874  12.563  1.00  0.00     0.171 C 
HETATM   23  C   UNL     1      37.901  -9.039  11.952  1.00  0.00     0.034 C 
ENDBRANCH  21  22
ENDBRANCH  15  21
ENDBRANCH  12  13
ENDBRANCH   8  11
ENDBRANCH   1   7
BRANCH   5  24
HETATM   24  C   UNL     1      43.220 -16.362   3.368  1.00  0.00     0.005 A 
HETATM   25  C   UNL     1      43.720 -17.452   4.143  1.00  0.00    -0.012 A 
HETATM   26  C   UNL     1      43.876 -18.643   3.475  1.00  0.00    -0.012 A 
HETATM   27  C   UNL     1      44.078 -17.494   5.516  1.00  0.00     0.013 A 
HETATM   28  C   UNL     1      44.356 -19.807   4.048  1.00  0.00    -0.046 A 
HETATM   29  C   UNL     1      43.576 -18.835   2.139  1.00  0.00    -0.046 A 
HETATM   30  C   UNL     1      44.721 -19.857   5.385  1.00  0.00     0.008 A 
HETATM   31  C   UNL     1      44.409 -20.901   3.041  1.00  0.00     0.044 A 
HETATM   32  C   UNL     1      44.569 -18.672   6.115  1.00  0.00     0.001 A 
HETATM   33  C   UNL     1      43.867 -20.239   1.737  1.00  0.00     0.044 A 
HETATM   34  C   UNL     1      43.083 -17.805   1.356  1.00  0.00     0.009 A 
HETATM   35  C   UNL     1      42.914 -16.565   1.993  1.00  0.00     0.015 A 
ENDBRANCH   5  24
TORSDOF 7
ENDMDL
MODEL 2
REMARK VINA RESULT:      -9.6      1.239      1.843
REMARK  7 active torsions:
REMARK  status: ('A' for Active; 'I' for Inactive)
REMARK    1  A    between atoms: C_2  and  O_3 
REMARK    2  A    between atoms: O_3  and  C_4 
REMARK    3  A    between atoms: C_5  and  O_6 
REMARK    4  A    between atoms: C_7  and  C_8 
REMARK    5  A    between atoms: N_9  and  N_10 
REMARK       I    between atoms: N_10  and  C_11 
REMARK    6  A    between atoms: C_11  and  C_12 
REMARK    7  A    between atoms: C_16  and  C_17 
ROOT
HETATM    1  C   UNL     1      42.012 -13.932   5.078  1.00  0.00     0.121 A 
HETATM    2  N   UNL     1      43.059 -13.543   4.289  1.00  0.00    -0.272 N 
HETATM    3  H   UNL     1      43.410 -12.596   4.173  1.00  0.00     0.189 HD
HETATM    4  N   UNL     1      43.619 -14.537   3.586  1.00  0.00    -0.174 NA
HETATM    5  C   UNL     1      42.940 -15.636   3.946  1.00  0.00     0.090 A 
HETATM    6  C   UNL     1      41.935 -15.300   4.902  1.00  0.00     0.071 A 
ENDROOT
BRANCH   1   7
HETATM    7  C   UNL     1      41.252 -12.968   5.833  1.00  0.00     0.289 C 
HETATM    8  N   UNL     1      42.017 -12.078   6.572  1.00  0.00    -0.242 N 
HETATM    9  H   UNL     1      43.027 -12.139   6.557  1.00  0.00     0.192 HD
HETATM   10  O   UNL     1      40.023 -12.988   5.828  1.00  0.00    -0.264 OA
BRANCH   8  11
HETATM   11  N   UNL     1      41.421 -11.257   7.484  1.00  0.00    -0.183 NA
HETATM   12  C   UNL     1      42.204 -10.787   8.403  1.00  0.00     0.153 C 
BRANCH  12  13
HETATM   13  C   UNL     1      41.692  -9.946   9.502  1.00  0.00     0.019 A 
HETATM   14  C   UNL     1      41.699 -10.424  10.813  1.00  0.00     0.110 A 
HETATM   15  C   UNL     1      41.163  -9.661  11.860  1.00  0.00     0.102 A 
HETATM   16  C   UNL     1      40.637  -8.397  11.585  1.00  0.00     0.040 A 
HETATM   17  C   UNL     1      40.637  -7.910  10.274  1.00  0.00     0.004 A 
HETATM   18  C   UNL     1      41.159  -8.681   9.234  1.00  0.00     0.016 A 
BRANCH  14  19
HETATM   19  O   UNL     1      42.218 -11.662  11.100  1.00  0.00    -0.357 OA
HETATM   20  H   UNL     1      41.894 -12.245  10.384  1.00  0.00     0.218 HD
ENDBRANCH  14  19
BRANCH  15  21
HETATM   21  O   UNL     1      41.216 -10.259  13.094  1.00  0.00    -0.349 OA
BRANCH  21  22
HETATM   22  C   UNL     1      41.759  -9.478  14.160  1.00  0.00     0.171 C 
HETATM   23  C   UNL     1      43.247  -9.314  13.906  1.00  0.00     0.034 C 
ENDBRANCH  21  22
ENDBRANCH  15  21
ENDBRANCH  12  13
ENDBRANCH   8  11
ENDBRANCH   1   7
BRANCH   5  24
HETATM   24  C   UNL     1      43.199 -16.957   3.356  1.00  0.00     0.005 A 
HETATM   25  C   UNL     1      43.690 -18.060   4.119  1.00  0.00    -0.012 A 
HETATM   26  C   UNL     1      43.910 -19.224   3.420  1.00  0.00    -0.012 A 
HETATM   27  C   UNL     1      43.982 -18.140   5.506  1.00  0.00     0.013 A 
HETATM   28  C   UNL     1      44.393 -20.394   3.977  1.00  0.00    -0.046 A 
HETATM   29  C   UNL     1      43.680 -19.377   2.066  1.00  0.00    -0.046 A 
HETATM   30  C   UNL     1      44.694 -20.481   5.328  1.00  0.00     0.008 A 
HETATM   31  C   UNL     1      44.524 -21.451   2.938  1.00  0.00     0.044 A 
HETATM   32  C   UNL     1      44.475 -19.325   6.088  1.00  0.00     0.001 A 
HETATM   33  C   UNL     1      44.027 -20.758   1.632  1.00  0.00     0.044 A 
HETATM   34  C   UNL     1      43.199 -18.333   1.294  1.00  0.00     0.009 A 
HETATM   35  C   UNL     1      42.966 -17.121   1.963  1.00  0.00     0.015 A 
ENDBRANCH   5  24
TORSDOF 7
ENDMDL
MODEL 3
REMARK VINA RESULT:      -9.4      3.025     11.174
REMARK  7 active torsions:
REMARK  status: ('A' for Active; 'I' for Inactive)
REMARK    1  A    between atoms: C_2  and  O_3 
REMARK    2  A    between atoms: O_3  and  C_4 
REMARK    3  A    between atoms: C_5  and  O_6 
REMARK    4  A    between atoms: C_7  and  C_8 
REMARK    5  A    between atoms: N_9  and  N_10 
REMARK       I    between atoms: N_10  and  C_11 
REMARK    6  A    between atoms: C_11  and  C_12 
REMARK    7  A    between atoms: C_16  and  C_17 
ROOT
HETATM    1  C   UNL     1      44.818 -12.473   8.355  1.00  0.00     0.121 A 
HETATM    2  N   UNL     1      45.858 -11.656   8.703  1.00  0.00    -0.272 N 
HETATM    3  H   UNL     1      46.808 -11.701   8.346  1.00  0.00     0.189 HD
HETATM    4  N   UNL     1      45.555 -10.748   9.641  1.00  0.00    -0.174 NA
HETATM    5  C   UNL     1      44.255 -10.946   9.904  1.00  0.00     0.090 A 
HETATM    6  C   UNL     1      43.750 -12.009   9.098  1.00  0.00     0.071 A 
ENDROOT
BRANCH   1   7
HETATM    7  C   UNL     1      45.002 -13.554   7.420  1.00  0.00     0.289 C 
HETATM    8  N   UNL     1      44.021 -14.532   7.466  1.00  0.00    -0.242 N 
HETATM    9  H   UNL     1      43.256 -14.457   8.123  1.00  0.00     0.192 HD
HETATM   10  O   UNL     1      45.984 -13.590   6.681  1.00  0.00    -0.264 OA
BRANCH   8  11
HETATM   11  N   UNL     1      44.189 -15.702   6.783  1.00  0.00    -0.183 NA
HETATM   12  C   UNL     1      43.508 -15.807   5.685  1.00  0.00     0.153 C 
BRANCH  12  13
HETATM   13  C   UNL     1      43.527 -17.041   4.877  1.00  0.00     0.019 A 
HETATM   14  C   UNL     1      44.371 -18.096   5.228  1.00  0.00     0.110 A 
HETATM   15  C   UNL     1      44.443 -19.253   4.439  1.00  0.00     0.102 A 
HETATM   16  C   UNL     1      43.641 -19.354   3.300  1.00  0.00     0.040 A 
HETATM   17  C   UNL     1      42.787 -18.304   2.950  1.00  0.00     0.004 A 
HETATM   18  C   UNL     1      42.731 -17.148   3.733  1.00  0.00     0.016 A 
BRANCH  14  19
HETATM   19  O   UNL     1      45.160 -18.013   6.348  1.00  0.00    -0.357 OA
HETATM   20  H   UNL     1      44.537 -18.063   7.102  1.00  0.00     0.218 HD
ENDBRANCH  14  19
BRANCH  15  21
HETATM   21  O   UNL     1      45.327 -20.202   4.888  1.00  0.00    -0.349 OA
BRANCH  21  22
HETATM   22  C   UNL     1      44.787 -21.494   5.175  1.00  0.00     0.171 C 
HETATM   23  C   UNL     1      43.984 -21.387   6.459  1.00  0.00     0.034 C 
ENDBRANCH  21  22
ENDBRANCH  15  21
ENDBRANCH  12  13
ENDBRANCH   8  11
ENDBRANCH   1   7
BRANCH   5  24
HETATM   24  C   UNL     1      43.530 -10.188  10.933  1.00  0.00     0.005 A 
HETATM   25  C   UNL     1      42.370  -9.407  10.643  1.00  0.00    -0.012 A 
HETATM   26  C   UNL     1      41.819  -8.732  11.706  1.00  0.00    -0.012 A 
HETATM   27  C   UNL     1      41.689  -9.225   9.410  1.00  0.00     0.013 A 
HETATM   28  C   UNL     1      40.704  -7.917  11.624  1.00  0.00    -0.046 A 
HETATM   29  C   UNL     1      42.308  -8.776  12.998  1.00  0.00    -0.046 A 
HETATM   30  C   UNL     1      40.038  -7.721  10.424  1.00  0.00     0.008 A 
HETATM   31  C   UNL     1      40.387  -7.333  12.955  1.00  0.00     0.044 A 
HETATM   32  C   UNL     1      40.553  -8.398   9.311  1.00  0.00     0.001 A 
HETATM   33  C   UNL     1      41.478  -7.928  13.898  1.00  0.00     0.044 A 
HETATM   34  C   UNL     1      43.425  -9.527  13.321  1.00  0.00     0.009 A 
HETATM   35  C   UNL     1      44.028 -10.229  12.264  1.00  0.00     0.015 A 
ENDBRANCH   5  24
TORSDOF 7
ENDMDL
MODEL 4
REMARK VINA RESULT:      -9.3      7.267     10.267
REMARK  7 active torsions:
REMARK  status: ('A' for Active; 'I' for Inactive)
REMARK    1  A    between atoms: C_2  and  O_3 
REMARK    2  A    between atoms: O_3  and  C_4 
REMARK    3  A    between atoms: C_5  and  O_6 
REMARK    4  A    between atoms: C_7  and  C_8 
REMARK    5  A    between atoms: N_9  and  N_10 
REMARK       I    between atoms: N_10  and  C_11 
REMARK    6  A    between atoms: C_11  and  C_12 
REMARK    7  A    between atoms: C_16  and  C_17 
ROOT
HETATM    1  C   UNL     1      41.378 -15.848   0.286  1.00  0.00     0.121 A 
HETATM    2  N   UNL     1      40.253 -16.239   0.959  1.00  0.00    -0.272 N 
HETATM    3  H   UNL     1      39.296 -15.975   0.742  1.00  0.00     0.189 HD
HETATM    4  N   UNL     1      40.491 -17.012   2.027  1.00  0.00    -0.174 NA
HETATM    5  C   UNL     1      41.823 -17.169   2.047  1.00  0.00     0.090 A 
HETATM    6  C   UNL     1      42.415 -16.470   0.953  1.00  0.00     0.071 A 
ENDROOT
BRANCH   1   7
HETATM    7  C   UNL     1      41.297 -14.948  -0.837  1.00  0.00     0.289 C 
HETATM    8  N   UNL     1      41.891 -13.712  -0.632  1.00  0.00    -0.242 N 
HETATM    9  H   UNL     1      42.333 -13.499   0.253  1.00  0.00     0.192 HD
HETATM   10  O   UNL     1      40.707 -15.271  -1.865  1.00  0.00    -0.264 OA
BRANCH   8  11
HETATM   11  N   UNL     1      41.705 -12.705  -1.533  1.00  0.00    -0.183 NA
HETATM   12  C   UNL     1      42.668 -11.841  -1.609  1.00  0.00     0.153 C 
BRANCH  12  13
HETATM   13  C   UNL     1      42.579 -10.656  -2.483  1.00  0.00     0.019 A 
HETATM   14  C   UNL     1      42.394 -10.810  -3.857  1.00  0.00     0.110 A 
HETATM   15  C   UNL     1      42.364  -9.696  -4.709  1.00  0.00     0.102 A 
HETATM   16  C   UNL     1      42.498  -8.417  -4.166  1.00  0.00     0.040 A 
HETATM   17  C   UNL     1      42.673  -8.257  -2.788  1.00  0.00     0.004 A 
HETATM   18  C   UNL     1      42.717  -9.372  -1.947  1.00  0.00     0.016 A 
BRANCH  14  19
HETATM   19  O   UNL     1      42.254 -12.061  -4.405  1.00  0.00    -0.357 OA
HETATM   20  H   UNL     1      41.673 -12.547  -3.784  1.00  0.00     0.218 HD
ENDBRANCH  14  19
BRANCH  15  21
HETATM   21  O   UNL     1      42.197  -9.993  -6.038  1.00  0.00    -0.349 OA
BRANCH  21  22
HETATM   22  C   UNL     1      41.202  -9.244  -6.740  1.00  0.00     0.171 C 
HETATM   23  C   UNL     1      39.871  -9.950  -6.554  1.00  0.00     0.034 C 
ENDBRANCH  21  22
ENDBRANCH  15  21
ENDBRANCH  12  13
ENDBRANCH   8  11
ENDBRANCH   1   7
BRANCH   5  24
HETATM   24  C   UNL     1      42.517 -17.912   3.108  1.00  0.00     0.005 A 
HETATM   25  C   UNL     1      43.143 -19.176   2.882  1.00  0.00    -0.012 A 
HETATM   26  C   UNL     1      43.728 -19.762   3.980  1.00  0.00    -0.012 A 
HETATM   27  C   UNL     1      43.259 -19.925   1.681  1.00  0.00     0.013 A 
HETATM   28  C   UNL     1      44.371 -20.986   3.966  1.00  0.00    -0.046 A 
HETATM   29  C   UNL     1      43.749 -19.204   5.245  1.00  0.00    -0.046 A 
HETATM   30  C   UNL     1      44.480 -21.733   2.802  1.00  0.00     0.008 A 
HETATM   31  C   UNL     1      44.876 -21.326   5.324  1.00  0.00     0.044 A 
HETATM   32  C   UNL     1      43.911 -21.174   1.651  1.00  0.00     0.001 A 
HETATM   33  C   UNL     1      44.458 -20.103   6.197  1.00  0.00     0.044 A 
HETATM   34  C   UNL     1      43.159 -17.979   5.502  1.00  0.00     0.009 A 
HETATM   35  C   UNL     1      42.541 -17.345   4.412  1.00  0.00     0.015 A 
ENDBRANCH   5  24
TORSDOF 7
ENDMDL
MODEL 5
REMARK VINA RESULT:      -9.0      7.252     11.689
REMARK  7 active torsions:
REMARK  status: ('A' for Active; 'I' for Inactive)
REMARK    1  A    between atoms: C_2  and  O_3 
REMARK    2  A    between atoms: O_3  and  C_4 
REMARK    3  A    between atoms: C_5  and  O_6 
REMARK    4  A    between atoms: C_7  and  C_8 
REMARK    5  A    between atoms: N_9  and  N_10 
REMARK       I    between atoms: N_10  and  C_11 
REMARK    6  A    between atoms: C_11  and  C_12 
REMARK    7  A    between atoms: C_16  and  C_17 
ROOT
HETATM    1  C   UNL     1      40.695 -15.304   0.064  1.00  0.00     0.121 A 
HETATM    2  N   UNL     1      39.739 -15.451   1.030  1.00  0.00    -0.272 N 
HETATM    3  H   UNL     1      38.769 -15.156   0.971  1.00  0.00     0.189 HD
HETATM    4  N   UNL     1      40.184 -16.005   2.166  1.00  0.00    -0.174 NA
HETATM    5  C   UNL     1      41.479 -16.268   1.936  1.00  0.00     0.090 A 
HETATM    6  C   UNL     1      41.833 -15.862   0.614  1.00  0.00     0.071 A 
ENDROOT
BRANCH   1   7
HETATM    7  C   UNL     1      40.396 -14.651  -1.186  1.00  0.00     0.289 C 
HETATM    8  N   UNL     1      39.053 -14.370  -1.384  1.00  0.00    -0.242 N 
HETATM    9  H   UNL     1      38.369 -14.625  -0.683  1.00  0.00     0.192 HD
HETATM   10  O   UNL     1      41.282 -14.412  -2.002  1.00  0.00    -0.264 OA
BRANCH   8  11
HETATM   11  N   UNL     1      38.615 -13.945  -2.605  1.00  0.00    -0.183 NA
HETATM   12  C   UNL     1      37.548 -13.210  -2.588  1.00  0.00     0.153 C 
BRANCH  12  13
HETATM   13  C   UNL     1      36.913 -12.738  -3.834  1.00  0.00     0.019 A 
HETATM   14  C   UNL     1      36.300 -13.648  -4.696  1.00  0.00     0.110 A 
HETATM   15  C   UNL     1      35.742 -13.224  -5.911  1.00  0.00     0.102 A 
HETATM   16  C   UNL     1      35.784 -11.870  -6.246  1.00  0.00     0.040 A 
HETATM   17  C   UNL     1      36.389 -10.953  -5.380  1.00  0.00     0.004 A 
HETATM   18  C   UNL     1      36.955 -11.384  -4.179  1.00  0.00     0.016 A 
BRANCH  14  19
HETATM   19  O   UNL     1      36.246 -14.983  -4.377  1.00  0.00    -0.357 OA
HETATM   20  H   UNL     1      35.303 -15.159  -4.183  1.00  0.00     0.218 HD
ENDBRANCH  14  19
BRANCH  15  21
HETATM   21  O   UNL     1      35.191 -14.225  -6.671  1.00  0.00    -0.349 OA
BRANCH  21  22
HETATM   22  C   UNL     1      35.496 -14.210  -8.067  1.00  0.00     0.171 C 
HETATM   23  C   UNL     1      34.185 -14.120  -8.828  1.00  0.00     0.034 C 
ENDBRANCH  21  22
ENDBRANCH  15  21
ENDBRANCH  12  13
ENDBRANCH   8  11
ENDBRANCH   1   7
BRANCH   5  24
HETATM   24  C   UNL     1      42.368 -16.833   2.960  1.00  0.00     0.005 A 
HETATM   25  C   UNL     1      42.960 -18.127   2.839  1.00  0.00    -0.012 A 
HETATM   26  C   UNL     1      43.746 -18.529   3.894  1.00  0.00    -0.012 A 
HETATM   27  C   UNL     1      42.864 -19.069   1.781  1.00  0.00     0.013 A 
HETATM   28  C   UNL     1      44.394 -19.749   3.968  1.00  0.00    -0.046 A 
HETATM   29  C   UNL     1      43.990 -17.767   5.021  1.00  0.00    -0.046 A 
HETATM   30  C   UNL     1      44.298 -20.682   2.947  1.00  0.00     0.008 A 
HETATM   31  C   UNL     1      45.145 -19.863   5.248  1.00  0.00     0.044 A 
HETATM   32  C   UNL     1      43.518 -20.316   1.843  1.00  0.00     0.001 A 
HETATM   33  C   UNL     1      44.876 -18.504   5.964  1.00  0.00     0.044 A 
HETATM   34  C   UNL     1      43.440 -16.506   5.172  1.00  0.00     0.009 A 
HETATM   35  C   UNL     1      42.623 -16.055   4.123  1.00  0.00     0.015 A 
ENDBRANCH   5  24
TORSDOF 7
ENDMDL
MODEL 6
REMARK VINA RESULT:      -8.9      2.665     11.119
REMARK  7 active torsions:
REMARK  status: ('A' for Active; 'I' for Inactive)
REMARK    1  A    between atoms: C_2  and  O_3 
REMARK    2  A    between atoms: O_3  and  C_4 
REMARK    3  A    between atoms: C_5  and  O_6 
REMARK    4  A    between atoms: C_7  and  C_8 
REMARK    5  A    between atoms: N_9  and  N_10 
REMARK       I    between atoms: N_10  and  C_11 
REMARK    6  A    between atoms: C_11  and  C_12 
REMARK    7  A    between atoms: C_16  and  C_17 
ROOT
HETATM    1  C   UNL     1      39.540 -11.426   7.386  1.00  0.00     0.121 A 
HETATM    2  N   UNL     1      40.061 -10.200   7.078  1.00  0.00    -0.272 N 
HETATM    3  H   UNL     1      40.275  -9.850   6.149  1.00  0.00     0.189 HD
HETATM    4  N   UNL     1      40.338  -9.436   8.143  1.00  0.00    -0.174 NA
HETATM    5  C   UNL     1      39.957 -10.168   9.200  1.00  0.00     0.090 A 
HETATM    6  C   UNL     1      39.428 -11.419   8.763  1.00  0.00     0.071 A 
ENDROOT
BRANCH   1   7
HETATM    7  C   UNL     1      39.264 -12.397   6.357  1.00  0.00     0.289 C 
HETATM    8  N   UNL     1      39.827 -13.645   6.574  1.00  0.00    -0.242 N 
HETATM    9  H   UNL     1      40.384 -13.818   7.400  1.00  0.00     0.192 HD
HETATM   10  O   UNL     1      38.610 -12.095   5.362  1.00  0.00    -0.264 OA
BRANCH   8  11
HETATM   11  N   UNL     1      39.815 -14.583   5.582  1.00  0.00    -0.183 NA
HETATM   12  C   UNL     1      40.967 -14.844   5.049  1.00  0.00     0.153 C 
BRANCH  12  13
HETATM   13  C   UNL     1      41.102 -15.779   3.916  1.00  0.00     0.019 A 
HETATM   14  C   UNL     1      41.893 -16.922   4.042  1.00  0.00     0.110 A 
HETATM   15  C   UNL     1      42.078 -17.791   2.957  1.00  0.00     0.102 A 
HETATM   16  C   UNL     1      41.443 -17.516   1.744  1.00  0.00     0.040 A 
HETATM   17  C   UNL     1      40.641 -16.377   1.618  1.00  0.00     0.004 A 
HETATM   18  C   UNL     1      40.473 -15.508   2.698  1.00  0.00     0.016 A 
BRANCH  14  19
HETATM   19  O   UNL     1      42.519 -17.209   5.229  1.00  0.00    -0.357 OA
HETATM   20  H   UNL     1      43.402 -16.792   5.158  1.00  0.00     0.218 HD
ENDBRANCH  14  19
BRANCH  15  21
HETATM   21  O   UNL     1      42.895 -18.864   3.212  1.00  0.00    -0.349 OA
BRANCH  21  22
HETATM   22  C   UNL     1      43.816 -19.226   2.181  1.00  0.00     0.171 C 
HETATM   23  C   UNL     1      43.654 -20.712   1.914  1.00  0.00     0.034 C 
ENDBRANCH  21  22
ENDBRANCH  15  21
ENDBRANCH  12  13
ENDBRANCH   8  11
ENDBRANCH   1   7
BRANCH   5  24
HETATM   24  C   UNL     1      40.144  -9.718  10.586  1.00  0.00     0.005 A 
HETATM   25  C   UNL     1      41.400  -9.794  11.260  1.00  0.00    -0.012 A 
HETATM   26  C   UNL     1      41.410  -9.359  12.564  1.00  0.00    -0.012 A 
HETATM   27  C   UNL     1      42.656 -10.250  10.779  1.00  0.00     0.013 A 
HETATM   28  C   UNL     1      42.525  -9.365  13.384  1.00  0.00    -0.046 A 
HETATM   29  C   UNL     1      40.306  -8.862  13.230  1.00  0.00    -0.046 A 
HETATM   30  C   UNL     1      43.754  -9.820  12.931  1.00  0.00     0.008 A 
HETATM   31  C   UNL     1      42.181  -8.842  14.734  1.00  0.00     0.044 A 
HETATM   32  C   UNL     1      43.800 -10.263  11.603  1.00  0.00     0.001 A 
HETATM   33  C   UNL     1      40.666  -8.488  14.626  1.00  0.00     0.044 A 
HETATM   34  C   UNL     1      39.073  -8.765  12.610  1.00  0.00     0.009 A 
HETATM   35  C   UNL     1      39.011  -9.205  11.278  1.00  0.00     0.015 A 
ENDBRANCH   5  24
TORSDOF 7
ENDMDL
MODEL 7
REMARK VINA RESULT:      -8.7      2.190      2.882
REMARK  7 active torsions:
REMARK  status: ('A' for Active; 'I' for Inactive)
REMARK    1  A    between atoms: C_2  and  O_3 
REMARK    2  A    between atoms: O_3  and  C_4 
REMARK    3  A    between atoms: C_5  and  O_6 
REMARK    4  A    between atoms: C_7  and  C_8 
REMARK    5  A    between atoms: N_9  and  N_10 
REMARK       I    between atoms: N_10  and  C_11 
REMARK    6  A    between atoms: C_11  and  C_12 
REMARK    7  A    between atoms: C_16  and  C_17 
ROOT
HETATM    1  C   UNL     1      40.383 -14.093   3.948  1.00  0.00     0.121 A 
HETATM    2  N   UNL     1      39.550 -14.843   3.166  1.00  0.00    -0.272 N 
HETATM    3  H   UNL     1      38.612 -14.591   2.866  1.00  0.00     0.189 HD
HETATM    4  N   UNL     1      40.047 -16.038   2.821  1.00  0.00    -0.174 NA
HETATM    5  C   UNL     1      41.271 -16.072   3.366  1.00  0.00     0.090 A 
HETATM    6  C   UNL     1      41.529 -14.855   4.066  1.00  0.00     0.071 A 
ENDROOT
BRANCH   1   7
HETATM    7  C   UNL     1      39.964 -12.816   4.472  1.00  0.00     0.289 C 
HETATM    8  N   UNL     1      40.804 -12.282   5.436  1.00  0.00    -0.242 N 
HETATM    9  H   UNL     1      41.634 -12.783   5.724  1.00  0.00     0.192 HD
HETATM   10  O   UNL     1      38.918 -12.292   4.095  1.00  0.00    -0.264 OA
BRANCH   8  11
HETATM   11  N   UNL     1      40.415 -11.188   6.153  1.00  0.00    -0.183 NA
HETATM   12  C   UNL     1      40.125 -11.413   7.396  1.00  0.00     0.153 C 
BRANCH  12  13
HETATM   13  C   UNL     1      39.618 -10.345   8.278  1.00  0.00     0.019 A 
HETATM   14  C   UNL     1      39.542 -10.551   9.657  1.00  0.00     0.110 A 
HETATM   15  C   UNL     1      39.008  -9.568  10.503  1.00  0.00     0.102 A 
HETATM   16  C   UNL     1      38.570  -8.361   9.956  1.00  0.00     0.040 A 
HETATM   17  C   UNL     1      38.654  -8.146   8.577  1.00  0.00     0.004 A 
HETATM   18  C   UNL     1      39.172  -9.135   7.738  1.00  0.00     0.016 A 
BRANCH  14  19
HETATM   19  O   UNL     1      39.974 -11.731  10.209  1.00  0.00    -0.357 OA
HETATM   20  H   UNL     1      39.844 -12.402   9.509  1.00  0.00     0.218 HD
ENDBRANCH  14  19
BRANCH  15  21
HETATM   21  O   UNL     1      38.974  -9.910  11.831  1.00  0.00    -0.349 OA
BRANCH  21  22
HETATM   22  C   UNL     1      39.840  -9.178  12.702  1.00  0.00     0.171 C 
HETATM   23  C   UNL     1      40.910 -10.132  13.202  1.00  0.00     0.034 C 
ENDBRANCH  21  22
ENDBRANCH  15  21
ENDBRANCH  12  13
ENDBRANCH   8  11
ENDBRANCH   1   7
BRANCH   5  24
HETATM   24  C   UNL     1      42.147 -17.248   3.276  1.00  0.00     0.005 A 
HETATM   25  C   UNL     1      42.743 -17.857   4.423  1.00  0.00    -0.012 A 
HETATM   26  C   UNL     1      43.561 -18.934   4.175  1.00  0.00    -0.012 A 
HETATM   27  C   UNL     1      42.611 -17.519   5.795  1.00  0.00     0.013 A 
HETATM   28  C   UNL     1      44.235 -19.647   5.149  1.00  0.00    -0.046 A 
HETATM   29  C   UNL     1      43.820 -19.445   2.917  1.00  0.00    -0.046 A 
HETATM   30  C   UNL     1      44.126 -19.319   6.492  1.00  0.00     0.008 A 
HETATM   31  C   UNL     1      45.040 -20.737   4.535  1.00  0.00     0.044 A 
HETATM   32  C   UNL     1      43.293 -18.235   6.800  1.00  0.00     0.001 A 
HETATM   33  C   UNL     1      44.749 -20.605   3.008  1.00  0.00     0.044 A 
HETATM   34  C   UNL     1      43.257 -18.887   1.782  1.00  0.00     0.009 A 
HETATM   35  C   UNL     1      42.419 -17.779   1.985  1.00  0.00     0.015 A 
ENDBRANCH   5  24
TORSDOF 7
ENDMDL
MODEL 8
REMARK VINA RESULT:      -8.6      2.883     11.118
REMARK  7 active torsions:
REMARK  status: ('A' for Active; 'I' for Inactive)
REMARK    1  A    between atoms: C_2  and  O_3 
REMARK    2  A    between atoms: O_3  and  C_4 
REMARK    3  A    between atoms: C_5  and  O_6 
REMARK    4  A    between atoms: C_7  and  C_8 
REMARK    5  A    between atoms: N_9  and  N_10 
REMARK       I    between atoms: N_10  and  C_11 
REMARK    6  A    between atoms: C_11  and  C_12 
REMARK    7  A    between atoms: C_16  and  C_17 
ROOT
HETATM    1  C   UNL     1      44.787 -12.494   8.499  1.00  0.00     0.121 A 
HETATM    2  N   UNL     1      45.861 -12.069   9.229  1.00  0.00    -0.272 N 
HETATM    3  H   UNL     1      46.829 -12.352   9.103  1.00  0.00     0.189 HD
HETATM    4  N   UNL     1      45.552 -11.229  10.226  1.00  0.00    -0.174 NA
HETATM    5  C   UNL     1      44.224 -11.062  10.135  1.00  0.00     0.090 A 
HETATM    6  C   UNL     1      43.709 -11.825   9.044  1.00  0.00     0.071 A 
ENDROOT
BRANCH   1   7
HETATM    7  C   UNL     1      44.942 -13.464   7.443  1.00  0.00     0.289 C 
HETATM    8  N   UNL     1      43.998 -14.479   7.447  1.00  0.00    -0.242 N 
HETATM    9  H   UNL     1      43.276 -14.503   8.155  1.00  0.00     0.192 HD
HETATM   10  O   UNL     1      45.872 -13.385   6.644  1.00  0.00    -0.264 OA
BRANCH   8  11
HETATM   11  N   UNL     1      44.156 -15.564   6.634  1.00  0.00    -0.183 NA
HETATM   12  C   UNL     1      43.502 -15.521   5.516  1.00  0.00     0.153 C 
BRANCH  12  13
HETATM   13  C   UNL     1      43.514 -16.652   4.568  1.00  0.00     0.019 A 
HETATM   14  C   UNL     1      43.249 -16.434   3.215  1.00  0.00     0.110 A 
HETATM   15  C   UNL     1      43.200 -17.505   2.311  1.00  0.00     0.102 A 
HETATM   16  C   UNL     1      43.441 -18.801   2.772  1.00  0.00     0.040 A 
HETATM   17  C   UNL     1      43.716 -19.022   4.125  1.00  0.00     0.004 A 
HETATM   18  C   UNL     1      43.749 -17.952   5.023  1.00  0.00     0.016 A 
BRANCH  14  19
HETATM   19  O   UNL     1      43.016 -15.165   2.746  1.00  0.00    -0.357 OA
HETATM   20  H   UNL     1      42.339 -14.793   3.347  1.00  0.00     0.218 HD
ENDBRANCH  14  19
BRANCH  15  21
HETATM   21  O   UNL     1      42.910 -17.152   1.017  1.00  0.00    -0.349 OA
BRANCH  21  22
HETATM   22  C   UNL     1      41.526 -17.097   0.663  1.00  0.00     0.171 C 
HETATM   23  C   UNL     1      41.355 -16.001  -0.373  1.00  0.00     0.034 C 
ENDBRANCH  21  22
ENDBRANCH  15  21
ENDBRANCH  12  13
ENDBRANCH   8  11
ENDBRANCH   1   7
BRANCH   5  24
HETATM   24  C   UNL     1      43.460 -10.249  11.090  1.00  0.00     0.005 A 
HETATM   25  C   UNL     1      42.321  -9.476  10.709  1.00  0.00    -0.012 A 
HETATM   26  C   UNL     1      41.728  -8.745  11.711  1.00  0.00    -0.012 A 
HETATM   27  C   UNL     1      41.699  -9.351   9.439  1.00  0.00     0.013 A 
HETATM   28  C   UNL     1      40.626  -7.928  11.538  1.00  0.00    -0.046 A 
HETATM   29  C   UNL     1      42.157  -8.728  13.025  1.00  0.00    -0.046 A 
HETATM   30  C   UNL     1      40.016  -7.787  10.300  1.00  0.00     0.008 A 
HETATM   31  C   UNL     1      40.253  -7.276  12.823  1.00  0.00     0.044 A 
HETATM   32  C   UNL     1      40.576  -8.522   9.247  1.00  0.00     0.001 A 
HETATM   33  C   UNL     1      41.295  -7.831  13.843  1.00  0.00     0.044 A 
HETATM   34  C   UNL     1      43.252  -9.469  13.435  1.00  0.00     0.009 A 
HETATM   35  C   UNL     1      43.896 -10.227  12.444  1.00  0.00     0.015 A 
ENDBRANCH   5  24
TORSDOF 7
ENDMDL
MODEL 9
REMARK VINA RESULT:      -8.6      6.969     10.292
REMARK  7 active torsions:
REMARK  status: ('A' for Active; 'I' for Inactive)
REMARK    1  A    between atoms: C_2  and  O_3 
REMARK    2  A    between atoms: O_3  and  C_4 
REMARK    3  A    between atoms: C_5  and  O_6 
REMARK    4  A    between atoms: C_7  and  C_8 
REMARK    5  A    between atoms: N_9  and  N_10 
REMARK       I    between atoms: N_10  and  C_11 
REMARK    6  A    between atoms: C_11  and  C_12 
REMARK    7  A    between atoms: C_16  and  C_17 
ROOT
HETATM    1  C   UNL     1      41.983 -15.791   1.029  1.00  0.00     0.121 A 
HETATM    2  N   UNL     1      42.913 -15.357   1.932  1.00  0.00    -0.272 N 
HETATM    3  H   UNL     1      43.179 -14.392   2.110  1.00  0.00     0.189 HD
HETATM    4  N   UNL     1      43.539 -16.339   2.595  1.00  0.00    -0.174 NA
HETATM    5  C   UNL     1      42.980 -17.470   2.139  1.00  0.00     0.090 A 
HETATM    6  C   UNL     1      41.980 -17.165   1.168  1.00  0.00     0.071 A 
ENDROOT
BRANCH   1   7
HETATM    7  C   UNL     1      41.281 -14.862   0.179  1.00  0.00     0.289 C 
HETATM    8  N   UNL     1      42.069 -14.251  -0.784  1.00  0.00    -0.242 N 
HETATM    9  H   UNL     1      43.056 -14.466  -0.849  1.00  0.00     0.192 HD
HETATM   10  O   UNL     1      40.087 -14.627   0.349  1.00  0.00    -0.264 OA
BRANCH   8  11
HETATM   11  N   UNL     1      41.575 -13.206  -1.511  1.00  0.00    -0.183 NA
HETATM   12  C   UNL     1      41.847 -13.233  -2.777  1.00  0.00     0.153 C 
BRANCH  12  13
HETATM   13  C   UNL     1      41.446 -12.135  -3.678  1.00  0.00     0.019 A 
HETATM   14  C   UNL     1      40.098 -11.805  -3.824  1.00  0.00     0.110 A 
HETATM   15  C   UNL     1      39.695 -10.804  -4.719  1.00  0.00     0.102 A 
HETATM   16  C   UNL     1      40.662 -10.115  -5.455  1.00  0.00     0.040 A 
HETATM   17  C   UNL     1      42.015 -10.436  -5.304  1.00  0.00     0.004 A 
HETATM   18  C   UNL     1      42.408 -11.445  -4.422  1.00  0.00     0.016 A 
BRANCH  14  19
HETATM   19  O   UNL     1      39.136 -12.469  -3.103  1.00  0.00    -0.357 OA
HETATM   20  H   UNL     1      38.420 -11.815  -2.974  1.00  0.00     0.218 HD
ENDBRANCH  14  19
BRANCH  15  21
HETATM   21  O   UNL     1      38.340 -10.596  -4.778  1.00  0.00    -0.349 OA
BRANCH  21  22
HETATM   22  C   UNL     1      37.807 -10.211  -6.047  1.00  0.00     0.171 C 
HETATM   23  C   UNL     1      36.447 -10.868  -6.199  1.00  0.00     0.034 C 
ENDBRANCH  21  22
ENDBRANCH  15  21
ENDBRANCH  12  13
ENDBRANCH   8  11
ENDBRANCH   1   7
BRANCH   5  24
HETATM   24  C   UNL     1      43.424 -18.803   2.569  1.00  0.00     0.005 A 
HETATM   25  C   UNL     1      43.644 -19.138   3.940  1.00  0.00    -0.012 A 
HETATM   26  C   UNL     1      44.087 -20.418   4.182  1.00  0.00    -0.012 A 
HETATM   27  C   UNL     1      43.468 -18.344   5.103  1.00  0.00     0.013 A 
HETATM   28  C   UNL     1      44.367 -20.926   5.438  1.00  0.00    -0.046 A 
HETATM   29  C   UNL     1      44.313 -21.365   3.201  1.00  0.00    -0.046 A 
HETATM   30  C   UNL     1      44.211 -20.156   6.581  1.00  0.00     0.008 A 
HETATM   31  C   UNL     1      44.835 -22.334   5.337  1.00  0.00     0.044 A 
HETATM   32  C   UNL     1      43.750 -18.848   6.389  1.00  0.00     0.001 A 
HETATM   33  C   UNL     1      44.790 -22.639   3.808  1.00  0.00     0.044 A 
HETATM   34  C   UNL     1      44.105 -21.081   1.862  1.00  0.00     0.009 A 
HETATM   35  C   UNL     1      43.660 -19.782   1.565  1.00  0.00     0.015 A 
ENDBRANCH   5  24
TORSDOF 7
ENDMDL
MODEL 10
REMARK VINA RESULT:      -8.5      2.182      3.621
REMARK  7 active torsions:
REMARK  status: ('A' for Active; 'I' for Inactive)
REMARK    1  A    between atoms: C_2  and  O_3 
REMARK    2  A    between atoms: O_3  and  C_4 
REMARK    3  A    between atoms: C_5  and  O_6 
REMARK    4  A    between atoms: C_7  and  C_8 
REMARK    5  A    between atoms: N_9  and  N_10 
REMARK       I    between atoms: N_10  and  C_11 
REMARK    6  A    between atoms: C_11  and  C_12 
REMARK    7  A    between atoms: C_16  and  C_17 
ROOT
HETATM    1  C   UNL     1      42.581 -14.631   3.896  1.00  0.00     0.121 A 
HETATM    2  N   UNL     1      42.705 -15.162   2.642  1.00  0.00    -0.272 N 
HETATM    3  H   UNL     1      42.481 -14.701   1.765  1.00  0.00     0.189 HD
HETATM    4  N   UNL     1      43.131 -16.432   2.622  1.00  0.00    -0.174 NA
HETATM    5  C   UNL     1      43.328 -16.749   3.910  1.00  0.00     0.090 A 
HETATM    6  C   UNL     1      43.014 -15.633   4.742  1.00  0.00     0.071 A 
ENDROOT
BRANCH   1   7
HETATM    7  C   UNL     1      42.057 -13.302   4.092  1.00  0.00     0.289 C 
HETATM    8  N   UNL     1      42.318 -12.755   5.339  1.00  0.00    -0.242 N 
HETATM    9  H   UNL     1      42.836 -13.283   6.030  1.00  0.00     0.192 HD
HETATM   10  O   UNL     1      41.404 -12.744   3.214  1.00  0.00    -0.264 OA
BRANCH   8  11
HETATM   11  N   UNL     1      41.705 -11.597   5.722  1.00  0.00    -0.183 NA
HETATM   12  C   UNL     1      40.956 -11.687   6.775  1.00  0.00     0.153 C 
BRANCH  12  13
HETATM   13  C   UNL     1      40.169 -10.539   7.266  1.00  0.00     0.019 A 
HETATM   14  C   UNL     1      39.463 -10.635   8.466  1.00  0.00     0.110 A 
HETATM   15  C   UNL     1      38.665  -9.574   8.917  1.00  0.00     0.102 A 
HETATM   16  C   UNL     1      38.598  -8.401   8.164  1.00  0.00     0.040 A 
HETATM   17  C   UNL     1      39.312  -8.297   6.966  1.00  0.00     0.004 A 
HETATM   18  C   UNL     1      40.093  -9.363   6.514  1.00  0.00     0.016 A 
BRANCH  14  19
HETATM   19  O   UNL     1      39.524 -11.780   9.220  1.00  0.00    -0.357 OA
HETATM   20  H   UNL     1      40.070 -12.401   8.696  1.00  0.00     0.218 HD
ENDBRANCH  14  19
BRANCH  15  21
HETATM   21  O   UNL     1      38.011  -9.810  10.100  1.00  0.00    -0.349 OA
BRANCH  21  22
HETATM   22  C   UNL     1      38.291  -8.911  11.176  1.00  0.00     0.171 C 
HETATM   23  C   UNL     1      39.169  -9.642  12.175  1.00  0.00     0.034 C 
ENDBRANCH  21  22
ENDBRANCH  15  21
ENDBRANCH  12  13
ENDBRANCH   8  11
ENDBRANCH   1   7
BRANCH   5  24
HETATM   24  C   UNL     1      43.745 -18.090   4.342  1.00  0.00     0.005 A 
HETATM   25  C   UNL     1      43.841 -19.195   3.443  1.00  0.00    -0.012 A 
HETATM   26  C   UNL     1      44.218 -20.394   4.002  1.00  0.00    -0.012 A 
HETATM   27  C   UNL     1      43.609 -19.244   2.043  1.00  0.00     0.013 A 
HETATM   28  C   UNL     1      44.354 -21.578   3.300  1.00  0.00    -0.046 A 
HETATM   29  C   UNL     1      44.507 -20.574   5.342  1.00  0.00    -0.046 A 
HETATM   30  C   UNL     1      44.118 -21.641   1.935  1.00  0.00     0.008 A 
HETATM   31  C   UNL     1      44.761 -22.681   4.213  1.00  0.00     0.044 A 
HETATM   32  C   UNL     1      43.743 -20.443   1.315  1.00  0.00     0.001 A 
HETATM   33  C   UNL     1      44.875 -21.992   5.608  1.00  0.00     0.044 A 
HETATM   34  C   UNL     1      44.433 -19.526   6.243  1.00  0.00     0.009 A 
HETATM   35  C   UNL     1      44.044 -18.283   5.719  1.00  0.00     0.015 A 
ENDBRANCH   5  24
TORSDOF 7
ENDMDL
