MODEL 1
REMARK VINA RESULT:      -9.1      0.000      0.000
REMARK  3 active torsions:
REMARK  status: ('A' for Active; 'I' for Inactive)
REMARK    1  A    between atoms: C_7  and  C_8 
REMARK    2  A    between atoms: C_12  and  C_13 
REMARK    3  A    between atoms: C_16  and  C_17 
ROOT
HETATM    1  C   UNL     1      43.846 -21.305   1.748  1.00  0.00     0.048 C 
HETATM    2  C   UNL     1      43.983 -20.258   2.812  1.00  0.00    -0.061 A 
HETATM    3  C   UNL     1      43.322 -19.028   2.713  1.00  0.00     0.021 A 
HETATM    4  C   UNL     1      43.420 -18.030   3.723  1.00  0.00     0.008 A 
HETATM    5  C   UNL     1      44.227 -18.307   4.845  1.00  0.00     0.068 A 
HETATM    6  N   UNL     1      44.418 -17.436   5.844  1.00  0.00    -0.252 NA
HETATM    7  C   UNL     1      43.833 -16.220   5.815  1.00  0.00     0.040 A 
HETATM    8  C   UNL     1      43.017 -15.860   4.753  1.00  0.00     0.044 A 
HETATM    9  C   UNL     1      42.786 -16.756   3.696  1.00  0.00     0.034 A 
HETATM   10  C   UNL     1      44.865 -19.535   4.937  1.00  0.00     0.033 A 
HETATM   11  C   UNL     1      44.747 -20.510   3.946  1.00  0.00     0.009 A 
ENDROOT
BRANCH   9  12
HETATM   12  C   UNL     1      41.886 -16.352   2.617  1.00  0.00     0.207 A 
HETATM   13  O   UNL     1      40.575 -16.740   2.727  1.00  0.00    -0.191 OA
HETATM   14  N   UNL     1      39.905 -16.246   1.602  1.00  0.00    -0.108 NA
HETATM   15  C   UNL     1      40.867 -15.602   0.941  1.00  0.00     0.189 A 
HETATM   16  N   UNL     1      42.114 -15.664   1.511  1.00  0.00    -0.202 NA
BRANCH  15  17
HETATM   17  C   UNL     1      40.654 -14.886  -0.352  1.00  0.00     0.282 C 
HETATM   18  N   UNL     1      40.643 -15.891  -1.510  1.00  0.00    -0.060 N 
HETATM   19  H   UNL     1      41.462 -16.504  -1.384  1.00  0.00     0.278 HD
HETATM   20  H   UNL     1      39.827 -16.506  -1.397  1.00  0.00     0.278 HD
HETATM   21  C   UNL     1      40.637 -15.243  -2.859  1.00  0.00     0.259 C 
HETATM   22  C   UNL     1      41.784 -14.236  -2.950  1.00  0.00     0.195 C 
HETATM   23  O   UNL     1      41.672 -13.262  -1.905  1.00  0.00    -0.387 OA
HETATM   24  C   UNL     1      41.778 -13.860  -0.604  1.00  0.00     0.208 C 
ENDBRANCH  15  17
ENDBRANCH   9  12
BRANCH   7  25
HETATM   25  C   UNL     1      44.104 -15.262   6.949  1.00  0.00     0.038 A 
HETATM   26  C   UNL     1      45.178 -14.206   6.818  1.00  0.00     0.011 A 
HETATM   27  C   UNL     1      43.734 -13.803   6.803  1.00  0.00     0.011 A 
ENDBRANCH   7  25
TORSDOF 3
ENDMDL
MODEL 2
REMARK VINA RESULT:      -8.9      2.187      4.497
REMARK  3 active torsions:
REMARK  status: ('A' for Active; 'I' for Inactive)
REMARK    1  A    between atoms: C_7  and  C_8 
REMARK    2  A    between atoms: C_12  and  C_13 
REMARK    3  A    between atoms: C_16  and  C_17 
ROOT
HETATM    1  C   UNL     1      40.170 -14.770   5.851  1.00  0.00     0.048 C 
HETATM    2  C   UNL     1      40.981 -15.890   5.271  1.00  0.00    -0.061 A 
HETATM    3  C   UNL     1      41.248 -15.960   3.899  1.00  0.00     0.021 A 
HETATM    4  C   UNL     1      42.034 -17.003   3.331  1.00  0.00     0.008 A 
HETATM    5  C   UNL     1      42.538 -17.992   4.198  1.00  0.00     0.068 A 
HETATM    6  N   UNL     1      43.265 -19.035   3.778  1.00  0.00    -0.252 NA
HETATM    7  C   UNL     1      43.550 -19.188   2.467  1.00  0.00     0.040 A 
HETATM    8  C   UNL     1      43.101 -18.260   1.539  1.00  0.00     0.044 A 
HETATM    9  C   UNL     1      42.347 -17.149   1.951  1.00  0.00     0.034 A 
HETATM   10  C   UNL     1      42.277 -17.903   5.558  1.00  0.00     0.033 A 
HETATM   11  C   UNL     1      41.517 -16.867   6.101  1.00  0.00     0.009 A 
ENDROOT
BRANCH   9  12
HETATM   12  C   UNL     1      41.928 -16.173   0.945  1.00  0.00     0.207 A 
HETATM   13  O   UNL     1      42.323 -14.874   1.143  1.00  0.00    -0.191 OA
HETATM   14  N   UNL     1      41.822 -14.127   0.071  1.00  0.00    -0.108 NA
HETATM   15  C   UNL     1      41.196 -15.043  -0.666  1.00  0.00     0.189 A 
HETATM   16  N   UNL     1      41.208 -16.317  -0.154  1.00  0.00    -0.202 NA
BRANCH  15  17
HETATM   17  C   UNL     1      40.486 -14.743  -1.945  1.00  0.00     0.282 C 
HETATM   18  N   UNL     1      38.977 -14.635  -1.692  1.00  0.00    -0.060 N 
HETATM   19  H   UNL     1      38.707 -15.455  -1.127  1.00  0.00     0.278 HD
HETATM   20  H   UNL     1      38.808 -13.823  -1.084  1.00  0.00     0.278 HD
HETATM   21  C   UNL     1      38.169 -14.536  -2.947  1.00  0.00     0.259 C 
HETATM   22  C   UNL     1      38.538 -15.684  -3.888  1.00  0.00     0.195 C 
HETATM   23  O   UNL     1      39.943 -15.660  -4.170  1.00  0.00    -0.387 OA
HETATM   24  C   UNL     1      40.729 -15.856  -2.985  1.00  0.00     0.208 C 
ENDBRANCH  15  17
ENDBRANCH   9  12
BRANCH   7  25
HETATM   25  C   UNL     1      44.347 -20.396   2.039  1.00  0.00     0.038 A 
HETATM   26  C   UNL     1      44.413 -21.621   2.922  1.00  0.00     0.011 A 
HETATM   27  C   UNL     1      43.628 -21.667   1.645  1.00  0.00     0.011 A 
ENDBRANCH   7  25
TORSDOF 3
ENDMDL
MODEL 3
REMARK VINA RESULT:      -8.7      1.023      4.107
REMARK  3 active torsions:
REMARK  status: ('A' for Active; 'I' for Inactive)
REMARK    1  A    between atoms: C_7  and  C_8 
REMARK    2  A    between atoms: C_12  and  C_13 
REMARK    3  A    between atoms: C_16  and  C_17 
ROOT
HETATM    1  C   UNL     1      43.102 -14.548   6.667  1.00  0.00     0.048 C 
HETATM    2  C   UNL     1      43.510 -15.820   5.985  1.00  0.00    -0.061 A 
HETATM    3  C   UNL     1      43.039 -16.144   4.707  1.00  0.00     0.021 A 
HETATM    4  C   UNL     1      43.432 -17.335   4.033  1.00  0.00     0.008 A 
HETATM    5  C   UNL     1      44.315 -18.207   4.699  1.00  0.00     0.068 A 
HETATM    6  N   UNL     1      44.732 -19.367   4.179  1.00  0.00    -0.252 NA
HETATM    7  C   UNL     1      44.308 -19.764   2.960  1.00  0.00     0.040 A 
HETATM    8  C   UNL     1      43.441 -18.968   2.226  1.00  0.00     0.044 A 
HETATM    9  C   UNL     1      42.996 -17.739   2.740  1.00  0.00     0.034 A 
HETATM   10  C   UNL     1      44.786 -17.867   5.960  1.00  0.00     0.033 A 
HETATM   11  C   UNL     1      44.403 -16.689   6.602  1.00  0.00     0.009 A 
ENDROOT
BRANCH   9  12
HETATM   12  C   UNL     1      42.115 -16.912   1.916  1.00  0.00     0.207 A 
HETATM   13  O   UNL     1      40.798 -16.843   2.296  1.00  0.00    -0.191 OA
HETATM   14  N   UNL     1      40.151 -16.005   1.381  1.00  0.00    -0.108 NA
HETATM   15  C   UNL     1      41.135 -15.643   0.559  1.00  0.00     0.189 A 
HETATM   16  N   UNL     1      42.361 -16.201   0.830  1.00  0.00    -0.202 NA
BRANCH  15  17
HETATM   17  C   UNL     1      40.953 -14.731  -0.609  1.00  0.00     0.282 C 
HETATM   18  N   UNL     1      41.447 -15.416  -1.888  1.00  0.00    -0.060 N 
HETATM   19  H   UNL     1      42.375 -15.814  -1.679  1.00  0.00     0.278 HD
HETATM   20  H   UNL     1      40.843 -16.227  -2.075  1.00  0.00     0.278 HD
HETATM   21  C   UNL     1      41.489 -14.503  -3.073  1.00  0.00     0.259 C 
HETATM   22  C   UNL     1      42.284 -13.244  -2.723  1.00  0.00     0.195 C 
HETATM   23  O   UNL     1      41.705 -12.594  -1.586  1.00  0.00    -0.387 OA
HETATM   24  C   UNL     1      41.749 -13.424  -0.415  1.00  0.00     0.208 C 
ENDBRANCH  15  17
ENDBRANCH   9  12
BRANCH   7  25
HETATM   25  C   UNL     1      44.782 -21.095   2.430  1.00  0.00     0.038 A 
HETATM   26  C   UNL     1      44.288 -22.384   3.046  1.00  0.00     0.011 A 
HETATM   27  C   UNL     1      43.821 -21.988   1.678  1.00  0.00     0.011 A 
ENDBRANCH   7  25
TORSDOF 3
ENDMDL
MODEL 4
REMARK VINA RESULT:      -8.6      2.169      2.577
REMARK  3 active torsions:
REMARK  status: ('A' for Active; 'I' for Inactive)
REMARK    1  A    between atoms: C_7  and  C_8 
REMARK    2  A    between atoms: C_12  and  C_13 
REMARK    3  A    between atoms: C_16  and  C_17 
ROOT
HETATM    1  C   UNL     1      43.925 -22.095   0.903  1.00  0.00     0.048 C 
HETATM    2  C   UNL     1      44.097 -21.352   2.194  1.00  0.00    -0.061 A 
HETATM    3  C   UNL     1      43.633 -20.040   2.347  1.00  0.00     0.021 A 
HETATM    4  C   UNL     1      43.767 -19.325   3.571  1.00  0.00     0.008 A 
HETATM    5  C   UNL     1      44.403 -19.977   4.646  1.00  0.00     0.068 A 
HETATM    6  N   UNL     1      44.611 -19.398   5.835  1.00  0.00    -0.252 NA
HETATM    7  C   UNL     1      44.213 -18.128   6.058  1.00  0.00     0.040 A 
HETATM    8  C   UNL     1      43.573 -17.408   5.060  1.00  0.00     0.044 A 
HETATM    9  C   UNL     1      43.329 -17.993   3.806  1.00  0.00     0.034 A 
HETATM   10  C   UNL     1      44.846 -21.282   4.486  1.00  0.00     0.033 A 
HETATM   11  C   UNL     1      44.695 -21.975   3.284  1.00  0.00     0.009 A 
ENDROOT
BRANCH   9  12
HETATM   12  C   UNL     1      42.614 -17.213   2.796  1.00  0.00     0.207 A 
HETATM   13  O   UNL     1      43.344 -16.788   1.714  1.00  0.00    -0.191 OA
HETATM   14  N   UNL     1      42.470 -16.076   0.885  1.00  0.00    -0.108 NA
HETATM   15  C   UNL     1      41.310 -16.155   1.535  1.00  0.00     0.189 A 
HETATM   16  N   UNL     1      41.354 -16.821   2.736  1.00  0.00    -0.202 NA
BRANCH  15  17
HETATM   17  C   UNL     1      40.038 -15.543   1.049  1.00  0.00     0.282 C 
HETATM   18  N   UNL     1      40.287 -14.796  -0.267  1.00  0.00    -0.060 N 
HETATM   19  H   UNL     1      41.125 -14.212  -0.128  1.00  0.00     0.278 HD
HETATM   20  H   UNL     1      40.554 -15.484  -0.983  1.00  0.00     0.278 HD
HETATM   21  C   UNL     1      39.114 -13.985  -0.721  1.00  0.00     0.259 C 
HETATM   22  C   UNL     1      38.656 -13.065   0.412  1.00  0.00     0.195 C 
HETATM   23  O   UNL     1      38.336 -13.836   1.576  1.00  0.00    -0.387 OA
HETATM   24  C   UNL     1      39.479 -14.542   2.082  1.00  0.00     0.208 C 
ENDBRANCH  15  17
ENDBRANCH   9  12
BRANCH   7  25
HETATM   25  C   UNL     1      44.498 -17.508   7.405  1.00  0.00     0.038 A 
HETATM   26  C   UNL     1      43.368 -17.216   8.367  1.00  0.00     0.011 A 
HETATM   27  C   UNL     1      44.326 -18.332   8.661  1.00  0.00     0.011 A 
ENDBRANCH   7  25
TORSDOF 3
ENDMDL
MODEL 5
REMARK VINA RESULT:      -8.5      2.137      4.415
REMARK  3 active torsions:
REMARK  status: ('A' for Active; 'I' for Inactive)
REMARK    1  A    between atoms: C_7  and  C_8 
REMARK    2  A    between atoms: C_12  and  C_13 
REMARK    3  A    between atoms: C_16  and  C_17 
ROOT
HETATM    1  C   UNL     1      40.146 -14.860   5.830  1.00  0.00     0.048 C 
HETATM    2  C   UNL     1      41.011 -15.981   5.337  1.00  0.00    -0.061 A 
HETATM    3  C   UNL     1      41.320 -16.120   3.979  1.00  0.00     0.021 A 
HETATM    4  C   UNL     1      42.158 -17.164   3.494  1.00  0.00     0.008 A 
HETATM    5  C   UNL     1      42.671 -18.083   4.430  1.00  0.00     0.068 A 
HETATM    6  N   UNL     1      43.447 -19.120   4.091  1.00  0.00    -0.252 NA
HETATM    7  C   UNL     1      43.774 -19.337   2.800  1.00  0.00     0.040 A 
HETATM    8  C   UNL     1      43.319 -18.481   1.807  1.00  0.00     0.044 A 
HETATM    9  C   UNL     1      42.515 -17.377   2.134  1.00  0.00     0.034 A 
HETATM   10  C   UNL     1      42.369 -17.925   5.776  1.00  0.00     0.033 A 
HETATM   11  C   UNL     1      41.558 -16.888   6.237  1.00  0.00     0.009 A 
ENDROOT
BRANCH   9  12
HETATM   12  C   UNL     1      42.091 -16.477   1.062  1.00  0.00     0.207 A 
HETATM   13  O   UNL     1      41.369 -17.034   0.036  1.00  0.00    -0.191 OA
HETATM   14  N   UNL     1      41.070 -16.003  -0.861  1.00  0.00    -0.108 NA
HETATM   15  C   UNL     1      41.622 -14.935  -0.285  1.00  0.00     0.189 A 
HETATM   16  N   UNL     1      42.290 -15.182   0.889  1.00  0.00    -0.202 NA
BRANCH  15  17
HETATM   17  C   UNL     1      41.575 -13.559  -0.862  1.00  0.00     0.282 C 
HETATM   18  N   UNL     1      42.498 -13.473  -2.083  1.00  0.00    -0.060 N 
HETATM   19  H   UNL     1      43.400 -13.892  -1.810  1.00  0.00     0.278 HD
HETATM   20  H   UNL     1      42.125 -14.092  -2.815  1.00  0.00     0.278 HD
HETATM   21  C   UNL     1      42.668 -12.080  -2.602  1.00  0.00     0.259 C 
HETATM   22  C   UNL     1      43.096 -11.155  -1.462  1.00  0.00     0.195 C 
HETATM   23  O   UNL     1      42.135 -11.201  -0.401  1.00  0.00    -0.387 OA
HETATM   24  C   UNL     1      42.035 -12.512   0.174  1.00  0.00     0.208 C 
ENDBRANCH  15  17
ENDBRANCH   9  12
BRANCH   7  25
HETATM   25  C   UNL     1      44.624 -20.538   2.463  1.00  0.00     0.038 A 
HETATM   26  C   UNL     1      44.341 -21.879   3.101  1.00  0.00     0.011 A 
HETATM   27  C   UNL     1      44.037 -21.668   1.648  1.00  0.00     0.011 A 
ENDBRANCH   7  25
TORSDOF 3
ENDMDL
MODEL 6
REMARK VINA RESULT:      -8.4      1.984      4.559
REMARK  3 active torsions:
REMARK  status: ('A' for Active; 'I' for Inactive)
REMARK    1  A    between atoms: C_7  and  C_8 
REMARK    2  A    between atoms: C_12  and  C_13 
REMARK    3  A    between atoms: C_16  and  C_17 
ROOT
HETATM    1  C   UNL     1      44.137 -15.069   7.017  1.00  0.00     0.048 C 
HETATM    2  C   UNL     1      44.129 -16.323   6.197  1.00  0.00    -0.061 A 
HETATM    3  C   UNL     1      43.425 -16.399   4.990  1.00  0.00     0.021 A 
HETATM    4  C   UNL     1      43.423 -17.574   4.185  1.00  0.00     0.008 A 
HETATM    5  C   UNL     1      44.151 -18.688   4.646  1.00  0.00     0.068 A 
HETATM    6  N   UNL     1      44.200 -19.855   3.991  1.00  0.00    -0.252 NA
HETATM    7  C   UNL     1      43.532 -20.017   2.830  1.00  0.00     0.040 A 
HETATM    8  C   UNL     1      42.793 -18.973   2.294  1.00  0.00     0.044 A 
HETATM    9  C   UNL     1      42.732 -17.734   2.952  1.00  0.00     0.034 A 
HETATM   10  C   UNL     1      44.856 -18.595   5.838  1.00  0.00     0.033 A 
HETATM   11  C   UNL     1      44.859 -17.432   6.609  1.00  0.00     0.009 A 
ENDROOT
BRANCH   9  12
HETATM   12  C   UNL     1      41.974 -16.648   2.331  1.00  0.00     0.207 A 
HETATM   13  O   UNL     1      42.698 -15.593   1.835  1.00  0.00    -0.191 OA
HETATM   14  N   UNL     1      41.782 -14.686   1.291  1.00  0.00    -0.108 NA
HETATM   15  C   UNL     1      40.610 -15.286   1.497  1.00  0.00     0.189 A 
HETATM   16  N   UNL     1      40.673 -16.486   2.163  1.00  0.00    -0.202 NA
BRANCH  15  17
HETATM   17  C   UNL     1      39.295 -14.711   1.085  1.00  0.00     0.282 C 
HETATM   18  N   UNL     1      39.306 -14.406  -0.418  1.00  0.00    -0.060 N 
HETATM   19  H   UNL     1      40.181 -13.898  -0.616  1.00  0.00     0.278 HD
HETATM   20  H   UNL     1      39.390 -15.295  -0.927  1.00  0.00     0.278 HD
HETATM   21  C   UNL     1      38.104 -13.642  -0.878  1.00  0.00     0.259 C 
HETATM   22  C   UNL     1      37.928 -12.392  -0.015  1.00  0.00     0.195 C 
HETATM   23  O   UNL     1      37.816 -12.756   1.366  1.00  0.00    -0.387 OA
HETATM   24  C   UNL     1      39.004 -13.401   1.848  1.00  0.00     0.208 C 
ENDBRANCH  15  17
ENDBRANCH   9  12
BRANCH   7  25
HETATM   25  C   UNL     1      43.594 -21.361   2.144  1.00  0.00     0.038 A 
HETATM   26  C   UNL     1      44.827 -21.769   1.370  1.00  0.00     0.011 A 
HETATM   27  C   UNL     1      44.517 -22.433   2.678  1.00  0.00     0.011 A 
ENDBRANCH   7  25
TORSDOF 3
ENDMDL
MODEL 7
REMARK VINA RESULT:      -7.7      2.794      6.855
REMARK  3 active torsions:
REMARK  status: ('A' for Active; 'I' for Inactive)
REMARK    1  A    between atoms: C_7  and  C_8 
REMARK    2  A    between atoms: C_12  and  C_13 
REMARK    3  A    between atoms: C_16  and  C_17 
ROOT
HETATM    1  C   UNL     1      44.732 -19.810   4.982  1.00  0.00     0.048 C 
HETATM    2  C   UNL     1      44.006 -19.044   3.917  1.00  0.00    -0.061 A 
HETATM    3  C   UNL     1      43.630 -17.709   4.108  1.00  0.00     0.021 A 
HETATM    4  C   UNL     1      42.960 -16.959   3.100  1.00  0.00     0.008 A 
HETATM    5  C   UNL     1      42.664 -17.606   1.885  1.00  0.00     0.068 A 
HETATM    6  N   UNL     1      42.013 -17.013   0.877  1.00  0.00    -0.252 NA
HETATM    7  C   UNL     1      41.599 -15.733   0.988  1.00  0.00     0.040 A 
HETATM    8  C   UNL     1      41.850 -15.013   2.146  1.00  0.00     0.044 A 
HETATM    9  C   UNL     1      42.542 -15.604   3.216  1.00  0.00     0.034 A 
HETATM   10  C   UNL     1      43.054 -18.926   1.704  1.00  0.00     0.033 A 
HETATM   11  C   UNL     1      43.723 -19.644   2.695  1.00  0.00     0.009 A 
ENDROOT
BRANCH   9  12
HETATM   12  C   UNL     1      42.821 -14.795   4.402  1.00  0.00     0.207 A 
HETATM   13  O   UNL     1      41.999 -13.720   4.625  1.00  0.00    -0.191 OA
HETATM   14  N   UNL     1      42.441 -13.102   5.800  1.00  0.00    -0.108 NA
HETATM   15  C   UNL     1      43.465 -13.869   6.173  1.00  0.00     0.189 A 
HETATM   16  N   UNL     1      43.759 -14.910   5.326  1.00  0.00    -0.202 NA
BRANCH  15  17
HETATM   17  C   UNL     1      44.288 -13.626   7.396  1.00  0.00     0.282 C 
HETATM   18  N   UNL     1      43.671 -12.491   8.223  1.00  0.00    -0.060 N 
HETATM   19  H   UNL     1      43.467 -11.719   7.570  1.00  0.00     0.278 HD
HETATM   20  H   UNL     1      42.752 -12.803   8.565  1.00  0.00     0.278 HD
HETATM   21  C   UNL     1      44.537 -12.045   9.358  1.00  0.00     0.259 C 
HETATM   22  C   UNL     1      45.936 -11.714   8.838  1.00  0.00     0.195 C 
HETATM   23  O   UNL     1      46.498 -12.851   8.172  1.00  0.00    -0.387 OA
HETATM   24  C   UNL     1      45.730 -13.228   7.019  1.00  0.00     0.208 C 
ENDBRANCH  15  17
ENDBRANCH   9  12
BRANCH   7  25
HETATM   25  C   UNL     1      40.842 -15.118  -0.164  1.00  0.00     0.038 A 
HETATM   26  C   UNL     1      41.539 -14.179  -1.123  1.00  0.00     0.011 A 
HETATM   27  C   UNL     1      41.148 -15.552  -1.580  1.00  0.00     0.011 A 
ENDBRANCH   7  25
TORSDOF 3
ENDMDL
MODEL 8
REMARK VINA RESULT:      -7.6      3.961      7.845
REMARK  3 active torsions:
REMARK  status: ('A' for Active; 'I' for Inactive)
REMARK    1  A    between atoms: C_7  and  C_8 
REMARK    2  A    between atoms: C_12  and  C_13 
REMARK    3  A    between atoms: C_16  and  C_17 
ROOT
HETATM    1  C   UNL     1      44.145 -19.122   7.703  1.00  0.00     0.048 C 
HETATM    2  C   UNL     1      43.790 -18.255   6.532  1.00  0.00    -0.061 A 
HETATM    3  C   UNL     1      43.916 -16.862   6.593  1.00  0.00     0.021 A 
HETATM    4  C   UNL     1      43.605 -16.023   5.486  1.00  0.00     0.008 A 
HETATM    5  C   UNL     1      43.146 -16.637   4.304  1.00  0.00     0.068 A 
HETATM    6  N   UNL     1      42.797 -15.951   3.208  1.00  0.00    -0.252 NA
HETATM    7  C   UNL     1      42.869 -14.604   3.192  1.00  0.00     0.040 A 
HETATM    8  C   UNL     1      43.316 -13.911   4.308  1.00  0.00     0.044 A 
HETATM    9  C   UNL     1      43.701 -14.603   5.467  1.00  0.00     0.034 A 
HETATM   10  C   UNL     1      43.039 -18.020   4.252  1.00  0.00     0.033 A 
HETATM   11  C   UNL     1      43.361 -18.830   5.342  1.00  0.00     0.009 A 
ENDROOT
BRANCH   9  12
HETATM   12  C   UNL     1      44.204 -13.837   6.607  1.00  0.00     0.207 A 
HETATM   13  O   UNL     1      45.566 -13.801   6.775  1.00  0.00    -0.191 OA
HETATM   14  N   UNL     1      45.819 -13.019   7.907  1.00  0.00    -0.108 NA
HETATM   15  C   UNL     1      44.598 -12.651   8.295  1.00  0.00     0.189 A 
HETATM   16  N   UNL     1      43.566 -13.156   7.542  1.00  0.00    -0.202 NA
BRANCH  15  17
HETATM   17  C   UNL     1      44.325 -11.787   9.481  1.00  0.00     0.282 C 
HETATM   18  N   UNL     1      43.979 -12.659  10.694  1.00  0.00    -0.060 N 
HETATM   19  H   UNL     1      43.279 -13.348  10.381  1.00  0.00     0.278 HD
HETATM   20  H   UNL     1      44.810 -13.213  10.941  1.00  0.00     0.278 HD
HETATM   21  C   UNL     1      43.496 -11.873  11.872  1.00  0.00     0.259 C 
HETATM   22  C   UNL     1      42.346 -10.960  11.445  1.00  0.00     0.195 C 
HETATM   23  O   UNL     1      42.770 -10.097  10.382  1.00  0.00    -0.387 OA
HETATM   24  C   UNL     1      43.141 -10.836   9.209  1.00  0.00     0.208 C 
ENDBRANCH  15  17
ENDBRANCH   9  12
BRANCH   7  25
HETATM   25  C   UNL     1      42.436 -13.873   1.944  1.00  0.00     0.038 A 
HETATM   26  C   UNL     1      40.967 -13.673   1.646  1.00  0.00     0.011 A 
HETATM   27  C   UNL     1      41.809 -12.502   2.057  1.00  0.00     0.011 A 
ENDBRANCH   7  25
TORSDOF 3
ENDMDL
MODEL 9
REMARK VINA RESULT:      -7.5      3.127      5.107
REMARK  3 active torsions:
REMARK  status: ('A' for Active; 'I' for Inactive)
REMARK    1  A    between atoms: C_7  and  C_8 
REMARK    2  A    between atoms: C_12  and  C_13 
REMARK    3  A    between atoms: C_16  and  C_17 
ROOT
HETATM    1  C   UNL     1      43.407 -16.969   8.760  1.00  0.00     0.048 C 
HETATM    2  C   UNL     1      43.553 -17.764   7.497  1.00  0.00    -0.061 A 
HETATM    3  C   UNL     1      43.338 -17.182   6.242  1.00  0.00     0.021 A 
HETATM    4  C   UNL     1      43.494 -17.914   5.031  1.00  0.00     0.008 A 
HETATM    5  C   UNL     1      43.864 -19.270   5.124  1.00  0.00     0.068 A 
HETATM    6  N   UNL     1      44.014 -20.065   4.058  1.00  0.00    -0.252 NA
HETATM    7  C   UNL     1      43.805 -19.588   2.813  1.00  0.00     0.040 A 
HETATM    8  C   UNL     1      43.443 -18.263   2.621  1.00  0.00     0.044 A 
HETATM    9  C   UNL     1      43.292 -17.401   3.719  1.00  0.00     0.034 A 
HETATM   10  C   UNL     1      44.087 -19.830   6.374  1.00  0.00     0.033 A 
HETATM   11  C   UNL     1      43.944 -19.097   7.552  1.00  0.00     0.009 A 
ENDROOT
BRANCH   9  12
HETATM   12  C   UNL     1      42.949 -16.001   3.470  1.00  0.00     0.207 A 
HETATM   13  O   UNL     1      43.981 -15.163   3.130  1.00  0.00    -0.191 OA
HETATM   14  N   UNL     1      43.429 -13.892   2.936  1.00  0.00    -0.108 NA
HETATM   15  C   UNL     1      42.131 -14.092   3.159  1.00  0.00     0.189 A 
HETATM   16  N   UNL     1      41.788 -15.371   3.522  1.00  0.00    -0.202 NA
BRANCH  15  17
HETATM   17  C   UNL     1      41.095 -13.020   3.072  1.00  0.00     0.282 C 
HETATM   18  N   UNL     1      41.180 -12.321   1.710  1.00  0.00    -0.060 N 
HETATM   19  H   UNL     1      42.173 -12.099   1.547  1.00  0.00     0.278 HD
HETATM   20  H   UNL     1      40.934 -13.003   0.980  1.00  0.00     0.278 HD
HETATM   21  C   UNL     1      40.315 -11.104   1.611  1.00  0.00     0.259 C 
HETATM   22  C   UNL     1      40.610 -10.168   2.784  1.00  0.00     0.195 C 
HETATM   23  O   UNL     1      40.406 -10.852   4.026  1.00  0.00    -0.387 OA
HETATM   24  C   UNL     1      41.301 -11.964   4.178  1.00  0.00     0.208 C 
ENDBRANCH  15  17
ENDBRANCH   9  12
BRANCH   7  25
HETATM   25  C   UNL     1      43.956 -20.531   1.644  1.00  0.00     0.038 A 
HETATM   26  C   UNL     1      44.637 -21.870   1.824  1.00  0.00     0.011 A 
HETATM   27  C   UNL     1      43.154 -21.813   1.607  1.00  0.00     0.011 A 
ENDBRANCH   7  25
TORSDOF 3
ENDMDL
MODEL 10
REMARK VINA RESULT:      -7.4      3.265      6.381
REMARK  3 active torsions:
REMARK  status: ('A' for Active; 'I' for Inactive)
REMARK    1  A    between atoms: C_7  and  C_8 
REMARK    2  A    between atoms: C_12  and  C_13 
REMARK    3  A    between atoms: C_16  and  C_17 
ROOT
HETATM    1  C   UNL     1      40.776 -15.048   0.294  1.00  0.00     0.048 C 
HETATM    2  C   UNL     1      41.486 -16.011   1.197  1.00  0.00    -0.061 A 
HETATM    3  C   UNL     1      41.947 -15.620   2.460  1.00  0.00     0.021 A 
HETATM    4  C   UNL     1      42.604 -16.525   3.342  1.00  0.00     0.008 A 
HETATM    5  C   UNL     1      42.796 -17.849   2.901  1.00  0.00     0.068 A 
HETATM    6  N   UNL     1      43.424 -18.781   3.630  1.00  0.00    -0.252 NA
HETATM    7  C   UNL     1      43.916 -18.480   4.849  1.00  0.00     0.040 A 
HETATM    8  C   UNL     1      43.769 -17.202   5.369  1.00  0.00     0.044 A 
HETATM    9  C   UNL     1      43.104 -16.207   4.635  1.00  0.00     0.034 A 
HETATM   10  C   UNL     1      42.322 -18.227   1.653  1.00  0.00     0.033 A 
HETATM   11  C   UNL     1      41.667 -17.333   0.806  1.00  0.00     0.009 A 
ENDROOT
BRANCH   9  12
HETATM   12  C   UNL     1      42.936 -14.885   5.237  1.00  0.00     0.207 A 
HETATM   13  O   UNL     1      44.072 -14.266   5.696  1.00  0.00    -0.191 OA
HETATM   14  N   UNL     1      43.680 -13.029   6.220  1.00  0.00    -0.108 NA
HETATM   15  C   UNL     1      42.364 -13.019   6.012  1.00  0.00     0.189 A 
HETATM   16  N   UNL     1      41.852 -14.156   5.436  1.00  0.00    -0.202 NA
BRANCH  15  17
HETATM   17  C   UNL     1      41.467 -11.890   6.400  1.00  0.00     0.282 C 
HETATM   18  N   UNL     1      41.834 -11.389   7.802  1.00  0.00    -0.060 N 
HETATM   19  H   UNL     1      41.916 -12.220   8.407  1.00  0.00     0.278 HD
HETATM   20  H   UNL     1      42.781 -10.990   7.765  1.00  0.00     0.278 HD
HETATM   21  C   UNL     1      40.860 -10.396   8.352  1.00  0.00     0.259 C 
HETATM   22  C   UNL     1      39.444 -10.967   8.273  1.00  0.00     0.195 C 
HETATM   23  O   UNL     1      39.125 -11.312   6.919  1.00  0.00    -0.387 OA
HETATM   24  C   UNL     1      39.991 -12.339   6.412  1.00  0.00     0.208 C 
ENDBRANCH  15  17
ENDBRANCH   9  12
BRANCH   7  25
HETATM   25  C   UNL     1      44.643 -19.556   5.619  1.00  0.00     0.038 A 
HETATM   26  C   UNL     1      43.869 -20.585   6.412  1.00  0.00     0.011 A 
HETATM   27  C   UNL     1      44.571 -20.992   5.150  1.00  0.00     0.011 A 
ENDBRANCH   7  25
TORSDOF 3
ENDMDL
