MODEL 1
REMARK VINA RESULT:      -8.7      0.000      0.000
REMARK  2 active torsions:
REMARK  status: ('A' for Active; 'I' for Inactive)
REMARK    1  A    between atoms: C_5  and  C_6 
REMARK    2  A    between atoms: C_17  and  O_18 
ROOT
HETATM    1  C   UNL     1      43.514 -17.122   5.582  1.00  0.00     0.200 C 
HETATM    2  N   UNL     1      44.286 -16.247   6.426  1.00  0.00    -0.336 N 
HETATM    3  C   UNL     1      44.092 -14.890   6.360  1.00  0.00     0.255 C 
HETATM    4  O   UNL     1      44.991 -14.106   6.633  1.00  0.00    -0.268 OA
HETATM    5  C   UNL     1      42.729 -14.450   6.011  1.00  0.00     0.053 A 
HETATM    6  C   UNL     1      41.777 -15.438   5.741  1.00  0.00     0.026 A 
HETATM    7  N   UNL     1      42.103 -16.802   5.717  1.00  0.00    -0.267 NA
HETATM    8  C   UNL     1      42.390 -13.095   6.039  1.00  0.00     0.019 A 
HETATM    9  C   UNL     1      41.067 -12.716   5.812  1.00  0.00     0.001 A 
HETATM   10  C   UNL     1      40.098 -13.691   5.572  1.00  0.00     0.002 A 
HETATM   11  C   UNL     1      40.450 -15.044   5.543  1.00  0.00     0.024 A 
HETATM   12  H   UNL     1      45.269 -16.477   6.521  1.00  0.00     0.164 HD
HETATM   13  H   UNL     1      41.663 -17.294   6.492  1.00  0.00     0.130 HD
ENDROOT
BRANCH   1  14
HETATM   14  C   UNL     1      43.742 -18.577   5.956  1.00  0.00     0.023 A 
HETATM   15  C   UNL     1      44.043 -19.572   4.970  1.00  0.00    -0.014 A 
HETATM   16  C   UNL     1      44.235 -20.917   5.393  1.00  0.00    -0.025 A 
HETATM   17  C   UNL     1      44.164 -19.323   3.578  1.00  0.00     0.013 A 
HETATM   18  C   UNL     1      44.554 -21.920   4.463  1.00  0.00     0.012 A 
HETATM   19  C   UNL     1      44.102 -21.260   6.744  1.00  0.00     0.015 A 
HETATM   20  C   UNL     1      44.682 -21.632   3.109  1.00  0.00     0.001 A 
HETATM   21  C   UNL     1      44.482 -20.334   2.666  1.00  0.00     0.001 A 
HETATM   22  C   UNL     1      43.782 -20.300   7.694  1.00  0.00     0.038 A 
HETATM   23  C   UNL     1      43.613 -18.979   7.304  1.00  0.00     0.076 A 
BRANCH  23  24
HETATM   24  O   UNL     1      43.306 -18.106   8.314  1.00  0.00    -0.360 OA
HETATM   25  H   UNL     1      43.838 -18.329   9.103  1.00  0.00     0.217 HD
ENDBRANCH  23  24
ENDBRANCH   1  14
TORSDOF 2
ENDMDL
MODEL 2
REMARK VINA RESULT:      -8.6      1.853      2.277
REMARK  2 active torsions:
REMARK  status: ('A' for Active; 'I' for Inactive)
REMARK    1  A    between atoms: C_5  and  C_6 
REMARK    2  A    between atoms: C_17  and  O_18 
ROOT
HETATM    1  C   UNL     1      42.568 -16.352   3.976  1.00  0.00     0.200 C 
HETATM    2  N   UNL     1      43.338 -15.212   3.553  1.00  0.00    -0.336 N 
HETATM    3  C   UNL     1      42.702 -14.029   3.265  1.00  0.00     0.255 C 
HETATM    4  O   UNL     1      43.175 -13.232   2.465  1.00  0.00    -0.268 OA
HETATM    5  C   UNL     1      41.469 -13.758   4.026  1.00  0.00     0.053 A 
HETATM    6  C   UNL     1      41.037 -14.733   4.931  1.00  0.00     0.026 A 
HETATM    7  N   UNL     1      41.691 -15.966   5.068  1.00  0.00    -0.267 NA
HETATM    8  C   UNL     1      40.813 -12.531   3.904  1.00  0.00     0.019 A 
HETATM    9  C   UNL     1      39.712 -12.260   4.717  1.00  0.00     0.001 A 
HETATM   10  C   UNL     1      39.286 -13.209   5.647  1.00  0.00     0.002 A 
HETATM   11  C   UNL     1      39.949 -14.435   5.758  1.00  0.00     0.024 A 
HETATM   12  H   UNL     1      44.085 -15.400   2.895  1.00  0.00     0.164 HD
HETATM   13  H   UNL     1      42.145 -16.037   5.977  1.00  0.00     0.130 HD
ENDROOT
BRANCH   1  14
HETATM   14  C   UNL     1      43.476 -17.482   4.430  1.00  0.00     0.023 A 
HETATM   15  C   UNL     1      43.622 -18.687   3.669  1.00  0.00    -0.014 A 
HETATM   16  C   UNL     1      44.484 -19.707   4.161  1.00  0.00    -0.025 A 
HETATM   17  C   UNL     1      42.960 -18.957   2.443  1.00  0.00     0.013 A 
HETATM   18  C   UNL     1      44.673 -20.895   3.437  1.00  0.00     0.012 A 
HETATM   19  C   UNL     1      45.152 -19.541   5.381  1.00  0.00     0.015 A 
HETATM   20  C   UNL     1      44.019 -21.113   2.229  1.00  0.00     0.001 A 
HETATM   21  C   UNL     1      43.159 -20.146   1.734  1.00  0.00     0.001 A 
HETATM   22  C   UNL     1      44.989 -18.384   6.130  1.00  0.00     0.038 A 
HETATM   23  C   UNL     1      44.169 -17.370   5.656  1.00  0.00     0.076 A 
BRANCH  23  24
HETATM   24  O   UNL     1      44.077 -16.267   6.463  1.00  0.00    -0.360 OA
HETATM   25  H   UNL     1      43.458 -15.626   6.060  1.00  0.00     0.217 HD
ENDBRANCH  23  24
ENDBRANCH   1  14
TORSDOF 2
ENDMDL
MODEL 3
REMARK VINA RESULT:      -8.5      2.554      2.865
REMARK  2 active torsions:
REMARK  status: ('A' for Active; 'I' for Inactive)
REMARK    1  A    between atoms: C_5  and  C_6 
REMARK    2  A    between atoms: C_17  and  O_18 
ROOT
HETATM    1  C   UNL     1      42.983 -17.192   3.059  1.00  0.00     0.200 C 
HETATM    2  N   UNL     1      43.447 -15.906   3.511  1.00  0.00    -0.336 N 
HETATM    3  C   UNL     1      42.953 -14.761   2.935  1.00  0.00     0.255 C 
HETATM    4  O   UNL     1      43.615 -13.734   2.894  1.00  0.00    -0.268 OA
HETATM    5  C   UNL     1      41.565 -14.836   2.442  1.00  0.00     0.053 A 
HETATM    6  C   UNL     1      40.897 -16.059   2.564  1.00  0.00     0.026 A 
HETATM    7  N   UNL     1      41.530 -17.208   3.059  1.00  0.00    -0.267 NA
HETATM    8  C   UNL     1      40.921 -13.696   1.955  1.00  0.00     0.019 A 
HETATM    9  C   UNL     1      39.575 -13.771   1.598  1.00  0.00     0.001 A 
HETATM   10  C   UNL     1      38.885 -14.975   1.742  1.00  0.00     0.002 A 
HETATM   11  C   UNL     1      39.541 -16.110   2.228  1.00  0.00     0.024 A 
HETATM   12  H   UNL     1      44.442 -15.831   3.688  1.00  0.00     0.164 HD
HETATM   13  H   UNL     1      41.142 -17.476   3.962  1.00  0.00     0.130 HD
ENDROOT
BRANCH   1  14
HETATM   14  C   UNL     1      43.503 -18.302   3.957  1.00  0.00     0.023 A 
HETATM   15  C   UNL     1      43.825 -19.600   3.443  1.00  0.00    -0.014 A 
HETATM   16  C   UNL     1      44.299 -20.594   4.344  1.00  0.00    -0.025 A 
HETATM   17  C   UNL     1      43.706 -19.986   2.082  1.00  0.00     0.013 A 
HETATM   18  C   UNL     1      44.648 -21.872   3.880  1.00  0.00     0.012 A 
HETATM   19  C   UNL     1      44.417 -20.311   5.711  1.00  0.00     0.015 A 
HETATM   20  C   UNL     1      44.534 -22.205   2.534  1.00  0.00     0.001 A 
HETATM   21  C   UNL     1      44.058 -21.264   1.636  1.00  0.00     0.001 A 
HETATM   22  C   UNL     1      44.077 -19.062   6.211  1.00  0.00     0.038 A 
HETATM   23  C   UNL     1      43.635 -18.073   5.344  1.00  0.00     0.076 A 
BRANCH  23  24
HETATM   24  O   UNL     1      43.330 -16.874   5.932  1.00  0.00    -0.360 OA
HETATM   25  H   UNL     1      42.627 -17.013   6.598  1.00  0.00     0.217 HD
ENDBRANCH  23  24
ENDBRANCH   1  14
TORSDOF 2
ENDMDL
MODEL 4
REMARK VINA RESULT:      -7.8      4.250      5.009
REMARK  2 active torsions:
REMARK  status: ('A' for Active; 'I' for Inactive)
REMARK    1  A    between atoms: C_5  and  C_6 
REMARK    2  A    between atoms: C_17  and  O_18 
ROOT
HETATM    1  C   UNL     1      40.896 -16.308   1.884  1.00  0.00     0.200 C 
HETATM    2  N   UNL     1      41.752 -15.301   1.313  1.00  0.00    -0.336 N 
HETATM    3  C   UNL     1      41.300 -14.531   0.270  1.00  0.00     0.255 C 
HETATM    4  O   UNL     1      42.073 -14.054  -0.549  1.00  0.00    -0.268 OA
HETATM    5  C   UNL     1      39.850 -14.267   0.246  1.00  0.00     0.053 A 
HETATM    6  C   UNL     1      39.066 -14.848   1.249  1.00  0.00     0.026 A 
HETATM    7  N   UNL     1      39.607 -15.720   2.205  1.00  0.00    -0.267 NA
HETATM    8  C   UNL     1      39.301 -13.394  -0.697  1.00  0.00     0.019 A 
HETATM    9  C   UNL     1      37.945 -13.077  -0.629  1.00  0.00     0.001 A 
HETATM   10  C   UNL     1      37.155 -13.624   0.384  1.00  0.00     0.002 A 
HETATM   11  C   UNL     1      37.715 -14.498   1.321  1.00  0.00     0.024 A 
HETATM   12  H   UNL     1      42.723 -15.565   1.186  1.00  0.00     0.164 HD
HETATM   13  H   UNL     1      39.590 -15.297   3.132  1.00  0.00     0.130 HD
ENDROOT
BRANCH   1  14
HETATM   14  C   UNL     1      41.512 -16.897   3.141  1.00  0.00     0.023 A 
HETATM   15  C   UNL     1      42.440 -17.988   3.088  1.00  0.00    -0.014 A 
HETATM   16  C   UNL     1      42.971 -18.494   4.307  1.00  0.00    -0.025 A 
HETATM   17  C   UNL     1      42.878 -18.622   1.896  1.00  0.00     0.013 A 
HETATM   18  C   UNL     1      43.899 -19.547   4.301  1.00  0.00     0.012 A 
HETATM   19  C   UNL     1      42.568 -17.951   5.534  1.00  0.00     0.015 A 
HETATM   20  C   UNL     1      44.318 -20.130   3.109  1.00  0.00     0.001 A 
HETATM   21  C   UNL     1      43.803 -19.670   1.907  1.00  0.00     0.001 A 
HETATM   22  C   UNL     1      41.648 -16.912   5.585  1.00  0.00     0.038 A 
HETATM   23  C   UNL     1      41.137 -16.391   4.405  1.00  0.00     0.076 A 
BRANCH  23  24
HETATM   24  O   UNL     1      40.241 -15.366   4.559  1.00  0.00    -0.360 OA
HETATM   25  H   UNL     1      40.328 -14.750   3.804  1.00  0.00     0.217 HD
ENDBRANCH  23  24
ENDBRANCH   1  14
TORSDOF 2
ENDMDL
MODEL 5
REMARK VINA RESULT:      -7.7      3.365      4.717
REMARK  2 active torsions:
REMARK  status: ('A' for Active; 'I' for Inactive)
REMARK    1  A    between atoms: C_5  and  C_6 
REMARK    2  A    between atoms: C_17  and  O_18 
ROOT
HETATM    1  C   UNL     1      41.398 -16.038   3.161  1.00  0.00     0.200 C 
HETATM    2  N   UNL     1      40.373 -15.976   2.152  1.00  0.00    -0.336 N 
HETATM    3  C   UNL     1      39.446 -14.964   2.182  1.00  0.00     0.255 C 
HETATM    4  O   UNL     1      38.325 -15.115   1.716  1.00  0.00    -0.268 OA
HETATM    5  C   UNL     1      39.910 -13.682   2.743  1.00  0.00     0.053 A 
HETATM    6  C   UNL     1      41.221 -13.621   3.226  1.00  0.00     0.026 A 
HETATM    7  N   UNL     1      42.056 -14.747   3.261  1.00  0.00    -0.267 NA
HETATM    8  C   UNL     1      39.090 -12.551   2.707  1.00  0.00     0.019 A 
HETATM    9  C   UNL     1      39.594 -11.326   3.143  1.00  0.00     0.001 A 
HETATM   10  C   UNL     1      40.910 -11.241   3.599  1.00  0.00     0.002 A 
HETATM   11  C   UNL     1      41.721 -12.380   3.634  1.00  0.00     0.024 A 
HETATM   12  H   UNL     1      39.948 -16.860   1.897  1.00  0.00     0.164 HD
HETATM   13  H   UNL     1      42.826 -14.649   2.601  1.00  0.00     0.130 HD
ENDROOT
BRANCH   1  14
HETATM   14  C   UNL     1      42.425 -17.107   2.827  1.00  0.00     0.023 A 
HETATM   15  C   UNL     1      42.945 -17.993   3.826  1.00  0.00    -0.014 A 
HETATM   16  C   UNL     1      43.911 -18.964   3.441  1.00  0.00    -0.025 A 
HETATM   17  C   UNL     1      42.572 -17.980   5.195  1.00  0.00     0.013 A 
HETATM   18  C   UNL     1      44.431 -19.867   4.382  1.00  0.00     0.012 A 
HETATM   19  C   UNL     1      44.363 -19.028   2.117  1.00  0.00     0.015 A 
HETATM   20  C   UNL     1      44.025 -19.834   5.712  1.00  0.00     0.001 A 
HETATM   21  C   UNL     1      43.099 -18.887   6.119  1.00  0.00     0.001 A 
HETATM   22  C   UNL     1      43.878 -18.150   1.157  1.00  0.00     0.038 A 
HETATM   23  C   UNL     1      42.920 -17.211   1.508  1.00  0.00     0.076 A 
BRANCH  23  24
HETATM   24  O   UNL     1      42.500 -16.395   0.491  1.00  0.00    -0.360 OA
HETATM   25  H   UNL     1      41.569 -16.601   0.278  1.00  0.00     0.217 HD
ENDBRANCH  23  24
ENDBRANCH   1  14
TORSDOF 2
ENDMDL
MODEL 6
REMARK VINA RESULT:      -7.7      2.886      7.202
REMARK  2 active torsions:
REMARK  status: ('A' for Active; 'I' for Inactive)
REMARK    1  A    between atoms: C_5  and  C_6 
REMARK    2  A    between atoms: C_17  and  O_18 
ROOT
HETATM    1  C   UNL     1      42.405 -17.487   3.333  1.00  0.00     0.200 C 
HETATM    2  N   UNL     1      43.637 -17.350   4.065  1.00  0.00    -0.336 N 
HETATM    3  C   UNL     1      44.284 -18.469   4.528  1.00  0.00     0.255 C 
HETATM    4  O   UNL     1      44.995 -18.426   5.522  1.00  0.00    -0.268 OA
HETATM    5  C   UNL     1      44.121 -19.689   3.716  1.00  0.00     0.053 A 
HETATM    6  C   UNL     1      43.301 -19.613   2.585  1.00  0.00     0.026 A 
HETATM    7  N   UNL     1      42.584 -18.451   2.261  1.00  0.00    -0.267 NA
HETATM    8  C   UNL     1      44.835 -20.850   4.024  1.00  0.00     0.019 A 
HETATM    9  C   UNL     1      44.747 -21.953   3.176  1.00  0.00     0.001 A 
HETATM   10  C   UNL     1      43.958 -21.884   2.027  1.00  0.00     0.002 A 
HETATM   11  C   UNL     1      43.245 -20.718   1.730  1.00  0.00     0.024 A 
HETATM   12  H   UNL     1      43.668 -16.597   4.743  1.00  0.00     0.164 HD
HETATM   13  H   UNL     1      42.948 -18.026   1.410  1.00  0.00     0.130 HD
ENDROOT
BRANCH   1  14
HETATM   14  C   UNL     1      41.969 -16.154   2.748  1.00  0.00     0.023 A 
HETATM   15  C   UNL     1      41.200 -15.213   3.506  1.00  0.00    -0.014 A 
HETATM   16  C   UNL     1      40.820 -13.987   2.890  1.00  0.00    -0.025 A 
HETATM   17  C   UNL     1      40.772 -15.406   4.845  1.00  0.00     0.013 A 
HETATM   18  C   UNL     1      40.084 -13.026   3.602  1.00  0.00     0.012 A 
HETATM   19  C   UNL     1      41.170 -13.726   1.559  1.00  0.00     0.015 A 
HETATM   20  C   UNL     1      39.700 -13.247   4.921  1.00  0.00     0.001 A 
HETATM   21  C   UNL     1      40.040 -14.439   5.540  1.00  0.00     0.001 A 
HETATM   22  C   UNL     1      41.892 -14.651   0.818  1.00  0.00     0.038 A 
HETATM   23  C   UNL     1      42.290 -15.842   1.409  1.00  0.00     0.076 A 
BRANCH  23  24
HETATM   24  O   UNL     1      43.002 -16.687   0.599  1.00  0.00    -0.360 OA
HETATM   25  H   UNL     1      43.145 -17.534   1.067  1.00  0.00     0.217 HD
ENDBRANCH  23  24
ENDBRANCH   1  14
TORSDOF 2
ENDMDL
MODEL 7
REMARK VINA RESULT:      -7.5      3.165      3.717
REMARK  2 active torsions:
REMARK  status: ('A' for Active; 'I' for Inactive)
REMARK    1  A    between atoms: C_5  and  C_6 
REMARK    2  A    between atoms: C_17  and  O_18 
ROOT
HETATM    1  C   UNL     1      42.757 -16.129   3.643  1.00  0.00     0.200 C 
HETATM    2  N   UNL     1      41.458 -15.945   4.237  1.00  0.00    -0.336 N 
HETATM    3  C   UNL     1      40.556 -15.091   3.652  1.00  0.00     0.255 C 
HETATM    4  O   UNL     1      39.700 -14.521   4.315  1.00  0.00    -0.268 OA
HETATM    5  C   UNL     1      40.644 -14.965   2.186  1.00  0.00     0.053 A 
HETATM    6  C   UNL     1      41.651 -15.683   1.532  1.00  0.00     0.026 A 
HETATM    7  N   UNL     1      42.604 -16.438   2.232  1.00  0.00    -0.267 NA
HETATM    8  C   UNL     1      39.697 -14.223   1.477  1.00  0.00     0.019 A 
HETATM    9  C   UNL     1      39.740 -14.211   0.083  1.00  0.00     0.001 A 
HETATM   10  C   UNL     1      40.719 -14.947  -0.586  1.00  0.00     0.002 A 
HETATM   11  C   UNL     1      41.664 -15.684   0.134  1.00  0.00     0.024 A 
HETATM   12  H   UNL     1      41.439 -15.869   5.247  1.00  0.00     0.164 HD
HETATM   13  H   UNL     1      42.474 -17.434   2.061  1.00  0.00     0.130 HD
ENDROOT
BRANCH   1  14
HETATM   14  C   UNL     1      43.512 -17.255   4.329  1.00  0.00     0.023 A 
HETATM   15  C   UNL     1      43.720 -18.522   3.694  1.00  0.00    -0.014 A 
HETATM   16  C   UNL     1      44.430 -19.533   4.400  1.00  0.00    -0.025 A 
HETATM   17  C   UNL     1      43.264 -18.861   2.393  1.00  0.00     0.013 A 
HETATM   18  C   UNL     1      44.676 -20.782   3.807  1.00  0.00     0.012 A 
HETATM   19  C   UNL     1      44.888 -19.297   5.702  1.00  0.00     0.015 A 
HETATM   20  C   UNL     1      44.228 -21.069   2.522  1.00  0.00     0.001 A 
HETATM   21  C   UNL     1      43.518 -20.110   1.817  1.00  0.00     0.001 A 
HETATM   22  C   UNL     1      44.661 -18.079   6.327  1.00  0.00     0.038 A 
HETATM   23  C   UNL     1      43.991 -17.073   5.646  1.00  0.00     0.076 A 
BRANCH  23  24
HETATM   24  O   UNL     1      43.821 -15.907   6.344  1.00  0.00    -0.360 OA
HETATM   25  H   UNL     1      43.601 -15.189   5.717  1.00  0.00     0.217 HD
ENDBRANCH  23  24
ENDBRANCH   1  14
TORSDOF 2
ENDMDL
MODEL 8
REMARK VINA RESULT:      -7.5      1.984      3.374
REMARK  2 active torsions:
REMARK  status: ('A' for Active; 'I' for Inactive)
REMARK    1  A    between atoms: C_5  and  C_6 
REMARK    2  A    between atoms: C_17  and  O_18 
ROOT
HETATM    1  C   UNL     1      42.973 -17.334   4.608  1.00  0.00     0.200 C 
HETATM    2  N   UNL     1      41.603 -17.457   5.032  1.00  0.00    -0.336 N 
HETATM    3  C   UNL     1      41.001 -16.421   5.704  1.00  0.00     0.255 C 
HETATM    4  O   UNL     1      40.088 -16.622   6.494  1.00  0.00    -0.268 OA
HETATM    5  C   UNL     1      41.475 -15.069   5.359  1.00  0.00     0.053 A 
HETATM    6  C   UNL     1      42.509 -14.961   4.424  1.00  0.00     0.026 A 
HETATM    7  N   UNL     1      43.143 -16.088   3.881  1.00  0.00    -0.267 NA
HETATM    8  C   UNL     1      40.846 -13.938   5.887  1.00  0.00     0.019 A 
HETATM    9  C   UNL     1      41.243 -12.672   5.460  1.00  0.00     0.001 A 
HETATM   10  C   UNL     1      42.252 -12.547   4.505  1.00  0.00     0.002 A 
HETATM   11  C   UNL     1      42.877 -13.685   3.985  1.00  0.00     0.024 A 
HETATM   12  H   UNL     1      41.338 -18.355   5.422  1.00  0.00     0.164 HD
HETATM   13  H   UNL     1      42.930 -16.182   2.889  1.00  0.00     0.130 HD
ENDROOT
BRANCH   1  14
HETATM   14  C   UNL     1      43.373 -18.499   3.719  1.00  0.00     0.023 A 
HETATM   15  C   UNL     1      43.877 -19.725   4.262  1.00  0.00    -0.014 A 
HETATM   16  C   UNL     1      44.239 -20.771   3.367  1.00  0.00    -0.025 A 
HETATM   17  C   UNL     1      44.052 -19.988   5.645  1.00  0.00     0.013 A 
HETATM   18  C   UNL     1      44.717 -21.997   3.856  1.00  0.00     0.012 A 
HETATM   19  C   UNL     1      44.131 -20.588   1.983  1.00  0.00     0.015 A 
HETATM   20  C   UNL     1      44.857 -22.222   5.222  1.00  0.00     0.001 A 
HETATM   21  C   UNL     1      44.529 -21.215   6.116  1.00  0.00     0.001 A 
HETATM   22  C   UNL     1      43.669 -19.389   1.458  1.00  0.00     0.038 A 
HETATM   23  C   UNL     1      43.289 -18.366   2.315  1.00  0.00     0.076 A 
BRANCH  23  24
HETATM   24  O   UNL     1      42.842 -17.225   1.702  1.00  0.00    -0.360 OA
HETATM   25  H   UNL     1      42.285 -17.471   0.937  1.00  0.00     0.217 HD
ENDBRANCH  23  24
ENDBRANCH   1  14
TORSDOF 2
ENDMDL
MODEL 9
REMARK VINA RESULT:      -7.4      2.206      2.681
REMARK  2 active torsions:
REMARK  status: ('A' for Active; 'I' for Inactive)
REMARK    1  A    between atoms: C_5  and  C_6 
REMARK    2  A    between atoms: C_17  and  O_18 
ROOT
HETATM    1  C   UNL     1      42.892 -17.583   4.587  1.00  0.00     0.200 C 
HETATM    2  N   UNL     1      41.832 -17.220   5.492  1.00  0.00    -0.336 N 
HETATM    3  C   UNL     1      41.073 -16.103   5.241  1.00  0.00     0.255 C 
HETATM    4  O   UNL     1      40.543 -15.479   6.149  1.00  0.00    -0.268 OA
HETATM    5  C   UNL     1      40.887 -15.757   3.820  1.00  0.00     0.053 A 
HETATM    6  C   UNL     1      41.524 -16.559   2.867  1.00  0.00     0.026 A 
HETATM    7  N   UNL     1      42.379 -17.610   3.228  1.00  0.00    -0.267 NA
HETATM    8  C   UNL     1      40.031 -14.717   3.447  1.00  0.00     0.019 A 
HETATM    9  C   UNL     1      39.788 -14.483   2.094  1.00  0.00     0.001 A 
HETATM   10  C   UNL     1      40.391 -15.293   1.131  1.00  0.00     0.002 A 
HETATM   11  C   UNL     1      41.248 -16.329   1.515  1.00  0.00     0.024 A 
HETATM   12  H   UNL     1      42.042 -17.311   6.479  1.00  0.00     0.164 HD
HETATM   13  H   UNL     1      41.971 -18.511   2.982  1.00  0.00     0.130 HD
ENDROOT
BRANCH   1  14
HETATM   14  C   UNL     1      43.465 -18.945   4.940  1.00  0.00     0.023 A 
HETATM   15  C   UNL     1      43.762 -19.923   3.936  1.00  0.00    -0.014 A 
HETATM   16  C   UNL     1      44.288 -21.181   4.342  1.00  0.00    -0.025 A 
HETATM   17  C   UNL     1      43.565 -19.739   2.543  1.00  0.00     0.013 A 
HETATM   18  C   UNL     1      44.614 -22.160   3.390  1.00  0.00     0.012 A 
HETATM   19  C   UNL     1      44.483 -21.462   5.700  1.00  0.00     0.015 A 
HETATM   20  C   UNL     1      44.424 -21.934   2.030  1.00  0.00     0.001 A 
HETATM   21  C   UNL     1      43.895 -20.725   1.607  1.00  0.00     0.001 A 
HETATM   22  C   UNL     1      44.169 -20.523   6.673  1.00  0.00     0.038 A 
HETATM   23  C   UNL     1      43.675 -19.283   6.295  1.00  0.00     0.076 A 
BRANCH  23  24
HETATM   24  O   UNL     1      43.401 -18.424   7.327  1.00  0.00    -0.360 OA
HETATM   25  H   UNL     1      42.650 -18.776   7.845  1.00  0.00     0.217 HD
ENDBRANCH  23  24
ENDBRANCH   1  14
TORSDOF 2
ENDMDL
MODEL 10
REMARK VINA RESULT:      -7.4      3.762      7.763
REMARK  2 active torsions:
REMARK  status: ('A' for Active; 'I' for Inactive)
REMARK    1  A    between atoms: C_5  and  C_6 
REMARK    2  A    between atoms: C_17  and  O_18 
ROOT
HETATM    1  C   UNL     1      41.183 -15.527   2.632  1.00  0.00     0.200 C 
HETATM    2  N   UNL     1      41.514 -15.475   4.032  1.00  0.00    -0.336 N 
HETATM    3  C   UNL     1      41.931 -16.613   4.677  1.00  0.00     0.255 C 
HETATM    4  O   UNL     1      41.745 -16.767   5.877  1.00  0.00    -0.268 OA
HETATM    5  C   UNL     1      42.667 -17.588   3.852  1.00  0.00     0.053 A 
HETATM    6  C   UNL     1      42.838 -17.293   2.495  1.00  0.00     0.026 A 
HETATM    7  N   UNL     1      42.270 -16.157   1.902  1.00  0.00    -0.267 NA
HETATM    8  C   UNL     1      43.245 -18.719   4.433  1.00  0.00     0.019 A 
HETATM    9  C   UNL     1      44.028 -19.567   3.650  1.00  0.00     0.001 A 
HETATM   10  C   UNL     1      44.235 -19.271   2.302  1.00  0.00     0.002 A 
HETATM   11  C   UNL     1      43.649 -18.137   1.730  1.00  0.00     0.024 A 
HETATM   12  H   UNL     1      40.892 -14.926   4.614  1.00  0.00     0.164 HD
HETATM   13  H   UNL     1      42.990 -15.493   1.623  1.00  0.00     0.130 HD
ENDROOT
BRANCH   1  14
HETATM   14  C   UNL     1      40.943 -14.132   2.079  1.00  0.00     0.023 A 
HETATM   15  C   UNL     1      39.686 -13.754   1.502  1.00  0.00    -0.014 A 
HETATM   16  C   UNL     1      39.536 -12.433   0.996  1.00  0.00    -0.025 A 
HETATM   17  C   UNL     1      38.558 -14.607   1.387  1.00  0.00     0.013 A 
HETATM   18  C   UNL     1      38.316 -12.013   0.443  1.00  0.00     0.012 A 
HETATM   19  C   UNL     1      40.609 -11.533   1.038  1.00  0.00     0.015 A 
HETATM   20  C   UNL     1      37.227 -12.875   0.366  1.00  0.00     0.001 A 
HETATM   21  C   UNL     1      37.350 -14.173   0.833  1.00  0.00     0.001 A 
HETATM   22  C   UNL     1      41.834 -11.910   1.571  1.00  0.00     0.038 A 
HETATM   23  C   UNL     1      41.992 -13.187   2.089  1.00  0.00     0.076 A 
BRANCH  23  24
HETATM   24  O   UNL     1      43.234 -13.462   2.598  1.00  0.00    -0.360 OA
HETATM   25  H   UNL     1      43.252 -13.222   3.546  1.00  0.00     0.217 HD
ENDBRANCH  23  24
ENDBRANCH   1  14
TORSDOF 2
ENDMDL
