MODEL 1
REMARK VINA RESULT:      -8.5      0.000      0.000
REMARK  9 active torsions:
REMARK  status: ('A' for Active; 'I' for Inactive)
REMARK    1  A    between atoms: O_2  and  C_3 
REMARK    2  A    between atoms: C_4  and  O_5 
REMARK    3  A    between atoms: O_5  and  C_6 
REMARK    4  A    between atoms: C_6  and  C_7 
REMARK    5  A    between atoms: C_7  and  C_8 
REMARK    6  A    between atoms: C_8  and  C_9 
REMARK    7  A    between atoms: C_9  and  N_10 
REMARK       I    between atoms: N_10  and  C_11 
REMARK    8  A    between atoms: C_11  and  C_12 
REMARK    9  A    between atoms: C_16  and  C_17 
ROOT
HETATM    1  N   UNL     1      44.241 -13.396   7.878  1.00  0.00    -0.345 N 
HETATM    2  C   UNL     1      45.061 -12.632   8.667  1.00  0.00     0.270 C 
HETATM    3  O   UNL     1      46.223 -12.384   8.364  1.00  0.00    -0.266 OA
HETATM    4  H   UNL     1      43.326 -13.662   8.207  1.00  0.00     0.163 HD
ENDROOT
BRANCH   2   5
HETATM    5  C   UNL     1      44.468 -12.146   9.884  1.00  0.00     0.120 A 
HETATM    6  N   UNL     1      44.129 -12.990  10.902  1.00  0.00    -0.272 N 
HETATM    7  H   UNL     1      44.248 -14.000  10.919  1.00  0.00     0.189 HD
HETATM    8  N   UNL     1      43.589 -12.381  11.967  1.00  0.00    -0.174 NA
HETATM    9  C   UNL     1      43.576 -11.077  11.647  1.00  0.00     0.089 A 
HETATM   10  C   UNL     1      44.119 -10.891  10.343  1.00  0.00     0.071 A 
BRANCH   9  11
HETATM   11  C   UNL     1      43.062 -10.062  12.577  1.00  0.00    -0.003 A 
HETATM   12  C   UNL     1      42.723 -10.396  13.899  1.00  0.00     0.053 A 
HETATM   13  C   UNL     1      42.241  -9.398  14.724  1.00  0.00     0.106 A 
HETATM   14  C   UNL     1      42.086  -8.104  14.291  1.00  0.00     0.105 A 
HETATM   15  O   UNL     1      41.869  -9.559  16.022  1.00  0.00    -0.323 OA
HETATM   16  O   UNL     1      41.598  -7.286  15.260  1.00  0.00    -0.323 OA
HETATM   17  C   UNL     1      42.406  -7.731  13.006  1.00  0.00     0.040 A 
HETATM   18  C   UNL     1      41.460  -8.214  16.355  1.00  0.00     0.352 A 
HETATM   19  C   UNL     1      42.897  -8.722  12.147  1.00  0.00     0.017 A 
ENDBRANCH   9  11
ENDBRANCH   2   5
BRANCH   1  20
HETATM   20  C   UNL     1      44.734 -13.988   6.664  1.00  0.00     0.217 C 
BRANCH  20  21
HETATM   21  C   UNL     1      43.566 -14.566   5.882  1.00  0.00    -0.085 C 
BRANCH  21  22
HETATM   22  C   UNL     1      42.564 -15.063   5.211  1.00  0.00    -0.078 C 
BRANCH  22  23
HETATM   23  C   UNL     1      41.396 -15.642   4.429  1.00  0.00     0.269 C 
BRANCH  23  24
HETATM   24  O   UNL     1      41.336 -17.059   4.593  1.00  0.00    -0.337 OA
BRANCH  24  25
HETATM   25  C   UNL     1      42.312 -17.815   4.000  1.00  0.00     0.103 A 
HETATM   26  C   UNL     1      42.225 -18.048   2.616  1.00  0.00     0.101 A 
HETATM   27  C   UNL     1      43.146 -18.902   1.995  1.00  0.00     0.039 A 
HETATM   28  C   UNL     1      44.169 -19.504   2.725  1.00  0.00     0.003 A 
HETATM   29  C   UNL     1      44.266 -19.270   4.091  1.00  0.00     0.003 A 
HETATM   30  C   UNL     1      43.338 -18.439   4.727  1.00  0.00     0.040 A 
BRANCH  26  31
HETATM   31  O   UNL     1      41.280 -17.553   1.754  1.00  0.00    -0.353 OA
HETATM   32  C   UNL     1      41.728 -16.598   0.800  1.00  0.00     0.210 C 
ENDBRANCH  26  31
ENDBRANCH  24  25
ENDBRANCH  23  24
ENDBRANCH  22  23
ENDBRANCH  21  22
ENDBRANCH  20  21
ENDBRANCH   1  20
TORSDOF 9
ENDMDL
MODEL 2
REMARK VINA RESULT:      -8.3      2.930     11.655
REMARK  9 active torsions:
REMARK  status: ('A' for Active; 'I' for Inactive)
REMARK    1  A    between atoms: O_2  and  C_3 
REMARK    2  A    between atoms: C_4  and  O_5 
REMARK    3  A    between atoms: O_5  and  C_6 
REMARK    4  A    between atoms: C_6  and  C_7 
REMARK    5  A    between atoms: C_7  and  C_8 
REMARK    6  A    between atoms: C_8  and  C_9 
REMARK    7  A    between atoms: C_9  and  N_10 
REMARK       I    between atoms: N_10  and  C_11 
REMARK    8  A    between atoms: C_11  and  C_12 
REMARK    9  A    between atoms: C_16  and  C_17 
ROOT
HETATM    1  N   UNL     1      40.284 -13.482   6.321  1.00  0.00    -0.345 N 
HETATM    2  C   UNL     1      41.408 -13.512   5.538  1.00  0.00     0.270 C 
HETATM    3  O   UNL     1      41.782 -12.544   4.884  1.00  0.00    -0.266 OA
HETATM    4  H   UNL     1      39.952 -14.324   6.764  1.00  0.00     0.163 HD
ENDROOT
BRANCH   2   5
HETATM    5  C   UNL     1      42.120 -14.762   5.529  1.00  0.00     0.120 A 
HETATM    6  N   UNL     1      42.813 -15.198   6.622  1.00  0.00    -0.272 N 
HETATM    7  H   UNL     1      42.903 -14.721   7.515  1.00  0.00     0.189 HD
HETATM    8  N   UNL     1      43.419 -16.382   6.454  1.00  0.00    -0.174 NA
HETATM    9  C   UNL     1      43.109 -16.751   5.201  1.00  0.00     0.089 A 
HETATM   10  C   UNL     1      42.296 -15.756   4.587  1.00  0.00     0.071 A 
BRANCH   9  11
HETATM   11  C   UNL     1      43.583 -18.022   4.633  1.00  0.00    -0.003 A 
HETATM   12  C   UNL     1      43.069 -18.509   3.420  1.00  0.00     0.053 A 
HETATM   13  C   UNL     1      43.551 -19.712   2.940  1.00  0.00     0.106 A 
HETATM   14  C   UNL     1      44.510 -20.434   3.609  1.00  0.00     0.105 A 
HETATM   15  O   UNL     1      43.158 -20.317   1.788  1.00  0.00    -0.323 OA
HETATM   16  O   UNL     1      44.840 -21.583   2.965  1.00  0.00    -0.323 OA
HETATM   17  C   UNL     1      45.042 -19.994   4.799  1.00  0.00     0.040 A 
HETATM   18  C   UNL     1      43.978 -21.505   1.811  1.00  0.00     0.352 A 
HETATM   19  C   UNL     1      44.572 -18.778   5.310  1.00  0.00     0.017 A 
ENDBRANCH   9  11
ENDBRANCH   2   5
BRANCH   1  20
HETATM   20  C   UNL     1      39.454 -12.308   6.369  1.00  0.00     0.217 C 
BRANCH  20  21
HETATM   21  C   UNL     1      39.539 -11.694   7.757  1.00  0.00    -0.085 C 
BRANCH  21  22
HETATM   22  C   UNL     1      39.611 -11.168   8.948  1.00  0.00    -0.078 C 
BRANCH  22  23
HETATM   23  C   UNL     1      39.696 -10.553  10.336  1.00  0.00     0.269 C 
BRANCH  23  24
HETATM   24  O   UNL     1      40.501 -11.361  11.195  1.00  0.00    -0.337 OA
BRANCH  24  25
HETATM   25  C   UNL     1      41.397 -10.728  12.016  1.00  0.00     0.103 A 
HETATM   26  C   UNL     1      42.692 -10.487  11.525  1.00  0.00     0.101 A 
HETATM   27  C   UNL     1      43.666  -9.938  12.371  1.00  0.00     0.039 A 
HETATM   28  C   UNL     1      43.361  -9.600  13.688  1.00  0.00     0.003 A 
HETATM   29  C   UNL     1      42.079  -9.827  14.175  1.00  0.00     0.003 A 
HETATM   30  C   UNL     1      41.106 -10.397  13.348  1.00  0.00     0.040 A 
BRANCH  26  31
HETATM   31  O   UNL     1      43.166 -10.771  10.269  1.00  0.00    -0.353 OA
HETATM   32  C   UNL     1      44.577 -10.728  10.098  1.00  0.00     0.210 C 
ENDBRANCH  26  31
ENDBRANCH  24  25
ENDBRANCH  23  24
ENDBRANCH  22  23
ENDBRANCH  21  22
ENDBRANCH  20  21
ENDBRANCH   1  20
TORSDOF 9
ENDMDL
MODEL 3
REMARK VINA RESULT:      -8.3      1.503      2.471
REMARK  9 active torsions:
REMARK  status: ('A' for Active; 'I' for Inactive)
REMARK    1  A    between atoms: O_2  and  C_3 
REMARK    2  A    between atoms: C_4  and  O_5 
REMARK    3  A    between atoms: O_5  and  C_6 
REMARK    4  A    between atoms: C_6  and  C_7 
REMARK    5  A    between atoms: C_7  and  C_8 
REMARK    6  A    between atoms: C_8  and  C_9 
REMARK    7  A    between atoms: C_9  and  N_10 
REMARK       I    between atoms: N_10  and  C_11 
REMARK    8  A    between atoms: C_11  and  C_12 
REMARK    9  A    between atoms: C_16  and  C_17 
ROOT
HETATM    1  N   UNL     1      44.204 -12.896   8.236  1.00  0.00    -0.345 N 
HETATM    2  C   UNL     1      44.680 -12.418   9.429  1.00  0.00     0.270 C 
HETATM    3  O   UNL     1      45.840 -12.586   9.790  1.00  0.00    -0.266 OA
HETATM    4  H   UNL     1      43.222 -12.827   8.019  1.00  0.00     0.163 HD
ENDROOT
BRANCH   2   5
HETATM    5  C   UNL     1      43.723 -11.711  10.236  1.00  0.00     0.120 A 
HETATM    6  N   UNL     1      42.489 -11.377   9.756  1.00  0.00    -0.272 N 
HETATM    7  H   UNL     1      42.124 -11.576   8.828  1.00  0.00     0.189 HD
HETATM    8  N   UNL     1      41.714 -10.723  10.633  1.00  0.00    -0.174 NA
HETATM    9  C   UNL     1      42.461 -10.625  11.744  1.00  0.00     0.089 A 
HETATM   10  C   UNL     1      43.732 -11.232  11.532  1.00  0.00     0.071 A 
BRANCH   9  11
HETATM   11  C   UNL     1      41.952  -9.971  12.958  1.00  0.00    -0.003 A 
HETATM   12  C   UNL     1      40.854  -9.096  12.903  1.00  0.00     0.053 A 
HETATM   13  C   UNL     1      40.424  -8.508  14.077  1.00  0.00     0.106 A 
HETATM   14  C   UNL     1      41.034  -8.756  15.283  1.00  0.00     0.105 A 
HETATM   15  O   UNL     1      39.382  -7.642  14.191  1.00  0.00    -0.323 OA
HETATM   16  O   UNL     1      40.455  -8.077  16.308  1.00  0.00    -0.323 OA
HETATM   17  C   UNL     1      42.110  -9.606  15.384  1.00  0.00     0.040 A 
HETATM   18  C   UNL     1      39.409  -7.371  15.609  1.00  0.00     0.352 A 
HETATM   19  C   UNL     1      42.568 -10.216  14.210  1.00  0.00     0.017 A 
ENDBRANCH   9  11
ENDBRANCH   2   5
BRANCH   1  20
HETATM   20  C   UNL     1      45.047 -13.669   7.365  1.00  0.00     0.217 C 
BRANCH  20  21
HETATM   21  C   UNL     1      44.212 -14.220   6.222  1.00  0.00    -0.085 C 
BRANCH  21  22
HETATM   22  C   UNL     1      43.494 -14.694   5.242  1.00  0.00    -0.078 C 
BRANCH  22  23
HETATM   23  C   UNL     1      42.657 -15.246   4.098  1.00  0.00     0.269 C 
BRANCH  23  24
HETATM   24  O   UNL     1      42.112 -16.519   4.443  1.00  0.00    -0.337 OA
BRANCH  24  25
HETATM   25  C   UNL     1      42.811 -17.637   4.071  1.00  0.00     0.103 A 
HETATM   26  C   UNL     1      43.305 -18.480   5.082  1.00  0.00     0.101 A 
HETATM   27  C   UNL     1      44.112 -19.574   4.744  1.00  0.00     0.039 A 
HETATM   28  C   UNL     1      44.411 -19.858   3.413  1.00  0.00     0.003 A 
HETATM   29  C   UNL     1      43.918 -19.034   2.408  1.00  0.00     0.003 A 
HETATM   30  C   UNL     1      43.131 -17.925   2.735  1.00  0.00     0.040 A 
BRANCH  26  31
HETATM   31  O   UNL     1      43.122 -18.341   6.435  1.00  0.00    -0.353 OA
HETATM   32  C   UNL     1      43.842 -19.240   7.269  1.00  0.00     0.210 C 
ENDBRANCH  26  31
ENDBRANCH  24  25
ENDBRANCH  23  24
ENDBRANCH  22  23
ENDBRANCH  21  22
ENDBRANCH  20  21
ENDBRANCH   1  20
TORSDOF 9
ENDMDL
MODEL 4
REMARK VINA RESULT:      -8.0      6.800     11.262
REMARK  9 active torsions:
REMARK  status: ('A' for Active; 'I' for Inactive)
REMARK    1  A    between atoms: O_2  and  C_3 
REMARK    2  A    between atoms: C_4  and  O_5 
REMARK    3  A    between atoms: O_5  and  C_6 
REMARK    4  A    between atoms: C_6  and  C_7 
REMARK    5  A    between atoms: C_7  and  C_8 
REMARK    6  A    between atoms: C_8  and  C_9 
REMARK    7  A    between atoms: C_9  and  N_10 
REMARK       I    between atoms: N_10  and  C_11 
REMARK    8  A    between atoms: C_11  and  C_12 
REMARK    9  A    between atoms: C_16  and  C_17 
ROOT
HETATM    1  N   UNL     1      42.443 -14.335   4.624  1.00  0.00    -0.345 N 
HETATM    2  C   UNL     1      43.140 -13.841   3.553  1.00  0.00     0.270 C 
HETATM    3  O   UNL     1      44.339 -13.590   3.606  1.00  0.00    -0.266 OA
HETATM    4  H   UNL     1      41.441 -14.433   4.575  1.00  0.00     0.163 HD
ENDROOT
BRANCH   2   5
HETATM    5  C   UNL     1      42.366 -13.628   2.359  1.00  0.00     0.120 A 
HETATM    6  N   UNL     1      42.277 -12.397   1.774  1.00  0.00    -0.272 N 
HETATM    7  H   UNL     1      42.719 -11.540   2.093  1.00  0.00     0.189 HD
HETATM    8  N   UNL     1      41.520 -12.366   0.668  1.00  0.00    -0.174 NA
HETATM    9  C   UNL     1      41.095 -13.629   0.507  1.00  0.00     0.089 A 
HETATM   10  C   UNL     1      41.604 -14.452   1.553  1.00  0.00     0.071 A 
BRANCH   9  11
HETATM   11  C   UNL     1      40.235 -14.014  -0.621  1.00  0.00    -0.003 A 
HETATM   12  C   UNL     1      40.700 -14.882  -1.623  1.00  0.00     0.053 A 
HETATM   13  C   UNL     1      39.846 -15.202  -2.661  1.00  0.00     0.106 A 
HETATM   14  C   UNL     1      38.569 -14.702  -2.737  1.00  0.00     0.105 A 
HETATM   15  O   UNL     1      40.144 -16.023  -3.703  1.00  0.00    -0.323 OA
HETATM   16  O   UNL     1      37.902 -15.143  -3.835  1.00  0.00    -0.323 OA
HETATM   17  C   UNL     1      38.071 -13.851  -1.778  1.00  0.00     0.040 A 
HETATM   18  C   UNL     1      38.907 -15.979  -4.446  1.00  0.00     0.352 A 
HETATM   19  C   UNL     1      38.915 -13.508  -0.714  1.00  0.00     0.017 A 
ENDBRANCH   9  11
ENDBRANCH   2   5
BRANCH   1  20
HETATM   20  C   UNL     1      43.091 -14.538   5.892  1.00  0.00     0.217 C 
BRANCH  20  21
HETATM   21  C   UNL     1      43.494 -15.998   6.018  1.00  0.00    -0.085 C 
BRANCH  21  22
HETATM   22  C   UNL     1      43.839 -17.251   6.126  1.00  0.00    -0.078 C 
BRANCH  22  23
HETATM   23  C   UNL     1      44.241 -18.712   6.252  1.00  0.00     0.269 C 
BRANCH  23  24
HETATM   24  O   UNL     1      45.125 -19.082   5.194  1.00  0.00    -0.337 OA
BRANCH  24  25
HETATM   25  C   UNL     1      44.584 -19.678   4.086  1.00  0.00     0.103 A 
HETATM   26  C   UNL     1      44.759 -21.064   3.924  1.00  0.00     0.101 A 
HETATM   27  C   UNL     1      44.312 -21.690   2.753  1.00  0.00     0.039 A 
HETATM   28  C   UNL     1      43.669 -20.963   1.754  1.00  0.00     0.003 A 
HETATM   29  C   UNL     1      43.485 -19.594   1.912  1.00  0.00     0.003 A 
HETATM   30  C   UNL     1      43.948 -18.954   3.066  1.00  0.00     0.040 A 
BRANCH  26  31
HETATM   31  O   UNL     1      45.380 -21.925   4.794  1.00  0.00    -0.353 OA
HETATM   32  C   UNL     1      44.580 -22.451   5.845  1.00  0.00     0.210 C 
ENDBRANCH  26  31
ENDBRANCH  24  25
ENDBRANCH  23  24
ENDBRANCH  22  23
ENDBRANCH  21  22
ENDBRANCH  20  21
ENDBRANCH   1  20
TORSDOF 9
ENDMDL
MODEL 5
REMARK VINA RESULT:      -8.0      7.824     10.980
REMARK  9 active torsions:
REMARK  status: ('A' for Active; 'I' for Inactive)
REMARK    1  A    between atoms: O_2  and  C_3 
REMARK    2  A    between atoms: C_4  and  O_5 
REMARK    3  A    between atoms: O_5  and  C_6 
REMARK    4  A    between atoms: C_6  and  C_7 
REMARK    5  A    between atoms: C_7  and  C_8 
REMARK    6  A    between atoms: C_8  and  C_9 
REMARK    7  A    between atoms: C_9  and  N_10 
REMARK       I    between atoms: N_10  and  C_11 
REMARK    8  A    between atoms: C_11  and  C_12 
REMARK    9  A    between atoms: C_16  and  C_17 
ROOT
HETATM    1  N   UNL     1      40.989 -13.689   3.553  1.00  0.00    -0.345 N 
HETATM    2  C   UNL     1      42.231 -14.009   3.069  1.00  0.00     0.270 C 
HETATM    3  O   UNL     1      42.876 -13.249   2.355  1.00  0.00    -0.266 OA
HETATM    4  H   UNL     1      40.447 -14.376   4.052  1.00  0.00     0.163 HD
ENDROOT
BRANCH   2   5
HETATM    5  C   UNL     1      42.726 -15.304   3.451  1.00  0.00     0.120 A 
HETATM    6  N   UNL     1      43.191 -15.550   4.711  1.00  0.00    -0.272 N 
HETATM    7  H   UNL     1      43.240 -14.887   5.480  1.00  0.00     0.189 HD
HETATM    8  N   UNL     1      43.614 -16.807   4.908  1.00  0.00    -0.174 NA
HETATM    9  C   UNL     1      43.414 -17.424   3.733  1.00  0.00     0.089 A 
HETATM   10  C   UNL     1      42.859 -16.510   2.791  1.00  0.00     0.071 A 
BRANCH   9  11
HETATM   11  C   UNL     1      43.746 -18.843   3.543  1.00  0.00    -0.003 A 
HETATM   12  C   UNL     1      44.238 -19.620   4.605  1.00  0.00     0.053 A 
HETATM   13  C   UNL     1      44.537 -20.947   4.363  1.00  0.00     0.106 A 
HETATM   14  C   UNL     1      44.365 -21.521   3.127  1.00  0.00     0.105 A 
HETATM   15  O   UNL     1      45.020 -21.827   5.280  1.00  0.00    -0.323 OA
HETATM   16  O   UNL     1      44.719 -22.832   3.108  1.00  0.00    -0.323 OA
HETATM   17  C   UNL     1      43.884 -20.799   2.059  1.00  0.00     0.040 A 
HETATM   18  C   UNL     1      45.136 -23.021   4.476  1.00  0.00     0.352 A 
HETATM   19  C   UNL     1      43.574 -19.451   2.274  1.00  0.00     0.017 A 
ENDBRANCH   9  11
ENDBRANCH   2   5
BRANCH   1  20
HETATM   20  C   UNL     1      40.361 -12.445   3.195  1.00  0.00     0.217 C 
BRANCH  20  21
HETATM   21  C   UNL     1      39.436 -12.676   2.012  1.00  0.00    -0.085 C 
BRANCH  21  22
HETATM   22  C   UNL     1      38.643 -12.874   0.996  1.00  0.00    -0.078 C 
BRANCH  22  23
HETATM   23  C   UNL     1      37.718 -13.105  -0.189  1.00  0.00     0.269 C 
BRANCH  23  24
HETATM   24  O   UNL     1      38.414 -12.892  -1.418  1.00  0.00    -0.337 OA
BRANCH  24  25
HETATM   25  C   UNL     1      38.663 -13.981  -2.211  1.00  0.00     0.103 A 
HETATM   26  C   UNL     1      39.943 -14.561  -2.160  1.00  0.00     0.101 A 
HETATM   27  C   UNL     1      40.267 -15.609  -3.033  1.00  0.00     0.039 A 
HETATM   28  C   UNL     1      39.328 -16.105  -3.934  1.00  0.00     0.003 A 
HETATM   29  C   UNL     1      38.058 -15.542  -3.982  1.00  0.00     0.003 A 
HETATM   30  C   UNL     1      37.730 -14.480  -3.133  1.00  0.00     0.040 A 
BRANCH  26  31
HETATM   31  O   UNL     1      40.986 -14.189  -1.352  1.00  0.00    -0.353 OA
HETATM   32  C   UNL     1      41.394 -15.130  -0.367  1.00  0.00     0.210 C 
ENDBRANCH  26  31
ENDBRANCH  24  25
ENDBRANCH  23  24
ENDBRANCH  22  23
ENDBRANCH  21  22
ENDBRANCH  20  21
ENDBRANCH   1  20
TORSDOF 9
ENDMDL
MODEL 6
REMARK VINA RESULT:      -7.8      2.874     11.389
REMARK  9 active torsions:
REMARK  status: ('A' for Active; 'I' for Inactive)
REMARK    1  A    between atoms: O_2  and  C_3 
REMARK    2  A    between atoms: C_4  and  O_5 
REMARK    3  A    between atoms: O_5  and  C_6 
REMARK    4  A    between atoms: C_6  and  C_7 
REMARK    5  A    between atoms: C_7  and  C_8 
REMARK    6  A    between atoms: C_8  and  C_9 
REMARK    7  A    between atoms: C_9  and  N_10 
REMARK       I    between atoms: N_10  and  C_11 
REMARK    8  A    between atoms: C_11  and  C_12 
REMARK    9  A    between atoms: C_16  and  C_17 
ROOT
HETATM    1  N   UNL     1      41.159 -12.820   6.185  1.00  0.00    -0.345 N 
HETATM    2  C   UNL     1      42.005 -13.238   5.191  1.00  0.00     0.270 C 
HETATM    3  O   UNL     1      42.370 -12.499   4.283  1.00  0.00    -0.266 OA
HETATM    4  H   UNL     1      40.801 -13.482   6.856  1.00  0.00     0.163 HD
ENDROOT
BRANCH   2   5
HETATM    5  C   UNL     1      42.433 -14.608   5.281  1.00  0.00     0.120 A 
HETATM    6  N   UNL     1      42.485 -15.265   6.477  1.00  0.00    -0.272 N 
HETATM    7  H   UNL     1      42.243 -14.886   7.389  1.00  0.00     0.189 HD
HETATM    8  N   UNL     1      42.902 -16.536   6.391  1.00  0.00    -0.174 NA
HETATM    9  C   UNL     1      43.129 -16.735   5.083  1.00  0.00     0.089 A 
HETATM   10  C   UNL     1      42.848 -15.543   4.353  1.00  0.00     0.071 A 
BRANCH   9  11
HETATM   11  C   UNL     1      43.594 -18.031   4.571  1.00  0.00    -0.003 A 
HETATM   12  C   UNL     1      43.126 -18.537   3.346  1.00  0.00     0.053 A 
HETATM   13  C   UNL     1      43.596 -19.764   2.921  1.00  0.00     0.106 A 
HETATM   14  C   UNL     1      44.501 -20.493   3.653  1.00  0.00     0.105 A 
HETATM   15  O   UNL     1      43.242 -20.387   1.765  1.00  0.00    -0.323 OA
HETATM   16  O   UNL     1      44.829 -21.668   3.055  1.00  0.00    -0.323 OA
HETATM   17  C   UNL     1      44.987 -20.037   4.857  1.00  0.00     0.040 A 
HETATM   18  C   UNL     1      44.026 -21.596   1.858  1.00  0.00     0.352 A 
HETATM   19  C   UNL     1      44.527 -18.796   5.314  1.00  0.00     0.017 A 
ENDBRANCH   9  11
ENDBRANCH   2   5
BRANCH   1  20
HETATM   20  C   UNL     1      40.615 -11.489   6.175  1.00  0.00     0.217 C 
BRANCH  20  21
HETATM   21  C   UNL     1      40.560 -10.963   7.600  1.00  0.00    -0.085 C 
BRANCH  21  22
HETATM   22  C   UNL     1      40.512 -10.512   8.822  1.00  0.00    -0.078 C 
BRANCH  22  23
HETATM   23  C   UNL     1      40.456  -9.986  10.248  1.00  0.00     0.269 C 
BRANCH  23  24
HETATM   24  O   UNL     1      41.749  -9.557  10.676  1.00  0.00    -0.337 OA
BRANCH  24  25
HETATM   25  C   UNL     1      42.751 -10.489  10.721  1.00  0.00     0.103 A 
HETATM   26  C   UNL     1      42.821 -11.339  11.838  1.00  0.00     0.101 A 
HETATM   27  C   UNL     1      43.892 -12.233  11.968  1.00  0.00     0.039 A 
HETATM   28  C   UNL     1      44.880 -12.312  10.989  1.00  0.00     0.003 A 
HETATM   29  C   UNL     1      44.812 -11.481   9.877  1.00  0.00     0.003 A 
HETATM   30  C   UNL     1      43.760 -10.569   9.748  1.00  0.00     0.040 A 
BRANCH  26  31
HETATM   31  O   UNL     1      41.949 -11.383  12.897  1.00  0.00    -0.353 OA
HETATM   32  C   UNL     1      42.223 -10.505  13.981  1.00  0.00     0.210 C 
ENDBRANCH  26  31
ENDBRANCH  24  25
ENDBRANCH  23  24
ENDBRANCH  22  23
ENDBRANCH  21  22
ENDBRANCH  20  21
ENDBRANCH   1  20
TORSDOF 9
ENDMDL
MODEL 7
REMARK VINA RESULT:      -7.7      9.043     11.553
REMARK  9 active torsions:
REMARK  status: ('A' for Active; 'I' for Inactive)
REMARK    1  A    between atoms: O_2  and  C_3 
REMARK    2  A    between atoms: C_4  and  O_5 
REMARK    3  A    between atoms: O_5  and  C_6 
REMARK    4  A    between atoms: C_6  and  C_7 
REMARK    5  A    between atoms: C_7  and  C_8 
REMARK    6  A    between atoms: C_8  and  C_9 
REMARK    7  A    between atoms: C_9  and  N_10 
REMARK       I    between atoms: N_10  and  C_11 
REMARK    8  A    between atoms: C_11  and  C_12 
REMARK    9  A    between atoms: C_16  and  C_17 
ROOT
HETATM    1  N   UNL     1      38.934 -14.946   1.273  1.00  0.00    -0.345 N 
HETATM    2  C   UNL     1      39.815 -14.918   2.323  1.00  0.00     0.270 C 
HETATM    3  O   UNL     1      39.713 -14.119   3.248  1.00  0.00    -0.266 OA
HETATM    4  H   UNL     1      39.107 -15.547   0.483  1.00  0.00     0.163 HD
ENDROOT
BRANCH   2   5
HETATM    5  C   UNL     1      40.875 -15.888   2.264  1.00  0.00     0.120 A 
HETATM    6  N   UNL     1      42.003 -15.671   1.525  1.00  0.00    -0.272 N 
HETATM    7  H   UNL     1      42.213 -14.850   0.964  1.00  0.00     0.189 HD
HETATM    8  N   UNL     1      42.896 -16.670   1.577  1.00  0.00    -0.174 NA
HETATM    9  C   UNL     1      42.343 -17.584   2.389  1.00  0.00     0.089 A 
HETATM   10  C   UNL     1      41.070 -17.129   2.839  1.00  0.00     0.071 A 
BRANCH   9  11
HETATM   11  C   UNL     1      43.031 -18.842   2.713  1.00  0.00    -0.003 A 
HETATM   12  C   UNL     1      43.515 -19.089   4.009  1.00  0.00     0.053 A 
HETATM   13  C   UNL     1      44.157 -20.287   4.251  1.00  0.00     0.106 A 
HETATM   14  C   UNL     1      44.332 -21.234   3.271  1.00  0.00     0.105 A 
HETATM   15  O   UNL     1      44.681 -20.675   5.445  1.00  0.00    -0.323 OA
HETATM   16  O   UNL     1      44.987 -22.335   3.721  1.00  0.00    -0.323 OA
HETATM   17  C   UNL     1      43.873 -21.035   1.989  1.00  0.00     0.040 A 
HETATM   18  C   UNL     1      45.208 -21.975   5.100  1.00  0.00     0.352 A 
HETATM   19  C   UNL     1      43.219 -19.828   1.714  1.00  0.00     0.017 A 
ENDBRANCH   9  11
ENDBRANCH   2   5
BRANCH   1  20
HETATM   20  C   UNL     1      37.864 -13.989   1.188  1.00  0.00     0.217 C 
BRANCH  20  21
HETATM   21  C   UNL     1      37.951 -13.261  -0.143  1.00  0.00    -0.085 C 
BRANCH  21  22
HETATM   22  C   UNL     1      38.025 -12.638  -1.286  1.00  0.00    -0.078 C 
BRANCH  22  23
HETATM   23  C   UNL     1      38.113 -11.910  -2.619  1.00  0.00     0.269 C 
BRANCH  23  24
HETATM   24  O   UNL     1      39.163 -12.454  -3.419  1.00  0.00    -0.337 OA
BRANCH  24  25
HETATM   25  C   UNL     1      39.334 -13.813  -3.415  1.00  0.00     0.103 A 
HETATM   26  C   UNL     1      40.572 -14.327  -2.993  1.00  0.00     0.101 A 
HETATM   27  C   UNL     1      40.819 -15.704  -3.075  1.00  0.00     0.039 A 
HETATM   28  C   UNL     1      39.843 -16.579  -3.545  1.00  0.00     0.003 A 
HETATM   29  C   UNL     1      38.613 -16.078  -3.955  1.00  0.00     0.003 A 
HETATM   30  C   UNL     1      38.363 -14.703  -3.900  1.00  0.00     0.040 A 
BRANCH  26  31
HETATM   31  O   UNL     1      41.644 -13.612  -2.521  1.00  0.00    -0.353 OA
HETATM   32  C   UNL     1      41.696 -13.398  -1.116  1.00  0.00     0.210 C 
ENDBRANCH  26  31
ENDBRANCH  24  25
ENDBRANCH  23  24
ENDBRANCH  22  23
ENDBRANCH  21  22
ENDBRANCH  20  21
ENDBRANCH   1  20
TORSDOF 9
ENDMDL
MODEL 8
REMARK VINA RESULT:      -7.7      3.210     11.525
REMARK  9 active torsions:
REMARK  status: ('A' for Active; 'I' for Inactive)
REMARK    1  A    between atoms: O_2  and  C_3 
REMARK    2  A    between atoms: C_4  and  O_5 
REMARK    3  A    between atoms: O_5  and  C_6 
REMARK    4  A    between atoms: C_6  and  C_7 
REMARK    5  A    between atoms: C_7  and  C_8 
REMARK    6  A    between atoms: C_8  and  C_9 
REMARK    7  A    between atoms: C_9  and  N_10 
REMARK       I    between atoms: N_10  and  C_11 
REMARK    8  A    between atoms: C_11  and  C_12 
REMARK    9  A    between atoms: C_16  and  C_17 
ROOT
HETATM    1  N   UNL     1      41.419 -12.102   5.427  1.00  0.00    -0.345 N 
HETATM    2  C   UNL     1      40.450 -13.055   5.601  1.00  0.00     0.270 C 
HETATM    3  O   UNL     1      39.274 -12.770   5.800  1.00  0.00    -0.266 OA
HETATM    4  H   UNL     1      42.389 -12.370   5.367  1.00  0.00     0.163 HD
ENDROOT
BRANCH   2   5
HETATM    5  C   UNL     1      40.908 -14.417   5.542  1.00  0.00     0.120 A 
HETATM    6  N   UNL     1      40.363 -15.390   6.331  1.00  0.00    -0.272 N 
HETATM    7  H   UNL     1      39.617 -15.273   7.012  1.00  0.00     0.189 HD
HETATM    8  N   UNL     1      40.898 -16.606   6.155  1.00  0.00    -0.174 NA
HETATM    9  C   UNL     1      41.830 -16.437   5.204  1.00  0.00     0.089 A 
HETATM   10  C   UNL     1      41.868 -15.073   4.796  1.00  0.00     0.071 A 
BRANCH   9  11
HETATM   11  C   UNL     1      42.642 -17.560   4.715  1.00  0.00    -0.003 A 
HETATM   12  C   UNL     1      43.116 -18.548   5.594  1.00  0.00     0.053 A 
HETATM   13  C   UNL     1      43.879 -19.576   5.075  1.00  0.00     0.106 A 
HETATM   14  C   UNL     1      44.181 -19.658   3.737  1.00  0.00     0.105 A 
HETATM   15  O   UNL     1      44.410 -20.604   5.790  1.00  0.00    -0.323 OA
HETATM   16  O   UNL     1      44.941 -20.744   3.441  1.00  0.00    -0.323 OA
HETATM   17  C   UNL     1      43.738 -18.714   2.840  1.00  0.00     0.040 A 
HETATM   18  C   UNL     1      45.085 -21.340   4.747  1.00  0.00     0.352 A 
HETATM   19  C   UNL     1      42.963 -17.659   3.338  1.00  0.00     0.017 A 
ENDBRANCH   9  11
ENDBRANCH   2   5
BRANCH   1  20
HETATM   20  C   UNL     1      41.099 -10.703   5.521  1.00  0.00     0.217 C 
BRANCH  20  21
HETATM   21  C   UNL     1      41.319 -10.235   6.950  1.00  0.00    -0.085 C 
BRANCH  21  22
HETATM   22  C   UNL     1      41.508  -9.834   8.176  1.00  0.00    -0.078 C 
BRANCH  22  23
HETATM   23  C   UNL     1      41.728  -9.366   9.606  1.00  0.00     0.269 C 
BRANCH  23  24
HETATM   24  O   UNL     1      41.850 -10.483  10.486  1.00  0.00    -0.337 OA
BRANCH  24  25
HETATM   25  C   UNL     1      42.116 -10.233  11.807  1.00  0.00     0.103 A 
HETATM   26  C   UNL     1      41.055 -10.316  12.726  1.00  0.00     0.101 A 
HETATM   27  C   UNL     1      41.265  -9.965  14.066  1.00  0.00     0.039 A 
HETATM   28  C   UNL     1      42.522  -9.559  14.510  1.00  0.00     0.003 A 
HETATM   29  C   UNL     1      43.577  -9.484  13.608  1.00  0.00     0.003 A 
HETATM   30  C   UNL     1      43.373  -9.809  12.263  1.00  0.00     0.040 A 
BRANCH  26  31
HETATM   31  O   UNL     1      39.759 -10.679  12.459  1.00  0.00    -0.353 OA
HETATM   32  C   UNL     1      38.873  -9.635  12.075  1.00  0.00     0.210 C 
ENDBRANCH  26  31
ENDBRANCH  24  25
ENDBRANCH  23  24
ENDBRANCH  22  23
ENDBRANCH  21  22
ENDBRANCH  20  21
ENDBRANCH   1  20
TORSDOF 9
ENDMDL
MODEL 9
REMARK VINA RESULT:      -7.7      7.061     10.743
REMARK  9 active torsions:
REMARK  status: ('A' for Active; 'I' for Inactive)
REMARK    1  A    between atoms: O_2  and  C_3 
REMARK    2  A    between atoms: C_4  and  O_5 
REMARK    3  A    between atoms: O_5  and  C_6 
REMARK    4  A    between atoms: C_6  and  C_7 
REMARK    5  A    between atoms: C_7  and  C_8 
REMARK    6  A    between atoms: C_8  and  C_9 
REMARK    7  A    between atoms: C_9  and  N_10 
REMARK       I    between atoms: N_10  and  C_11 
REMARK    8  A    between atoms: C_11  and  C_12 
REMARK    9  A    between atoms: C_16  and  C_17 
ROOT
HETATM    1  N   UNL     1      40.554 -16.134   5.481  1.00  0.00    -0.345 N 
HETATM    2  C   UNL     1      40.341 -14.787   5.350  1.00  0.00     0.270 C 
HETATM    3  O   UNL     1      40.464 -14.006   6.287  1.00  0.00    -0.266 OA
HETATM    4  H   UNL     1      40.345 -16.757   4.716  1.00  0.00     0.163 HD
ENDROOT
BRANCH   2   5
HETATM    5  C   UNL     1      39.955 -14.349   4.035  1.00  0.00     0.120 A 
HETATM    6  N   UNL     1      39.423 -13.110   3.821  1.00  0.00    -0.272 N 
HETATM    7  H   UNL     1      39.247 -12.395   4.522  1.00  0.00     0.189 HD
HETATM    8  N   UNL     1      39.118 -12.854   2.541  1.00  0.00    -0.174 NA
HETATM    9  C   UNL     1      39.470 -13.966   1.876  1.00  0.00     0.089 A 
HETATM   10  C   UNL     1      39.998 -14.930   2.782  1.00  0.00     0.071 A 
BRANCH   9  11
HETATM   11  C   UNL     1      39.301 -14.077   0.420  1.00  0.00    -0.003 A 
HETATM   12  C   UNL     1      40.307 -14.639  -0.384  1.00  0.00     0.053 A 
HETATM   13  C   UNL     1      40.092 -14.712  -1.747  1.00  0.00     0.106 A 
HETATM   14  C   UNL     1      38.935 -14.256  -2.329  1.00  0.00     0.105 A 
HETATM   15  O   UNL     1      40.963 -15.225  -2.657  1.00  0.00    -0.323 OA
HETATM   16  O   UNL     1      38.930 -14.422  -3.678  1.00  0.00    -0.323 OA
HETATM   17  C   UNL     1      37.923 -13.699  -1.581  1.00  0.00     0.040 A 
HETATM   18  C   UNL     1      40.220 -15.035  -3.881  1.00  0.00     0.352 A 
HETATM   19  C   UNL     1      38.114 -13.612  -0.197  1.00  0.00     0.017 A 
ENDBRANCH   9  11
ENDBRANCH   2   5
BRANCH   1  20
HETATM   20  C   UNL     1      40.889 -16.704   6.759  1.00  0.00     0.217 C 
BRANCH  20  21
HETATM   21  C   UNL     1      42.090 -17.620   6.597  1.00  0.00    -0.085 C 
BRANCH  21  22
HETATM   22  C   UNL     1      43.121 -18.406   6.458  1.00  0.00    -0.078 C 
BRANCH  22  23
HETATM   23  C   UNL     1      44.323 -19.324   6.296  1.00  0.00     0.269 C 
BRANCH  23  24
HETATM   24  O   UNL     1      44.956 -19.105   5.036  1.00  0.00    -0.337 OA
BRANCH  24  25
HETATM   25  C   UNL     1      44.655 -19.961   4.010  1.00  0.00     0.103 A 
HETATM   26  C   UNL     1      44.070 -19.427   2.848  1.00  0.00     0.101 A 
HETATM   27  C   UNL     1      43.652 -20.284   1.821  1.00  0.00     0.039 A 
HETATM   28  C   UNL     1      43.834 -21.662   1.922  1.00  0.00     0.003 A 
HETATM   29  C   UNL     1      44.420 -22.195   3.064  1.00  0.00     0.003 A 
HETATM   30  C   UNL     1      44.819 -21.351   4.105  1.00  0.00     0.040 A 
BRANCH  26  31
HETATM   31  O   UNL     1      43.804 -18.106   2.590  1.00  0.00    -0.353 OA
HETATM   32  C   UNL     1      43.918 -17.687   1.236  1.00  0.00     0.210 C 
ENDBRANCH  26  31
ENDBRANCH  24  25
ENDBRANCH  23  24
ENDBRANCH  22  23
ENDBRANCH  21  22
ENDBRANCH  20  21
ENDBRANCH   1  20
TORSDOF 9
ENDMDL
MODEL 10
REMARK VINA RESULT:      -7.7      6.148     10.111
REMARK  9 active torsions:
REMARK  status: ('A' for Active; 'I' for Inactive)
REMARK    1  A    between atoms: O_2  and  C_3 
REMARK    2  A    between atoms: C_4  and  O_5 
REMARK    3  A    between atoms: O_5  and  C_6 
REMARK    4  A    between atoms: C_6  and  C_7 
REMARK    5  A    between atoms: C_7  and  C_8 
REMARK    6  A    between atoms: C_8  and  C_9 
REMARK    7  A    between atoms: C_9  and  N_10 
REMARK       I    between atoms: N_10  and  C_11 
REMARK    8  A    between atoms: C_11  and  C_12 
REMARK    9  A    between atoms: C_16  and  C_17 
ROOT
HETATM    1  N   UNL     1      40.798 -14.117   5.873  1.00  0.00    -0.345 N 
HETATM    2  C   UNL     1      42.167 -14.158   5.819  1.00  0.00     0.270 C 
HETATM    3  O   UNL     1      42.856 -13.144   5.795  1.00  0.00    -0.266 OA
HETATM    4  H   UNL     1      40.262 -14.967   5.790  1.00  0.00     0.163 HD
ENDROOT
BRANCH   2   5
HETATM    5  C   UNL     1      42.743 -15.475   5.785  1.00  0.00     0.120 A 
HETATM    6  N   UNL     1      43.392 -16.001   6.866  1.00  0.00    -0.272 N 
HETATM    7  H   UNL     1      43.535 -15.551   7.766  1.00  0.00     0.189 HD
HETATM    8  N   UNL     1      43.869 -17.239   6.674  1.00  0.00    -0.174 NA
HETATM    9  C   UNL     1      43.517 -17.552   5.417  1.00  0.00     0.089 A 
HETATM   10  C   UNL     1      42.810 -16.466   4.825  1.00  0.00     0.071 A 
BRANCH   9  11
HETATM   11  C   UNL     1      43.853 -18.855   4.826  1.00  0.00    -0.003 A 
HETATM   12  C   UNL     1      43.660 -19.100   3.456  1.00  0.00     0.053 A 
HETATM   13  C   UNL     1      43.990 -20.346   2.960  1.00  0.00     0.106 A 
HETATM   14  C   UNL     1      44.498 -21.340   3.761  1.00  0.00     0.105 A 
HETATM   15  O   UNL     1      43.862 -20.739   1.664  1.00  0.00    -0.323 OA
HETATM   16  O   UNL     1      44.752 -22.484   3.073  1.00  0.00    -0.323 OA
HETATM   17  C   UNL     1      44.704 -21.145   5.107  1.00  0.00     0.040 A 
HETATM   18  C   UNL     1      44.345 -22.098   1.744  1.00  0.00     0.352 A 
HETATM   19  C   UNL     1      44.378 -19.891   5.638  1.00  0.00     0.017 A 
ENDBRANCH   9  11
ENDBRANCH   2   5
BRANCH   1  20
HETATM   20  C   UNL     1      40.100 -12.860   5.854  1.00  0.00     0.217 C 
BRANCH  20  21
HETATM   21  C   UNL     1      39.560 -12.611   4.456  1.00  0.00    -0.085 C 
BRANCH  21  22
HETATM   22  C   UNL     1      39.095 -12.397   3.256  1.00  0.00    -0.078 C 
BRANCH  22  23
HETATM   23  C   UNL     1      38.555 -12.147   1.857  1.00  0.00     0.269 C 
BRANCH  23  24
HETATM   24  O   UNL     1      38.279 -13.382   1.197  1.00  0.00    -0.337 OA
BRANCH  24  25
HETATM   25  C   UNL     1      39.249 -14.349   1.217  1.00  0.00     0.103 A 
HETATM   26  C   UNL     1      40.256 -14.302   0.237  1.00  0.00     0.101 A 
HETATM   27  C   UNL     1      41.203 -15.332   0.161  1.00  0.00     0.039 A 
HETATM   28  C   UNL     1      41.179 -16.393   1.063  1.00  0.00     0.003 A 
HETATM   29  C   UNL     1      40.191 -16.441   2.041  1.00  0.00     0.003 A 
HETATM   30  C   UNL     1      39.227 -15.431   2.111  1.00  0.00     0.040 A 
BRANCH  26  31
HETATM   31  O   UNL     1      40.418 -13.346  -0.734  1.00  0.00    -0.353 OA
HETATM   32  C   UNL     1      40.302 -13.784  -2.082  1.00  0.00     0.210 C 
ENDBRANCH  26  31
ENDBRANCH  24  25
ENDBRANCH  23  24
ENDBRANCH  22  23
ENDBRANCH  21  22
ENDBRANCH  20  21
ENDBRANCH   1  20
TORSDOF 9
ENDMDL
