MODEL 1
REMARK VINA RESULT:      -8.8      0.000      0.000
REMARK  12 active torsions:
REMARK  status: ('A' for Active; 'I' for Inactive)
REMARK    1  A    between atoms: C_3  and  O_4 
REMARK    2  A    between atoms: C_8  and  C_9 
REMARK       I    between atoms: C_9  and  N_10 
REMARK    3  A    between atoms: N_10  and  C_11 
REMARK    4  A    between atoms: C_11  and  C_33 
REMARK    5  A    between atoms: C_11  and  C_12 
REMARK    6  A    between atoms: C_12  and  O_13 
REMARK    7  A    between atoms: C_12  and  C_14 
REMARK    8  A    between atoms: C_14  and  N_15 
REMARK    9  A    between atoms: C_17  and  C_18 
REMARK       I    between atoms: C_18  and  N_19 
REMARK   10  A    between atoms: N_19  and  C_20 
REMARK   11  A    between atoms: C_33  and  S_34 
REMARK   12  A    between atoms: S_34  and  C_35 
ROOT
HETATM    1  C   UNL     1      41.387 -16.331   3.016  1.00  0.00     0.167 C 
ENDROOT
BRANCH   1   2
HETATM    2  C   UNL     1      41.504 -16.608   1.481  1.00  0.00     0.124 C 
BRANCH   2   3
HETATM    3  N   UNL     1      41.947 -15.394   0.770  1.00  0.00    -0.349 N 
HETATM    4  C   UNL     1      41.071 -14.644   0.015  1.00  0.00     0.252 C 
HETATM    5  O   UNL     1      39.869 -14.878  -0.020  1.00  0.00    -0.268 OA
HETATM    6  H   UNL     1      42.942 -15.226   0.650  1.00  0.00     0.163 HD
BRANCH   4   7
HETATM    7  C   UNL     1      41.676 -13.528  -0.760  1.00  0.00     0.040 A 
HETATM    8  C   UNL     1      41.825 -13.606  -2.162  1.00  0.00    -0.013 A 
HETATM    9  C   UNL     1      41.424 -14.840  -2.924  1.00  0.00     0.052 C 
HETATM   10  C   UNL     1      42.347 -12.482  -2.819  1.00  0.00     0.072 A 
HETATM   11  C   UNL     1      42.761 -11.350  -2.115  1.00  0.00     0.037 A 
HETATM   12  C   UNL     1      42.626 -11.297  -0.731  1.00  0.00     0.004 A 
HETATM   13  C   UNL     1      42.074 -12.379  -0.054  1.00  0.00     0.018 A 
BRANCH  10  14
HETATM   14  O   UNL     1      42.493 -12.409  -4.175  1.00  0.00    -0.360 OA
HETATM   15  H   UNL     1      42.788 -13.263  -4.526  1.00  0.00     0.217 HD
ENDBRANCH  10  14
ENDBRANCH   4   7
ENDBRANCH   2   3
BRANCH   2  16
HETATM   16  C   UNL     1      42.427 -17.776   1.098  1.00  0.00     0.107 C 
BRANCH  16  17
HETATM   17  S   UNL     1      44.016 -17.718   1.997  1.00  0.00    -0.128 SA
BRANCH  17  18
HETATM   18  C   UNL     1      44.137 -19.447   2.423  1.00  0.00     0.000 A 
HETATM   19  C   UNL     1      44.729 -19.826   3.630  1.00  0.00     0.018 A 
HETATM   20  C   UNL     1      44.848 -21.177   3.959  1.00  0.00     0.001 A 
HETATM   21  C   UNL     1      44.370 -22.154   3.086  1.00  0.00     0.000 A 
HETATM   22  C   UNL     1      43.765 -21.781   1.887  1.00  0.00     0.001 A 
HETATM   23  C   UNL     1      43.646 -20.429   1.558  1.00  0.00     0.018 A 
ENDBRANCH  17  18
ENDBRANCH  16  17
ENDBRANCH   2  16
ENDBRANCH   1   2
BRANCH   1  24
HETATM   24  O   UNL     1      40.553 -17.246   3.749  1.00  0.00    -0.392 OA
HETATM   25  H   UNL     1      40.007 -17.755   3.110  1.00  0.00     0.210 HD
ENDBRANCH   1  24
BRANCH   1  26
HETATM   26  C   UNL     1      40.885 -14.902   3.322  1.00  0.00     0.269 C 
BRANCH  26  27
HETATM   27  N   UNL     1      42.060 -14.088   3.883  1.00  0.00    -0.055 N 
HETATM   28  H   UNL     1      42.854 -14.721   3.659  1.00  0.00     0.281 HD
HETATM   29  C   UNL     1      42.119 -13.943   5.409  1.00  0.00     0.279 C 
HETATM   30  C   UNL     1      41.020 -12.973   5.832  1.00  0.00     0.048 C 
HETATM   31  C   UNL     1      41.242 -11.594   5.187  1.00  0.00    -0.006 C 
HETATM   32  C   UNL     1      41.423 -11.643   3.657  1.00  0.00     0.016 C 
HETATM   33  C   UNL     1      40.153 -10.587   5.566  1.00  0.00     0.005 C 
HETATM   34  C   UNL     1      42.332 -12.791   3.184  1.00  0.00     0.241 C 
HETATM   35  C   UNL     1      40.105 -11.505   2.864  1.00  0.00     0.007 C 
HETATM   36  C   UNL     1      38.830 -11.709   3.676  1.00  0.00     0.000 C 
HETATM   37  C   UNL     1      38.785 -10.895   4.965  1.00  0.00     0.000 C 
BRANCH  29  38
HETATM   38  C   UNL     1      42.155 -15.317   6.124  1.00  0.00     0.249 C 
HETATM   39  N   UNL     1      43.390 -15.911   6.259  1.00  0.00    -0.351 N 
HETATM   40  H   UNL     1      44.160 -15.542   5.715  1.00  0.00     0.163 HD
HETATM   41  O   UNL     1      41.095 -15.829   6.488  1.00  0.00    -0.271 OA
BRANCH  39  42
HETATM   42  C   UNL     1      43.629 -17.270   6.791  1.00  0.00     0.022 C 
HETATM   43  C   UNL     1      42.774 -18.289   6.026  1.00  0.00     0.037 C 
HETATM   44  C   UNL     1      45.117 -17.602   6.569  1.00  0.00     0.037 C 
HETATM   45  C   UNL     1      43.342 -17.358   8.298  1.00  0.00     0.037 C 
ENDBRANCH  39  42
ENDBRANCH  29  38
ENDBRANCH  26  27
ENDBRANCH   1  26
TORSDOF 12
ENDMDL
MODEL 2
REMARK VINA RESULT:      -8.8      3.307      7.308
REMARK  12 active torsions:
REMARK  status: ('A' for Active; 'I' for Inactive)
REMARK    1  A    between atoms: C_3  and  O_4 
REMARK    2  A    between atoms: C_8  and  C_9 
REMARK       I    between atoms: C_9  and  N_10 
REMARK    3  A    between atoms: N_10  and  C_11 
REMARK    4  A    between atoms: C_11  and  C_33 
REMARK    5  A    between atoms: C_11  and  C_12 
REMARK    6  A    between atoms: C_12  and  O_13 
REMARK    7  A    between atoms: C_12  and  C_14 
REMARK    8  A    between atoms: C_14  and  N_15 
REMARK    9  A    between atoms: C_17  and  C_18 
REMARK       I    between atoms: C_18  and  N_19 
REMARK   10  A    between atoms: N_19  and  C_20 
REMARK   11  A    between atoms: C_33  and  S_34 
REMARK   12  A    between atoms: S_34  and  C_35 
ROOT
HETATM    1  C   UNL     1      40.783 -14.402   5.306  1.00  0.00     0.167 C 
ENDROOT
BRANCH   1   2
HETATM    2  C   UNL     1      40.678 -13.030   4.563  1.00  0.00     0.124 C 
BRANCH   2   3
HETATM    3  N   UNL     1      40.877 -11.916   5.508  1.00  0.00    -0.349 N 
HETATM    4  C   UNL     1      39.842 -11.071   5.850  1.00  0.00     0.252 C 
HETATM    5  O   UNL     1      38.690 -11.262   5.478  1.00  0.00    -0.268 OA
HETATM    6  H   UNL     1      41.823 -11.626   5.741  1.00  0.00     0.163 HD
BRANCH   4   7
HETATM    7  C   UNL     1      40.210  -9.908   6.700  1.00  0.00     0.040 A 
HETATM    8  C   UNL     1      40.006  -9.928   8.098  1.00  0.00    -0.013 A 
HETATM    9  C   UNL     1      39.362 -11.106   8.777  1.00  0.00     0.052 C 
HETATM   10  C   UNL     1      40.442  -8.813   8.829  1.00  0.00     0.072 A 
HETATM   11  C   UNL     1      41.002  -7.700   8.201  1.00  0.00     0.037 A 
HETATM   12  C   UNL     1      41.178  -7.688   6.821  1.00  0.00     0.004 A 
HETATM   13  C   UNL     1      40.793  -8.794   6.070  1.00  0.00     0.018 A 
BRANCH  10  14
HETATM   14  O   UNL     1      40.351  -8.729  10.189  1.00  0.00    -0.360 OA
HETATM   15  H   UNL     1      40.941  -8.034  10.521  1.00  0.00     0.217 HD
ENDBRANCH  10  14
ENDBRANCH   4   7
ENDBRANCH   2   3
BRANCH   2  16
HETATM   16  C   UNL     1      41.640 -12.857   3.376  1.00  0.00     0.107 C 
BRANCH  16  17
HETATM   17  S   UNL     1      40.774 -12.954   1.771  1.00  0.00    -0.128 SA
BRANCH  17  18
HETATM   18  C   UNL     1      40.903 -14.714   1.512  1.00  0.00     0.000 A 
HETATM   19  C   UNL     1      39.960 -15.572   2.084  1.00  0.00     0.018 A 
HETATM   20  C   UNL     1      40.069 -16.953   1.905  1.00  0.00     0.001 A 
HETATM   21  C   UNL     1      41.116 -17.480   1.149  1.00  0.00     0.000 A 
HETATM   22  C   UNL     1      42.051 -16.627   0.565  1.00  0.00     0.001 A 
HETATM   23  C   UNL     1      41.943 -15.246   0.743  1.00  0.00     0.018 A 
ENDBRANCH  17  18
ENDBRANCH  16  17
ENDBRANCH   2  16
ENDBRANCH   1   2
BRANCH   1  24
HETATM   24  O   UNL     1      40.250 -14.426   6.643  1.00  0.00    -0.392 OA
HETATM   25  H   UNL     1      40.848 -14.962   7.210  1.00  0.00     0.210 HD
ENDBRANCH   1  24
BRANCH   1  26
HETATM   26  C   UNL     1      42.235 -14.925   5.379  1.00  0.00     0.269 C 
BRANCH  26  27
HETATM   27  N   UNL     1      42.415 -15.665   6.712  1.00  0.00    -0.055 N 
HETATM   28  H   UNL     1      41.909 -15.023   7.356  1.00  0.00     0.281 HD
HETATM   29  C   UNL     1      43.840 -15.712   7.278  1.00  0.00     0.279 C 
HETATM   30  C   UNL     1      44.651 -16.687   6.429  1.00  0.00     0.048 C 
HETATM   31  C   UNL     1      44.037 -18.096   6.496  1.00  0.00    -0.006 C 
HETATM   32  C   UNL     1      42.533 -18.138   6.160  1.00  0.00     0.016 C 
HETATM   33  C   UNL     1      44.805 -19.111   5.644  1.00  0.00     0.005 C 
HETATM   34  C   UNL     1      41.730 -16.995   6.804  1.00  0.00     0.241 C 
HETATM   35  C   UNL     1      42.229 -18.368   4.664  1.00  0.00     0.007 C 
HETATM   36  C   UNL     1      43.407 -18.153   3.719  1.00  0.00     0.000 C 
HETATM   37  C   UNL     1      44.676 -18.884   4.141  1.00  0.00     0.000 C 
BRANCH  29  38
HETATM   38  C   UNL     1      44.434 -14.294   7.477  1.00  0.00     0.249 C 
HETATM   39  N   UNL     1      44.266 -13.724   8.718  1.00  0.00    -0.351 N 
HETATM   40  H   UNL     1      43.600 -14.147   9.354  1.00  0.00     0.163 HD
HETATM   41  O   UNL     1      44.974 -13.734   6.523  1.00  0.00    -0.271 OA
BRANCH  39  42
HETATM   42  C   UNL     1      44.640 -12.339   9.078  1.00  0.00     0.022 C 
HETATM   43  C   UNL     1      43.586 -11.358   8.549  1.00  0.00     0.037 C 
HETATM   44  C   UNL     1      44.674 -12.250  10.616  1.00  0.00     0.037 C 
HETATM   45  C   UNL     1      46.032 -11.961   8.549  1.00  0.00     0.037 C 
ENDBRANCH  39  42
ENDBRANCH  29  38
ENDBRANCH  26  27
ENDBRANCH   1  26
TORSDOF 12
ENDMDL
MODEL 3
REMARK VINA RESULT:      -8.6      3.057      7.423
REMARK  12 active torsions:
REMARK  status: ('A' for Active; 'I' for Inactive)
REMARK    1  A    between atoms: C_3  and  O_4 
REMARK    2  A    between atoms: C_8  and  C_9 
REMARK       I    between atoms: C_9  and  N_10 
REMARK    3  A    between atoms: N_10  and  C_11 
REMARK    4  A    between atoms: C_11  and  C_33 
REMARK    5  A    between atoms: C_11  and  C_12 
REMARK    6  A    between atoms: C_12  and  O_13 
REMARK    7  A    between atoms: C_12  and  C_14 
REMARK    8  A    between atoms: C_14  and  N_15 
REMARK    9  A    between atoms: C_17  and  C_18 
REMARK       I    between atoms: C_18  and  N_19 
REMARK   10  A    between atoms: N_19  and  C_20 
REMARK   11  A    between atoms: C_33  and  S_34 
REMARK   12  A    between atoms: S_34  and  C_35 
ROOT
HETATM    1  C   UNL     1      41.074 -13.935   5.810  1.00  0.00     0.167 C 
ENDROOT
BRANCH   1   2
HETATM    2  C   UNL     1      42.502 -14.550   5.981  1.00  0.00     0.124 C 
BRANCH   2   3
HETATM    3  N   UNL     1      42.758 -15.557   4.935  1.00  0.00    -0.349 N 
HETATM    4  C   UNL     1      42.369 -16.871   5.093  1.00  0.00     0.252 C 
HETATM    5  O   UNL     1      41.701 -17.246   6.049  1.00  0.00    -0.268 OA
HETATM    6  H   UNL     1      43.417 -15.344   4.191  1.00  0.00     0.163 HD
BRANCH   4   7
HETATM    7  C   UNL     1      42.811 -17.809   4.028  1.00  0.00     0.040 A 
HETATM    8  C   UNL     1      43.853 -18.737   4.254  1.00  0.00    -0.013 A 
HETATM    9  C   UNL     1      44.590 -18.780   5.565  1.00  0.00     0.052 C 
HETATM   10  C   UNL     1      44.161 -19.626   3.214  1.00  0.00     0.072 A 
HETATM   11  C   UNL     1      43.510 -19.564   1.981  1.00  0.00     0.037 A 
HETATM   12  C   UNL     1      42.501 -18.631   1.768  1.00  0.00     0.004 A 
HETATM   13  C   UNL     1      42.142 -17.761   2.792  1.00  0.00     0.018 A 
BRANCH  10  14
HETATM   14  O   UNL     1      45.109 -20.603   3.323  1.00  0.00    -0.360 OA
HETATM   15  H   UNL     1      45.912 -20.246   3.732  1.00  0.00     0.217 HD
ENDBRANCH  10  14
ENDBRANCH   4   7
ENDBRANCH   2   3
BRANCH   2  16
HETATM   16  C   UNL     1      43.653 -13.530   5.985  1.00  0.00     0.107 C 
BRANCH  16  17
HETATM   17  S   UNL     1      45.005 -14.026   7.109  1.00  0.00    -0.128 SA
BRANCH  17  18
HETATM   18  C   UNL     1      44.881 -12.679   8.273  1.00  0.00     0.000 A 
HETATM   19  C   UNL     1      46.042 -12.077   8.766  1.00  0.00     0.018 A 
HETATM   20  C   UNL     1      45.953 -11.039   9.695  1.00  0.00     0.001 A 
HETATM   21  C   UNL     1      44.705 -10.594  10.130  1.00  0.00     0.000 A 
HETATM   22  C   UNL     1      43.544 -11.182   9.631  1.00  0.00     0.001 A 
HETATM   23  C   UNL     1      43.632 -12.221   8.701  1.00  0.00     0.018 A 
ENDBRANCH  17  18
ENDBRANCH  16  17
ENDBRANCH   2  16
ENDBRANCH   1   2
BRANCH   1  24
HETATM   24  O   UNL     1      40.026 -14.584   6.554  1.00  0.00    -0.392 OA
HETATM   25  H   UNL     1      40.436 -15.127   7.264  1.00  0.00     0.210 HD
ENDBRANCH   1  24
BRANCH   1  26
HETATM   26  C   UNL     1      40.626 -13.883   4.332  1.00  0.00     0.269 C 
BRANCH  26  27
HETATM   27  N   UNL     1      41.235 -12.630   3.688  1.00  0.00    -0.055 N 
HETATM   28  H   UNL     1      41.866 -12.311   4.451  1.00  0.00     0.281 HD
HETATM   29  C   UNL     1      40.284 -11.445   3.472  1.00  0.00     0.279 C 
HETATM   30  C   UNL     1      39.350 -11.796   2.318  1.00  0.00     0.048 C 
HETATM   31  C   UNL     1      40.156 -12.035   1.029  1.00  0.00    -0.006 C 
HETATM   32  C   UNL     1      41.299 -13.057   1.188  1.00  0.00     0.016 C 
HETATM   33  C   UNL     1      39.264 -12.410  -0.158  1.00  0.00     0.005 C 
HETATM   34  C   UNL     1      42.100 -12.881   2.490  1.00  0.00     0.241 C 
HETATM   35  C   UNL     1      40.888 -14.513   0.883  1.00  0.00     0.007 C 
HETATM   36  C   UNL     1      39.385 -14.771   0.837  1.00  0.00     0.000 C 
HETATM   37  C   UNL     1      38.620 -13.788  -0.041  1.00  0.00     0.000 C 
BRANCH  29  38
HETATM   38  C   UNL     1      39.621 -10.983   4.794  1.00  0.00     0.249 C 
HETATM   39  N   UNL     1      40.420 -10.291   5.676  1.00  0.00    -0.351 N 
HETATM   40  H   UNL     1      41.421 -10.303   5.526  1.00  0.00     0.163 HD
HETATM   41  O   UNL     1      38.449 -11.291   5.015  1.00  0.00    -0.271 OA
BRANCH  39  42
HETATM   42  C   UNL     1      40.025  -9.874   7.039  1.00  0.00     0.022 C 
HETATM   43  C   UNL     1      39.633 -11.104   7.869  1.00  0.00     0.037 C 
HETATM   44  C   UNL     1      41.245  -9.200   7.693  1.00  0.00     0.037 C 
HETATM   45  C   UNL     1      38.873  -8.856   7.019  1.00  0.00     0.037 C 
ENDBRANCH  39  42
ENDBRANCH  29  38
ENDBRANCH  26  27
ENDBRANCH   1  26
TORSDOF 12
ENDMDL
MODEL 4
REMARK VINA RESULT:      -8.5      2.296      7.414
REMARK  12 active torsions:
REMARK  status: ('A' for Active; 'I' for Inactive)
REMARK    1  A    between atoms: C_3  and  O_4 
REMARK    2  A    between atoms: C_8  and  C_9 
REMARK       I    between atoms: C_9  and  N_10 
REMARK    3  A    between atoms: N_10  and  C_11 
REMARK    4  A    between atoms: C_11  and  C_33 
REMARK    5  A    between atoms: C_11  and  C_12 
REMARK    6  A    between atoms: C_12  and  O_13 
REMARK    7  A    between atoms: C_12  and  C_14 
REMARK    8  A    between atoms: C_14  and  N_15 
REMARK    9  A    between atoms: C_17  and  C_18 
REMARK       I    between atoms: C_18  and  N_19 
REMARK   10  A    between atoms: N_19  and  C_20 
REMARK   11  A    between atoms: C_33  and  S_34 
REMARK   12  A    between atoms: S_34  and  C_35 
ROOT
HETATM    1  C   UNL     1      41.898 -16.173   0.433  1.00  0.00     0.167 C 
ENDROOT
BRANCH   1   2
HETATM    2  C   UNL     1      41.332 -16.663   1.805  1.00  0.00     0.124 C 
BRANCH   2   3
HETATM    3  N   UNL     1      41.906 -17.974   2.161  1.00  0.00    -0.349 N 
HETATM    4  C   UNL     1      43.247 -18.115   2.453  1.00  0.00     0.252 C 
HETATM    5  O   UNL     1      44.004 -17.155   2.539  1.00  0.00    -0.268 OA
HETATM    6  H   UNL     1      41.369 -18.817   1.978  1.00  0.00     0.163 HD
BRANCH   4   7
HETATM    7  C   UNL     1      43.721 -19.509   2.657  1.00  0.00     0.040 A 
HETATM    8  C   UNL     1      44.322 -19.909   3.872  1.00  0.00    -0.013 A 
HETATM    9  C   UNL     1      44.552 -18.928   4.990  1.00  0.00     0.052 C 
HETATM   10  C   UNL     1      44.681 -21.259   4.000  1.00  0.00     0.072 A 
HETATM   11  C   UNL     1      44.509 -22.164   2.952  1.00  0.00     0.037 A 
HETATM   12  C   UNL     1      43.934 -21.750   1.755  1.00  0.00     0.004 A 
HETATM   13  C   UNL     1      43.530 -20.427   1.609  1.00  0.00     0.018 A 
BRANCH  10  14
HETATM   14  O   UNL     1      45.221 -21.784   5.139  1.00  0.00    -0.360 OA
HETATM   15  H   UNL     1      44.853 -22.665   5.308  1.00  0.00     0.217 HD
ENDBRANCH  10  14
ENDBRANCH   4   7
ENDBRANCH   2   3
BRANCH   2  16
HETATM   16  C   UNL     1      41.538 -15.692   2.979  1.00  0.00     0.107 C 
BRANCH  16  17
HETATM   17  S   UNL     1      40.597 -16.196   4.461  1.00  0.00    -0.128 SA
BRANCH  17  18
HETATM   18  C   UNL     1      41.941 -16.199   5.634  1.00  0.00     0.000 A 
HETATM   19  C   UNL     1      41.888 -17.038   6.750  1.00  0.00     0.018 A 
HETATM   20  C   UNL     1      42.926 -17.028   7.684  1.00  0.00     0.001 A 
HETATM   21  C   UNL     1      44.023 -16.185   7.503  1.00  0.00     0.000 A 
HETATM   22  C   UNL     1      44.086 -15.357   6.384  1.00  0.00     0.001 A 
HETATM   23  C   UNL     1      43.049 -15.366   5.449  1.00  0.00     0.018 A 
ENDBRANCH  17  18
ENDBRANCH  16  17
ENDBRANCH   2  16
ENDBRANCH   1   2
BRANCH   1  24
HETATM   24  O   UNL     1      43.148 -15.462   0.496  1.00  0.00    -0.392 OA
HETATM   25  H   UNL     1      43.470 -15.476   1.424  1.00  0.00     0.210 HD
ENDBRANCH   1  24
BRANCH   1  26
HETATM   26  C   UNL     1      40.897 -15.279  -0.334  1.00  0.00     0.269 C 
BRANCH  26  27
HETATM   27  N   UNL     1      41.689 -14.190  -1.070  1.00  0.00    -0.055 N 
HETATM   28  H   UNL     1      42.627 -14.311  -0.637  1.00  0.00     0.281 HD
HETATM   29  C   UNL     1      41.314 -12.738  -0.744  1.00  0.00     0.279 C 
HETATM   30  C   UNL     1      39.967 -12.443  -1.397  1.00  0.00     0.048 C 
HETATM   31  C   UNL     1      40.063 -12.607  -2.924  1.00  0.00    -0.006 C 
HETATM   32  C   UNL     1      40.646 -13.961  -3.371  1.00  0.00     0.016 C 
HETATM   33  C   UNL     1      38.730 -12.339  -3.627  1.00  0.00     0.005 C 
HETATM   34  C   UNL     1      41.863 -14.408  -2.543  1.00  0.00     0.241 C 
HETATM   35  C   UNL     1      39.585 -15.061  -3.589  1.00  0.00     0.007 C 
HETATM   36  C   UNL     1      38.211 -14.770  -2.994  1.00  0.00     0.000 C 
HETATM   37  C   UNL     1      37.662 -13.395  -3.359  1.00  0.00     0.000 C 
BRANCH  29  38
HETATM   38  C   UNL     1      41.441 -12.430   0.769  1.00  0.00     0.249 C 
HETATM   39  N   UNL     1      40.302 -11.993   1.408  1.00  0.00    -0.351 N 
HETATM   40  H   UNL     1      39.519 -11.696   0.840  1.00  0.00     0.163 HD
HETATM   41  O   UNL     1      42.541 -12.541   1.311  1.00  0.00    -0.271 OA
BRANCH  39  42
HETATM   42  C   UNL     1      40.236 -11.526   2.809  1.00  0.00     0.022 C 
HETATM   43  C   UNL     1      40.693 -10.063   2.895  1.00  0.00     0.037 C 
HETATM   44  C   UNL     1      38.767 -11.615   3.263  1.00  0.00     0.037 C 
HETATM   45  C   UNL     1      41.078 -12.402   3.750  1.00  0.00     0.037 C 
ENDBRANCH  39  42
ENDBRANCH  29  38
ENDBRANCH  26  27
ENDBRANCH   1  26
TORSDOF 12
ENDMDL
MODEL 5
REMARK VINA RESULT:      -8.4      2.662      7.532
REMARK  12 active torsions:
REMARK  status: ('A' for Active; 'I' for Inactive)
REMARK    1  A    between atoms: C_3  and  O_4 
REMARK    2  A    between atoms: C_8  and  C_9 
REMARK       I    between atoms: C_9  and  N_10 
REMARK    3  A    between atoms: N_10  and  C_11 
REMARK    4  A    between atoms: C_11  and  C_33 
REMARK    5  A    between atoms: C_11  and  C_12 
REMARK    6  A    between atoms: C_12  and  O_13 
REMARK    7  A    between atoms: C_12  and  C_14 
REMARK    8  A    between atoms: C_14  and  N_15 
REMARK    9  A    between atoms: C_17  and  C_18 
REMARK       I    between atoms: C_18  and  N_19 
REMARK   10  A    between atoms: N_19  and  C_20 
REMARK   11  A    between atoms: C_33  and  S_34 
REMARK   12  A    between atoms: S_34  and  C_35 
ROOT
HETATM    1  C   UNL     1      40.478 -15.795   2.326  1.00  0.00     0.167 C 
ENDROOT
BRANCH   1   2
HETATM    2  C   UNL     1      41.667 -16.324   1.458  1.00  0.00     0.124 C 
BRANCH   2   3
HETATM    3  N   UNL     1      42.144 -17.622   1.972  1.00  0.00    -0.349 N 
HETATM    4  C   UNL     1      43.489 -17.917   2.040  1.00  0.00     0.252 C 
HETATM    5  O   UNL     1      44.356 -17.089   1.783  1.00  0.00    -0.268 OA
HETATM    6  H   UNL     1      41.484 -18.388   2.072  1.00  0.00     0.163 HD
BRANCH   4   7
HETATM    7  C   UNL     1      43.827 -19.307   2.444  1.00  0.00     0.040 A 
HETATM    8  C   UNL     1      44.268 -19.603   3.753  1.00  0.00    -0.013 A 
HETATM    9  C   UNL     1      44.462 -18.518   4.777  1.00  0.00     0.052 C 
HETATM   10  C   UNL     1      44.503 -20.950   4.065  1.00  0.00     0.072 A 
HETATM   11  C   UNL     1      44.365 -21.957   3.109  1.00  0.00     0.037 A 
HETATM   12  C   UNL     1      43.949 -21.647   1.819  1.00  0.00     0.004 A 
HETATM   13  C   UNL     1      43.669 -20.325   1.487  1.00  0.00     0.018 A 
BRANCH  10  14
HETATM   14  O   UNL     1      44.880 -21.375   5.307  1.00  0.00    -0.360 OA
HETATM   15  H   UNL     1      44.146 -21.272   5.933  1.00  0.00     0.217 HD
ENDBRANCH  10  14
ENDBRANCH   4   7
ENDBRANCH   2   3
BRANCH   2  16
HETATM   16  C   UNL     1      41.365 -16.462  -0.044  1.00  0.00     0.107 C 
BRANCH  16  17
HETATM   17  S   UNL     1      41.592 -14.885  -0.936  1.00  0.00    -0.128 SA
BRANCH  17  18
HETATM   18  C   UNL     1      40.228 -15.035  -2.077  1.00  0.00     0.000 A 
HETATM   19  C   UNL     1      39.090 -14.241  -1.908  1.00  0.00     0.018 A 
HETATM   20  C   UNL     1      38.010 -14.370  -2.783  1.00  0.00     0.001 A 
HETATM   21  C   UNL     1      38.064 -15.287  -3.832  1.00  0.00     0.000 A 
HETATM   22  C   UNL     1      39.202 -16.072  -4.012  1.00  0.00     0.001 A 
HETATM   23  C   UNL     1      40.284 -15.943  -3.138  1.00  0.00     0.018 A 
ENDBRANCH  17  18
ENDBRANCH  16  17
ENDBRANCH   2  16
ENDBRANCH   1   2
BRANCH   1  24
HETATM   24  O   UNL     1      39.167 -16.210   1.901  1.00  0.00    -0.392 OA
HETATM   25  H   UNL     1      38.912 -15.682   1.111  1.00  0.00     0.210 HD
ENDBRANCH   1  24
BRANCH   1  26
HETATM   26  C   UNL     1      40.463 -14.254   2.432  1.00  0.00     0.269 C 
BRANCH  26  27
HETATM   27  N   UNL     1      39.777 -13.867   3.749  1.00  0.00    -0.055 N 
HETATM   28  H   UNL     1      38.779 -13.881   3.455  1.00  0.00     0.281 HD
HETATM   29  C   UNL     1      40.002 -12.430   4.237  1.00  0.00     0.279 C 
HETATM   30  C   UNL     1      41.434 -12.327   4.752  1.00  0.00     0.048 C 
HETATM   31  C   UNL     1      41.653 -13.297   5.927  1.00  0.00    -0.006 C 
HETATM   32  C   UNL     1      41.244 -14.751   5.620  1.00  0.00     0.016 C 
HETATM   33  C   UNL     1      43.084 -13.246   6.470  1.00  0.00     0.005 C 
HETATM   34  C   UNL     1      39.912 -14.865   4.859  1.00  0.00     0.241 C 
HETATM   35  C   UNL     1      42.385 -15.616   5.042  1.00  0.00     0.007 C 
HETATM   36  C   UNL     1      43.595 -14.842   4.528  1.00  0.00     0.000 C 
HETATM   37  C   UNL     1      44.131 -13.813   5.517  1.00  0.00     0.000 C 
BRANCH  29  38
HETATM   38  C   UNL     1      39.559 -11.382   3.185  1.00  0.00     0.249 C 
HETATM   39  N   UNL     1      38.328 -11.579   2.599  1.00  0.00    -0.351 N 
HETATM   40  H   UNL     1      37.880 -12.479   2.716  1.00  0.00     0.163 HD
HETATM   41  O   UNL     1      40.330 -10.469   2.890  1.00  0.00    -0.271 OA
BRANCH  39  42
HETATM   42  C   UNL     1      37.775 -10.775   1.488  1.00  0.00     0.022 C 
HETATM   43  C   UNL     1      37.533  -9.333   1.954  1.00  0.00     0.037 C 
HETATM   44  C   UNL     1      38.819 -10.763   0.355  1.00  0.00     0.037 C 
HETATM   45  C   UNL     1      36.476 -11.379   0.930  1.00  0.00     0.037 C 
ENDBRANCH  39  42
ENDBRANCH  29  38
ENDBRANCH  26  27
ENDBRANCH   1  26
TORSDOF 12
ENDMDL
MODEL 6
REMARK VINA RESULT:      -8.4      2.908      7.087
REMARK  12 active torsions:
REMARK  status: ('A' for Active; 'I' for Inactive)
REMARK    1  A    between atoms: C_3  and  O_4 
REMARK    2  A    between atoms: C_8  and  C_9 
REMARK       I    between atoms: C_9  and  N_10 
REMARK    3  A    between atoms: N_10  and  C_11 
REMARK    4  A    between atoms: C_11  and  C_33 
REMARK    5  A    between atoms: C_11  and  C_12 
REMARK    6  A    between atoms: C_12  and  O_13 
REMARK    7  A    between atoms: C_12  and  C_14 
REMARK    8  A    between atoms: C_14  and  N_15 
REMARK    9  A    between atoms: C_17  and  C_18 
REMARK       I    between atoms: C_18  and  N_19 
REMARK   10  A    between atoms: N_19  and  C_20 
REMARK   11  A    between atoms: C_33  and  S_34 
REMARK   12  A    between atoms: S_34  and  C_35 
ROOT
HETATM    1  C   UNL     1      40.950 -14.069   5.182  1.00  0.00     0.167 C 
ENDROOT
BRANCH   1   2
HETATM    2  C   UNL     1      40.978 -12.817   4.244  1.00  0.00     0.124 C 
BRANCH   2   3
HETATM    3  N   UNL     1      40.724 -13.215   2.847  1.00  0.00    -0.349 N 
HETATM    4  C   UNL     1      41.728 -13.194   1.901  1.00  0.00     0.252 C 
HETATM    5  O   UNL     1      42.894 -12.953   2.187  1.00  0.00    -0.268 OA
HETATM    6  H   UNL     1      39.765 -13.293   2.520  1.00  0.00     0.163 HD
BRANCH   4   7
HETATM    7  C   UNL     1      41.306 -13.482   0.504  1.00  0.00     0.040 A 
HETATM    8  C   UNL     1      41.256 -14.805   0.012  1.00  0.00    -0.013 A 
HETATM    9  C   UNL     1      41.676 -15.973   0.864  1.00  0.00     0.052 C 
HETATM   10  C   UNL     1      40.786 -14.989  -1.297  1.00  0.00     0.072 A 
HETATM   11  C   UNL     1      40.435 -13.908  -2.107  1.00  0.00     0.037 A 
HETATM   12  C   UNL     1      40.509 -12.609  -1.613  1.00  0.00     0.004 A 
HETATM   13  C   UNL     1      40.933 -12.395  -0.306  1.00  0.00     0.018 A 
BRANCH  10  14
HETATM   14  O   UNL     1      40.640 -16.219  -1.873  1.00  0.00    -0.360 OA
HETATM   15  H   UNL     1      41.267 -16.321  -2.606  1.00  0.00     0.217 HD
ENDBRANCH  10  14
ENDBRANCH   4   7
ENDBRANCH   2   3
BRANCH   2  16
HETATM   16  C   UNL     1      40.002 -11.693   4.629  1.00  0.00     0.107 C 
BRANCH  16  17
HETATM   17  S   UNL     1      40.838 -10.074   4.760  1.00  0.00    -0.128 SA
BRANCH  17  18
HETATM   18  C   UNL     1      40.609  -9.805   6.509  1.00  0.00     0.000 A 
HETATM   19  C   UNL     1      39.690 -10.584   7.218  1.00  0.00     0.018 A 
HETATM   20  C   UNL     1      39.488 -10.362   8.582  1.00  0.00     0.001 A 
HETATM   21  C   UNL     1      40.208  -9.367   9.243  1.00  0.00     0.000 A 
HETATM   22  C   UNL     1      41.135  -8.597   8.543  1.00  0.00     0.001 A 
HETATM   23  C   UNL     1      41.338  -8.818   7.179  1.00  0.00     0.018 A 
ENDBRANCH  17  18
ENDBRANCH  16  17
ENDBRANCH   2  16
ENDBRANCH   1   2
BRANCH   1  24
HETATM   24  O   UNL     1      40.515 -13.822   6.532  1.00  0.00    -0.392 OA
HETATM   25  H   UNL     1      41.189 -14.184   7.149  1.00  0.00     0.210 HD
ENDBRANCH   1  24
BRANCH   1  26
HETATM   26  C   UNL     1      42.319 -14.780   5.260  1.00  0.00     0.269 C 
BRANCH  26  27
HETATM   27  N   UNL     1      42.389 -15.548   6.587  1.00  0.00    -0.055 N 
HETATM   28  H   UNL     1      41.905 -14.878   7.220  1.00  0.00     0.281 HD
HETATM   29  C   UNL     1      43.782 -15.707   7.209  1.00  0.00     0.279 C 
HETATM   30  C   UNL     1      44.553 -16.729   6.379  1.00  0.00     0.048 C 
HETATM   31  C   UNL     1      43.835 -18.089   6.399  1.00  0.00    -0.006 C 
HETATM   32  C   UNL     1      42.348 -18.016   6.002  1.00  0.00     0.016 C 
HETATM   33  C   UNL     1      44.561 -19.147   5.563  1.00  0.00     0.005 C 
HETATM   34  C   UNL     1      41.604 -16.825   6.631  1.00  0.00     0.241 C 
HETATM   35  C   UNL     1      42.090 -18.203   4.492  1.00  0.00     0.007 C 
HETATM   36  C   UNL     1      43.318 -18.064   3.598  1.00  0.00     0.000 C 
HETATM   37  C   UNL     1      44.511 -18.893   4.059  1.00  0.00     0.000 C 
BRANCH  29  38
HETATM   38  C   UNL     1      44.470 -14.340   7.454  1.00  0.00     0.249 C 
HETATM   39  N   UNL     1      44.258 -13.755   8.682  1.00  0.00    -0.351 N 
HETATM   40  H   UNL     1      43.517 -14.122   9.267  1.00  0.00     0.163 HD
HETATM   41  O   UNL     1      45.120 -13.827   6.543  1.00  0.00    -0.271 OA
BRANCH  39  42
HETATM   42  C   UNL     1      44.713 -12.402   9.072  1.00  0.00     0.022 C 
HETATM   43  C   UNL     1      43.700 -11.352   8.595  1.00  0.00     0.037 C 
HETATM   44  C   UNL     1      44.786 -12.360  10.610  1.00  0.00     0.037 C 
HETATM   45  C   UNL     1      46.111 -12.083   8.520  1.00  0.00     0.037 C 
ENDBRANCH  39  42
ENDBRANCH  29  38
ENDBRANCH  26  27
ENDBRANCH   1  26
TORSDOF 12
ENDMDL
MODEL 7
REMARK VINA RESULT:      -8.4      3.339      7.320
REMARK  12 active torsions:
REMARK  status: ('A' for Active; 'I' for Inactive)
REMARK    1  A    between atoms: C_3  and  O_4 
REMARK    2  A    between atoms: C_8  and  C_9 
REMARK       I    between atoms: C_9  and  N_10 
REMARK    3  A    between atoms: N_10  and  C_11 
REMARK    4  A    between atoms: C_11  and  C_33 
REMARK    5  A    between atoms: C_11  and  C_12 
REMARK    6  A    between atoms: C_12  and  O_13 
REMARK    7  A    between atoms: C_12  and  C_14 
REMARK    8  A    between atoms: C_14  and  N_15 
REMARK    9  A    between atoms: C_17  and  C_18 
REMARK       I    between atoms: C_18  and  N_19 
REMARK   10  A    between atoms: N_19  and  C_20 
REMARK   11  A    between atoms: C_33  and  S_34 
REMARK   12  A    between atoms: S_34  and  C_35 
ROOT
HETATM    1  C   UNL     1      43.359 -13.914   4.966  1.00  0.00     0.167 C 
ENDROOT
BRANCH   1   2
HETATM    2  C   UNL     1      44.062 -14.019   6.359  1.00  0.00     0.124 C 
BRANCH   2   3
HETATM    3  N   UNL     1      43.533 -12.996   7.281  1.00  0.00    -0.349 N 
HETATM    4  C   UNL     1      44.358 -12.323   8.157  1.00  0.00     0.252 C 
HETATM    5  O   UNL     1      45.576 -12.455   8.143  1.00  0.00    -0.268 OA
HETATM    6  H   UNL     1      42.530 -12.939   7.435  1.00  0.00     0.163 HD
BRANCH   4   7
HETATM    7  C   UNL     1      43.677 -11.423   9.125  1.00  0.00     0.040 A 
HETATM    8  C   UNL     1      44.158 -11.267  10.444  1.00  0.00    -0.013 A 
HETATM    9  C   UNL     1      45.347 -12.043  10.939  1.00  0.00     0.052 C 
HETATM   10  C   UNL     1      43.490 -10.350  11.269  1.00  0.00     0.072 A 
HETATM   11  C   UNL     1      42.361  -9.658  10.830  1.00  0.00     0.037 A 
HETATM   12  C   UNL     1      41.889  -9.837   9.534  1.00  0.00     0.004 A 
HETATM   13  C   UNL     1      42.551 -10.710   8.677  1.00  0.00     0.018 A 
BRANCH  10  14
HETATM   14  O   UNL     1      43.885 -10.068  12.546  1.00  0.00    -0.360 OA
HETATM   15  H   UNL     1      44.075 -10.889  13.026  1.00  0.00     0.217 HD
ENDBRANCH  10  14
ENDBRANCH   4   7
ENDBRANCH   2   3
BRANCH   2  16
HETATM   16  C   UNL     1      43.968 -15.397   7.034  1.00  0.00     0.107 C 
BRANCH  16  17
HETATM   17  S   UNL     1      42.468 -16.308   6.528  1.00  0.00    -0.128 SA
BRANCH  17  18
HETATM   18  C   UNL     1      43.256 -17.599   5.581  1.00  0.00     0.000 A 
HETATM   19  C   UNL     1      42.613 -18.129   4.459  1.00  0.00     0.018 A 
HETATM   20  C   UNL     1      43.214 -19.156   3.728  1.00  0.00     0.001 A 
HETATM   21  C   UNL     1      44.460 -19.651   4.111  1.00  0.00     0.000 A 
HETATM   22  C   UNL     1      45.111 -19.116   5.221  1.00  0.00     0.001 A 
HETATM   23  C   UNL     1      44.511 -18.089   5.953  1.00  0.00     0.018 A 
ENDBRANCH  17  18
ENDBRANCH  16  17
ENDBRANCH   2  16
ENDBRANCH   1   2
BRANCH   1  24
HETATM   24  O   UNL     1      44.238 -13.734   3.840  1.00  0.00    -0.392 OA
HETATM   25  H   UNL     1      43.719 -13.857   3.014  1.00  0.00     0.210 HD
ENDBRANCH   1  24
BRANCH   1  26
HETATM   26  C   UNL     1      42.308 -12.783   4.917  1.00  0.00     0.269 C 
BRANCH  26  27
HETATM   27  N   UNL     1      40.915 -13.422   4.841  1.00  0.00    -0.055 N 
HETATM   28  H   UNL     1      41.161 -14.427   4.944  1.00  0.00     0.281 HD
HETATM   29  C   UNL     1      40.206 -13.349   3.482  1.00  0.00     0.279 C 
HETATM   30  C   UNL     1      39.748 -11.910   3.267  1.00  0.00     0.048 C 
HETATM   31  C   UNL     1      38.762 -11.490   4.371  1.00  0.00    -0.006 C 
HETATM   32  C   UNL     1      39.286 -11.729   5.800  1.00  0.00     0.016 C 
HETATM   33  C   UNL     1      38.285 -10.043   4.211  1.00  0.00     0.005 C 
HETATM   34  C   UNL     1      39.993 -13.085   5.974  1.00  0.00     0.241 C 
HETATM   35  C   UNL     1      40.052 -10.530   6.398  1.00  0.00     0.007 C 
HETATM   36  C   UNL     1      40.486  -9.466   5.395  1.00  0.00     0.000 C 
HETATM   37  C   UNL     1      39.367  -8.999   4.471  1.00  0.00     0.000 C 
BRANCH  29  38
HETATM   38  C   UNL     1      41.049 -13.993   2.351  1.00  0.00     0.249 C 
HETATM   39  N   UNL     1      40.791 -15.315   2.067  1.00  0.00    -0.351 N 
HETATM   40  H   UNL     1      40.239 -15.848   2.727  1.00  0.00     0.163 HD
HETATM   41  O   UNL     1      41.925 -13.323   1.804  1.00  0.00    -0.271 OA
BRANCH  39  42
HETATM   42  C   UNL     1      41.562 -16.149   1.120  1.00  0.00     0.022 C 
HETATM   43  C   UNL     1      41.453 -15.571  -0.297  1.00  0.00     0.037 C 
HETATM   44  C   UNL     1      43.038 -16.111   1.560  1.00  0.00     0.037 C 
HETATM   45  C   UNL     1      41.100 -17.615   1.134  1.00  0.00     0.037 C 
ENDBRANCH  39  42
ENDBRANCH  29  38
ENDBRANCH  26  27
ENDBRANCH   1  26
TORSDOF 12
ENDMDL
MODEL 8
REMARK VINA RESULT:      -8.3      2.540      8.217
REMARK  12 active torsions:
REMARK  status: ('A' for Active; 'I' for Inactive)
REMARK    1  A    between atoms: C_3  and  O_4 
REMARK    2  A    between atoms: C_8  and  C_9 
REMARK       I    between atoms: C_9  and  N_10 
REMARK    3  A    between atoms: N_10  and  C_11 
REMARK    4  A    between atoms: C_11  and  C_33 
REMARK    5  A    between atoms: C_11  and  C_12 
REMARK    6  A    between atoms: C_12  and  O_13 
REMARK    7  A    between atoms: C_12  and  C_14 
REMARK    8  A    between atoms: C_14  and  N_15 
REMARK    9  A    between atoms: C_17  and  C_18 
REMARK       I    between atoms: C_18  and  N_19 
REMARK   10  A    between atoms: N_19  and  C_20 
REMARK   11  A    between atoms: C_33  and  S_34 
REMARK   12  A    between atoms: S_34  and  C_35 
ROOT
HETATM    1  C   UNL     1      40.954 -15.082   0.107  1.00  0.00     0.167 C 
ENDROOT
BRANCH   1   2
HETATM    2  C   UNL     1      41.546 -15.019   1.553  1.00  0.00     0.124 C 
BRANCH   2   3
HETATM    3  N   UNL     1      42.352 -16.222   1.833  1.00  0.00    -0.349 N 
HETATM    4  C   UNL     1      41.854 -17.260   2.593  1.00  0.00     0.252 C 
HETATM    5  O   UNL     1      40.692 -17.289   2.981  1.00  0.00    -0.268 OA
HETATM    6  H   UNL     1      43.353 -16.200   1.658  1.00  0.00     0.163 HD
BRANCH   4   7
HETATM    7  C   UNL     1      42.817 -18.346   2.915  1.00  0.00     0.040 A 
HETATM    8  C   UNL     1      43.475 -18.395   4.164  1.00  0.00    -0.013 A 
HETATM    9  C   UNL     1      43.267 -17.325   5.200  1.00  0.00     0.052 C 
HETATM   10  C   UNL     1      44.318 -19.490   4.405  1.00  0.00     0.072 A 
HETATM   11  C   UNL     1      44.549 -20.465   3.433  1.00  0.00     0.037 A 
HETATM   12  C   UNL     1      43.909 -20.390   2.200  1.00  0.00     0.004 A 
HETATM   13  C   UNL     1      43.035 -19.339   1.943  1.00  0.00     0.018 A 
BRANCH  10  14
HETATM   14  O   UNL     1      44.971 -19.685   5.589  1.00  0.00    -0.360 OA
HETATM   15  H   UNL     1      45.166 -18.831   6.007  1.00  0.00     0.217 HD
ENDBRANCH  10  14
ENDBRANCH   4   7
ENDBRANCH   2   3
BRANCH   2  16
HETATM   16  C   UNL     1      42.390 -13.770   1.857  1.00  0.00     0.107 C 
BRANCH  16  17
HETATM   17  S   UNL     1      43.267 -13.906   3.453  1.00  0.00    -0.128 SA
BRANCH  17  18
HETATM   18  C   UNL     1      41.927 -13.425   4.528  1.00  0.00     0.000 A 
HETATM   19  C   UNL     1      41.869 -12.120   5.026  1.00  0.00     0.018 A 
HETATM   20  C   UNL     1      40.836 -11.744   5.886  1.00  0.00     0.001 A 
HETATM   21  C   UNL     1      39.854 -12.667   6.246  1.00  0.00     0.000 A 
HETATM   22  C   UNL     1      39.900 -13.965   5.741  1.00  0.00     0.001 A 
HETATM   23  C   UNL     1      40.933 -14.343   4.881  1.00  0.00     0.018 A 
ENDBRANCH  17  18
ENDBRANCH  16  17
ENDBRANCH   2  16
ENDBRANCH   1   2
BRANCH   1  24
HETATM   24  O   UNL     1      41.737 -15.816  -0.852  1.00  0.00    -0.392 OA
HETATM   25  H   UNL     1      42.260 -16.497  -0.375  1.00  0.00     0.210 HD
ENDBRANCH   1  24
BRANCH   1  26
HETATM   26  C   UNL     1      40.692 -13.680  -0.486  1.00  0.00     0.269 C 
BRANCH  26  27
HETATM   27  N   UNL     1      39.254 -13.643  -1.021  1.00  0.00    -0.055 N 
HETATM   28  H   UNL     1      39.302 -14.386  -1.748  1.00  0.00     0.281 HD
HETATM   29  C   UNL     1      38.850 -12.385  -1.801  1.00  0.00     0.279 C 
HETATM   30  C   UNL     1      38.691 -11.244  -0.801  1.00  0.00     0.048 C 
HETATM   31  C   UNL     1      37.591 -11.575   0.223  1.00  0.00    -0.006 C 
HETATM   32  C   UNL     1      37.775 -12.939   0.916  1.00  0.00     0.016 C 
HETATM   33  C   UNL     1      37.404 -10.466   1.262  1.00  0.00     0.005 C 
HETATM   34  C   UNL     1      38.196 -14.064  -0.046  1.00  0.00     0.241 C 
HETATM   35  C   UNL     1      38.598 -12.875   2.221  1.00  0.00     0.007 C 
HETATM   36  C   UNL     1      39.393 -11.590   2.429  1.00  0.00     0.000 C 
HETATM   37  C   UNL     1      38.573 -10.320   2.232  1.00  0.00     0.000 C 
BRANCH  29  38
HETATM   38  C   UNL     1      39.779 -12.130  -3.015  1.00  0.00     0.249 C 
HETATM   39  N   UNL     1      40.373 -10.890  -3.086  1.00  0.00    -0.351 N 
HETATM   40  H   UNL     1      40.021 -10.154  -2.485  1.00  0.00     0.163 HD
HETATM   41  O   UNL     1      39.903 -13.009  -3.867  1.00  0.00    -0.271 OA
BRANCH  39  42
HETATM   42  C   UNL     1      41.187 -10.399  -4.219  1.00  0.00     0.022 C 
HETATM   43  C   UNL     1      40.322 -10.301  -5.482  1.00  0.00     0.037 C 
HETATM   44  C   UNL     1      41.694  -8.990  -3.853  1.00  0.00     0.037 C 
HETATM   45  C   UNL     1      42.411 -11.291  -4.479  1.00  0.00     0.037 C 
ENDBRANCH  39  42
ENDBRANCH  29  38
ENDBRANCH  26  27
ENDBRANCH   1  26
TORSDOF 12
ENDMDL
MODEL 9
REMARK VINA RESULT:      -8.2      2.258      7.489
REMARK  12 active torsions:
REMARK  status: ('A' for Active; 'I' for Inactive)
REMARK    1  A    between atoms: C_3  and  O_4 
REMARK    2  A    between atoms: C_8  and  C_9 
REMARK       I    between atoms: C_9  and  N_10 
REMARK    3  A    between atoms: N_10  and  C_11 
REMARK    4  A    between atoms: C_11  and  C_33 
REMARK    5  A    between atoms: C_11  and  C_12 
REMARK    6  A    between atoms: C_12  and  O_13 
REMARK    7  A    between atoms: C_12  and  C_14 
REMARK    8  A    between atoms: C_14  and  N_15 
REMARK    9  A    between atoms: C_17  and  C_18 
REMARK       I    between atoms: C_18  and  N_19 
REMARK   10  A    between atoms: N_19  and  C_20 
REMARK   11  A    between atoms: C_33  and  S_34 
REMARK   12  A    between atoms: S_34  and  C_35 
ROOT
HETATM    1  C   UNL     1      41.750 -16.090   1.229  1.00  0.00     0.167 C 
ENDROOT
BRANCH   1   2
HETATM    2  C   UNL     1      42.366 -16.197   2.662  1.00  0.00     0.124 C 
BRANCH   2   3
HETATM    3  N   UNL     1      42.761 -17.589   2.951  1.00  0.00    -0.349 N 
HETATM    4  C   UNL     1      43.885 -18.149   2.382  1.00  0.00     0.252 C 
HETATM    5  O   UNL     1      44.669 -17.498   1.701  1.00  0.00    -0.268 OA
HETATM    6  H   UNL     1      42.091 -18.213   3.391  1.00  0.00     0.163 HD
BRANCH   4   7
HETATM    7  C   UNL     1      44.090 -19.598   2.645  1.00  0.00     0.040 A 
HETATM    8  C   UNL     1      44.578 -20.055   3.890  1.00  0.00    -0.013 A 
HETATM    9  C   UNL     1      44.957 -19.092   4.982  1.00  0.00     0.052 C 
HETATM   10  C   UNL     1      44.679 -21.442   4.072  1.00  0.00     0.072 A 
HETATM   11  C   UNL     1      44.369 -22.339   3.049  1.00  0.00     0.037 A 
HETATM   12  C   UNL     1      43.909 -21.872   1.822  1.00  0.00     0.004 A 
HETATM   13  C   UNL     1      43.758 -20.503   1.622  1.00  0.00     0.018 A 
BRANCH  10  14
HETATM   14  O   UNL     1      45.085 -22.014   5.244  1.00  0.00    -0.360 OA
HETATM   15  H   UNL     1      45.028 -21.370   5.967  1.00  0.00     0.217 HD
ENDBRANCH  10  14
ENDBRANCH   4   7
ENDBRANCH   2   3
BRANCH   2  16
HETATM   16  C   UNL     1      43.566 -15.272   2.926  1.00  0.00     0.107 C 
BRANCH  16  17
HETATM   17  S   UNL     1      43.256 -14.123   4.310  1.00  0.00    -0.128 SA
BRANCH  17  18
HETATM   18  C   UNL     1      43.050 -15.330   5.608  1.00  0.00     0.000 A 
HETATM   19  C   UNL     1      44.149 -15.714   6.381  1.00  0.00     0.018 A 
HETATM   20  C   UNL     1      44.000 -16.675   7.383  1.00  0.00     0.001 A 
HETATM   21  C   UNL     1      42.752 -17.251   7.619  1.00  0.00     0.000 A 
HETATM   22  C   UNL     1      41.650 -16.862   6.860  1.00  0.00     0.001 A 
HETATM   23  C   UNL     1      41.798 -15.900   5.858  1.00  0.00     0.018 A 
ENDBRANCH  17  18
ENDBRANCH  16  17
ENDBRANCH   2  16
ENDBRANCH   1   2
BRANCH   1  24
HETATM   24  O   UNL     1      42.573 -16.593   0.160  1.00  0.00    -0.392 OA
HETATM   25  H   UNL     1      41.989 -16.956  -0.542  1.00  0.00     0.210 HD
ENDBRANCH   1  24
BRANCH   1  26
HETATM   26  C   UNL     1      41.353 -14.642   0.863  1.00  0.00     0.269 C 
BRANCH  26  27
HETATM   27  N   UNL     1      39.866 -14.631   0.484  1.00  0.00    -0.055 N 
HETATM   28  H   UNL     1      39.835 -15.422  -0.191  1.00  0.00     0.281 HD
HETATM   29  C   UNL     1      39.381 -13.425  -0.332  1.00  0.00     0.279 C 
HETATM   30  C   UNL     1      39.331 -12.217   0.598  1.00  0.00     0.048 C 
HETATM   31  C   UNL     1      38.348 -12.470   1.755  1.00  0.00    -0.006 C 
HETATM   32  C   UNL     1      38.605 -13.785   2.517  1.00  0.00     0.016 C 
HETATM   33  C   UNL     1      38.275 -11.291   2.730  1.00  0.00     0.005 C 
HETATM   34  C   UNL     1      38.919 -14.975   1.594  1.00  0.00     0.241 C 
HETATM   35  C   UNL     1      39.564 -13.638   3.718  1.00  0.00     0.007 C 
HETATM   36  C   UNL     1      40.378 -12.348   3.750  1.00  0.00     0.000 C 
HETATM   37  C   UNL     1      39.541 -11.088   3.556  1.00  0.00     0.000 C 
BRANCH  29  38
HETATM   38  C   UNL     1      40.173 -13.260  -1.653  1.00  0.00     0.249 C 
HETATM   39  N   UNL     1      40.993 -12.159  -1.747  1.00  0.00    -0.351 N 
HETATM   40  H   UNL     1      40.882 -11.419  -1.065  1.00  0.00     0.163 HD
HETATM   41  O   UNL     1      40.001 -14.077  -2.559  1.00  0.00    -0.271 OA
BRANCH  39  42
HETATM   42  C   UNL     1      41.734 -11.747  -2.959  1.00  0.00     0.022 C 
HETATM   43  C   UNL     1      42.458 -10.419  -2.705  1.00  0.00     0.037 C 
HETATM   44  C   UNL     1      42.782 -12.836  -3.258  1.00  0.00     0.037 C 
HETATM   45  C   UNL     1      40.813 -11.625  -4.184  1.00  0.00     0.037 C 
ENDBRANCH  39  42
ENDBRANCH  29  38
ENDBRANCH  26  27
ENDBRANCH   1  26
TORSDOF 12
ENDMDL
MODEL 10
REMARK VINA RESULT:      -8.2      2.700      7.030
REMARK  12 active torsions:
REMARK  status: ('A' for Active; 'I' for Inactive)
REMARK    1  A    between atoms: C_3  and  O_4 
REMARK    2  A    between atoms: C_8  and  C_9 
REMARK       I    between atoms: C_9  and  N_10 
REMARK    3  A    between atoms: N_10  and  C_11 
REMARK    4  A    between atoms: C_11  and  C_33 
REMARK    5  A    between atoms: C_11  and  C_12 
REMARK    6  A    between atoms: C_12  and  O_13 
REMARK    7  A    between atoms: C_12  and  C_14 
REMARK    8  A    between atoms: C_14  and  N_15 
REMARK    9  A    between atoms: C_17  and  C_18 
REMARK       I    between atoms: C_18  and  N_19 
REMARK   10  A    between atoms: N_19  and  C_20 
REMARK   11  A    between atoms: C_33  and  S_34 
REMARK   12  A    between atoms: S_34  and  C_35 
ROOT
HETATM    1  C   UNL     1      41.237 -12.432   1.954  1.00  0.00     0.167 C 
ENDROOT
BRANCH   1   2
HETATM    2  C   UNL     1      41.389 -11.928   0.481  1.00  0.00     0.124 C 
BRANCH   2   3
HETATM    3  N   UNL     1      40.411 -12.597  -0.396  1.00  0.00    -0.349 N 
HETATM    4  C   UNL     1      40.815 -13.361  -1.471  1.00  0.00     0.252 C 
HETATM    5  O   UNL     1      41.994 -13.612  -1.691  1.00  0.00    -0.268 OA
HETATM    6  H   UNL     1      39.434 -12.322  -0.350  1.00  0.00     0.163 HD
BRANCH   4   7
HETATM    7  C   UNL     1      39.728 -13.862  -2.354  1.00  0.00     0.040 A 
HETATM    8  C   UNL     1      39.847 -15.093  -3.036  1.00  0.00    -0.013 A 
HETATM    9  C   UNL     1      41.098 -15.923  -2.939  1.00  0.00     0.052 C 
HETATM   10  C   UNL     1      38.747 -15.518  -3.796  1.00  0.00     0.072 A 
HETATM   11  C   UNL     1      37.600 -14.733  -3.925  1.00  0.00     0.037 A 
HETATM   12  C   UNL     1      37.507 -13.514  -3.262  1.00  0.00     0.004 A 
HETATM   13  C   UNL     1      38.564 -13.082  -2.468  1.00  0.00     0.018 A 
BRANCH  10  14
HETATM   14  O   UNL     1      38.713 -16.710  -4.461  1.00  0.00    -0.360 OA
HETATM   15  H   UNL     1      37.799 -17.025  -4.537  1.00  0.00     0.217 HD
ENDBRANCH  10  14
ENDBRANCH   4   7
ENDBRANCH   2   3
BRANCH   2  16
HETATM   16  C   UNL     1      41.267 -10.406   0.298  1.00  0.00     0.107 C 
BRANCH  16  17
HETATM   17  S   UNL     1      42.612  -9.729  -0.735  1.00  0.00    -0.128 SA
BRANCH  17  18
HETATM   18  C   UNL     1      41.920 -10.098  -2.338  1.00  0.00     0.000 A 
HETATM   19  C   UNL     1      40.592  -9.763  -2.616  1.00  0.00     0.018 A 
HETATM   20  C   UNL     1      40.038 -10.071  -3.860  1.00  0.00     0.001 A 
HETATM   21  C   UNL     1      40.809 -10.708  -4.831  1.00  0.00     0.000 A 
HETATM   22  C   UNL     1      42.138 -11.031  -4.564  1.00  0.00     0.001 A 
HETATM   23  C   UNL     1      42.694 -10.724  -3.320  1.00  0.00     0.018 A 
ENDBRANCH  17  18
ENDBRANCH  16  17
ENDBRANCH   2  16
ENDBRANCH   1   2
BRANCH   1  24
HETATM   24  O   UNL     1      41.796 -11.572   2.964  1.00  0.00    -0.392 OA
HETATM   25  H   UNL     1      41.650 -10.638   2.697  1.00  0.00     0.210 HD
ENDBRANCH   1  24
BRANCH   1  26
HETATM   26  C   UNL     1      41.838 -13.840   2.162  1.00  0.00     0.269 C 
BRANCH  26  27
HETATM   27  N   UNL     1      40.722 -14.773   2.653  1.00  0.00    -0.055 N 
HETATM   28  H   UNL     1      39.935 -14.098   2.741  1.00  0.00     0.281 HD
HETATM   29  C   UNL     1      40.885 -15.344   4.067  1.00  0.00     0.279 C 
HETATM   30  C   UNL     1      41.986 -16.399   4.024  1.00  0.00     0.048 C 
HETATM   31  C   UNL     1      41.601 -17.538   3.064  1.00  0.00    -0.006 C 
HETATM   32  C   UNL     1      41.196 -17.058   1.656  1.00  0.00     0.016 C 
HETATM   33  C   UNL     1      42.683 -18.617   2.970  1.00  0.00     0.005 C 
HETATM   34  C   UNL     1      40.284 -15.818   1.672  1.00  0.00     0.241 C 
HETATM   35  C   UNL     1      42.370 -16.973   0.659  1.00  0.00     0.007 C 
HETATM   36  C   UNL     1      43.761 -17.014   1.283  1.00  0.00     0.000 C 
HETATM   37  C   UNL     1      43.959 -18.159   2.270  1.00  0.00     0.000 C 
BRANCH  29  38
HETATM   38  C   UNL     1      41.026 -14.227   5.132  1.00  0.00     0.249 C 
HETATM   39  N   UNL     1      40.042 -13.265   5.151  1.00  0.00    -0.351 N 
HETATM   40  H   UNL     1      39.412 -13.209   4.360  1.00  0.00     0.163 HD
HETATM   41  O   UNL     1      42.015 -14.223   5.866  1.00  0.00    -0.271 OA
BRANCH  39  42
HETATM   42  C   UNL     1      40.052 -12.051   5.996  1.00  0.00     0.022 C 
HETATM   43  C   UNL     1      39.278 -10.923   5.300  1.00  0.00     0.037 C 
HETATM   44  C   UNL     1      39.343 -12.397   7.319  1.00  0.00     0.037 C 
HETATM   45  C   UNL     1      41.480 -11.591   6.327  1.00  0.00     0.037 C 
ENDBRANCH  39  42
ENDBRANCH  29  38
ENDBRANCH  26  27
ENDBRANCH   1  26
TORSDOF 12
ENDMDL
