MODEL 1
REMARK VINA RESULT:      -7.8      0.000      0.000
REMARK  12 active torsions:
REMARK  status: ('A' for Active; 'I' for Inactive)
REMARK    1  A    between atoms: C_2  and  C_3 
REMARK    2  A    between atoms: C_3  and  N_4 
REMARK    3  A    between atoms: C_3  and  C_25 
REMARK    4  A    between atoms: N_4  and  C_6 
REMARK    5  A    between atoms: N_4  and  C_21 
REMARK    6  A    between atoms: C_6  and  C_7 
REMARK    7  A    between atoms: C_8  and  O_9 
REMARK    8  A    between atoms: C_21  and  C_22 
REMARK    9  A    between atoms: C_22  and  C_23 
REMARK   10  A    between atoms: C_23  and  O_24 
REMARK   11  A    between atoms: N_26  and  C_27 
REMARK   12  A    between atoms: C_27  and  C_28 
ROOT
HETATM    1  N   UNL     1      41.484 -15.010  -1.243  1.00  0.00    -0.055 N 
HETATM    2  H   UNL     1      42.475 -15.179  -1.038  1.00  0.00     0.281 HD
ENDROOT
BRANCH   1   3
HETATM    3  C   UNL     1      41.316 -13.573  -0.674  1.00  0.00     0.263 C 
BRANCH   3   4
HETATM    4  C   UNL     1      41.672 -12.431  -1.675  1.00  0.00     0.016 C 
HETATM    5  C   UNL     1      42.822 -11.566  -1.130  1.00  0.00     0.012 C 
HETATM    6  C   UNL     1      40.533 -11.506  -2.094  1.00  0.00     0.012 C 
ENDBRANCH   3   4
BRANCH   3   7
HETATM    7  C   UNL     1      40.038 -13.354   0.079  1.00  0.00     0.168 A 
HETATM    8  N   UNL     1      39.884 -12.715   1.291  1.00  0.00    -0.257 N 
HETATM    9  N   UNL     1      38.596 -12.774   1.664  1.00  0.00    -0.003 NA
HETATM   10  N   UNL     1      37.968 -13.409   0.690  1.00  0.00     0.018 NA
HETATM   11  N   UNL     1      38.843 -13.769  -0.292  1.00  0.00    -0.145 NA
BRANCH   8  12
HETATM   12  C   UNL     1      40.829 -12.018   2.147  1.00  0.00     0.186 C 
BRANCH  12  13
HETATM   13  C   UNL     1      41.590 -12.948   3.059  1.00  0.00    -0.039 A 
HETATM   14  C   UNL     1      42.799 -13.517   2.625  1.00  0.00     0.009 A 
HETATM   15  C   UNL     1      43.539 -14.341   3.472  1.00  0.00     0.001 A 
HETATM   16  C   UNL     1      43.089 -14.597   4.765  1.00  0.00     0.000 A 
HETATM   17  C   UNL     1      41.902 -14.024   5.214  1.00  0.00     0.001 A 
HETATM   18  C   UNL     1      41.157 -13.198   4.371  1.00  0.00     0.009 A 
ENDBRANCH  12  13
ENDBRANCH   8  12
ENDBRANCH   3   7
ENDBRANCH   1   3
BRANCH   1  19
HETATM   19  C   UNL     1      40.861 -16.211  -0.518  1.00  0.00     0.278 C 
BRANCH  19  20
HETATM   20  C   UNL     1      41.241 -16.621   0.871  1.00  0.00     0.021 A 
HETATM   21  C   UNL     1      40.408 -16.473   1.964  1.00  0.00     0.170 A 
HETATM   22  N   UNL     1      40.644 -16.901   3.214  1.00  0.00    -0.224 NA
HETATM   23  C   UNL     1      41.771 -17.597   3.434  1.00  0.00     0.072 A 
HETATM   24  C   UNL     1      42.700 -17.859   2.392  1.00  0.00    -0.004 A 
HETATM   25  C   UNL     1      42.020 -18.103   4.704  1.00  0.00     0.072 A 
HETATM   26  C   UNL     1      42.414 -17.347   1.114  1.00  0.00     0.027 A 
HETATM   27  C   UNL     1      43.850 -18.632   2.634  1.00  0.00     0.053 A 
HETATM   28  C   UNL     1      44.035 -19.133   3.902  1.00  0.00     0.106 A 
HETATM   29  C   UNL     1      43.147 -18.871   4.912  1.00  0.00     0.107 A 
HETATM   30  O   UNL     1      45.062 -19.925   4.306  1.00  0.00    -0.323 OA
HETATM   31  O   UNL     1      43.502 -19.464   6.082  1.00  0.00    -0.323 OA
HETATM   32  C   UNL     1      44.698 -20.167   5.682  1.00  0.00     0.352 A 
BRANCH  21  33
HETATM   33  O   UNL     1      39.193 -15.892   1.853  1.00  0.00    -0.344 OA
HETATM   34  H   UNL     1      38.883 -15.964   2.779  1.00  0.00     0.219 HD
ENDBRANCH  21  33
ENDBRANCH  19  20
ENDBRANCH   1  19
BRANCH   1  35
HETATM   35  C   UNL     1      41.445 -15.061  -2.766  1.00  0.00     0.238 C 
BRANCH  35  36
HETATM   36  C   UNL     1      40.244 -15.855  -3.284  1.00  0.00     0.054 C 
BRANCH  36  37
HETATM   37  C   UNL     1      39.081 -14.939  -3.647  1.00  0.00     0.165 C 
BRANCH  37  38
HETATM   38  O   UNL     1      38.019 -15.149  -2.733  1.00  0.00    -0.401 OA
HETATM   39  H   UNL     1      38.416 -15.361  -1.865  1.00  0.00     0.209 HD
ENDBRANCH  37  38
ENDBRANCH  36  37
ENDBRANCH  35  36
ENDBRANCH   1  35
TORSDOF 12
ENDMDL
MODEL 2
REMARK VINA RESULT:      -7.3      2.910      8.381
REMARK  12 active torsions:
REMARK  status: ('A' for Active; 'I' for Inactive)
REMARK    1  A    between atoms: C_2  and  C_3 
REMARK    2  A    between atoms: C_3  and  N_4 
REMARK    3  A    between atoms: C_3  and  C_25 
REMARK    4  A    between atoms: N_4  and  C_6 
REMARK    5  A    between atoms: N_4  and  C_21 
REMARK    6  A    between atoms: C_6  and  C_7 
REMARK    7  A    between atoms: C_8  and  O_9 
REMARK    8  A    between atoms: C_21  and  C_22 
REMARK    9  A    between atoms: C_22  and  C_23 
REMARK   10  A    between atoms: C_23  and  O_24 
REMARK   11  A    between atoms: N_26  and  C_27 
REMARK   12  A    between atoms: C_27  and  C_28 
ROOT
HETATM    1  N   UNL     1      43.801 -14.696   6.183  1.00  0.00    -0.055 N 
HETATM    2  H   UNL     1      44.428 -14.355   5.446  1.00  0.00     0.281 HD
ENDROOT
BRANCH   1   3
HETATM    3  C   UNL     1      43.938 -16.232   5.985  1.00  0.00     0.263 C 
BRANCH   3   4
HETATM    4  C   UNL     1      44.519 -16.998   7.214  1.00  0.00     0.016 C 
HETATM    5  C   UNL     1      45.419 -18.160   6.759  1.00  0.00     0.012 C 
HETATM    6  C   UNL     1      43.511 -17.538   8.225  1.00  0.00     0.012 C 
ENDBRANCH   3   4
BRANCH   3   7
HETATM    7  C   UNL     1      42.737 -16.883   5.367  1.00  0.00     0.168 A 
HETATM    8  N   UNL     1      42.679 -17.552   4.163  1.00  0.00    -0.257 N 
HETATM    9  N   UNL     1      41.415 -17.940   3.931  1.00  0.00    -0.003 NA
HETATM   10  N   UNL     1      40.718 -17.545   4.982  1.00  0.00     0.018 NA
HETATM   11  N   UNL     1      41.519 -16.896   5.874  1.00  0.00    -0.145 NA
BRANCH   8  12
HETATM   12  C   UNL     1      43.705 -17.896   3.194  1.00  0.00     0.186 C 
BRANCH  12  13
HETATM   13  C   UNL     1      43.922 -19.383   3.072  1.00  0.00    -0.039 A 
HETATM   14  C   UNL     1      43.550 -20.048   1.892  1.00  0.00     0.009 A 
HETATM   15  C   UNL     1      43.786 -21.415   1.743  1.00  0.00     0.001 A 
HETATM   16  C   UNL     1      44.407 -22.130   2.765  1.00  0.00     0.000 A 
HETATM   17  C   UNL     1      44.798 -21.479   3.933  1.00  0.00     0.001 A 
HETATM   18  C   UNL     1      44.564 -20.112   4.086  1.00  0.00     0.009 A 
ENDBRANCH  12  13
ENDBRANCH   8  12
ENDBRANCH   3   7
ENDBRANCH   1   3
BRANCH   1  19
HETATM   19  C   UNL     1      42.509 -13.973   5.779  1.00  0.00     0.278 C 
BRANCH  19  20
HETATM   20  C   UNL     1      42.120 -13.715   4.357  1.00  0.00     0.021 A 
HETATM   21  C   UNL     1      43.035 -13.542   3.336  1.00  0.00     0.170 A 
HETATM   22  N   UNL     1      42.760 -13.401   2.029  1.00  0.00    -0.224 NA
HETATM   23  C   UNL     1      41.476 -13.493   1.648  1.00  0.00     0.072 A 
HETATM   24  C   UNL     1      40.434 -13.710   2.588  1.00  0.00    -0.004 A 
HETATM   25  C   UNL     1      41.161 -13.407   0.297  1.00  0.00     0.072 A 
HETATM   26  C   UNL     1      40.784 -13.807   3.946  1.00  0.00     0.027 A 
HETATM   27  C   UNL     1      39.101 -13.853   2.161  1.00  0.00     0.053 A 
HETATM   28  C   UNL     1      38.846 -13.788   0.811  1.00  0.00     0.106 A 
HETATM   29  C   UNL     1      39.848 -13.565  -0.097  1.00  0.00     0.107 A 
HETATM   30  O   UNL     1      37.633 -13.939   0.218  1.00  0.00    -0.323 OA
HETATM   31  O   UNL     1      39.395 -13.547  -1.378  1.00  0.00    -0.323 OA
HETATM   32  C   UNL     1      37.993 -13.826  -1.176  1.00  0.00     0.352 A 
BRANCH  21  33
HETATM   33  O   UNL     1      44.366 -13.546   3.572  1.00  0.00    -0.344 OA
HETATM   34  H   UNL     1      44.371 -13.313   4.523  1.00  0.00     0.219 HD
ENDBRANCH  21  33
ENDBRANCH  19  20
ENDBRANCH   1  19
BRANCH   1  35
HETATM   35  C   UNL     1      44.475 -14.192   7.454  1.00  0.00     0.238 C 
BRANCH  35  36
HETATM   36  C   UNL     1      44.137 -12.728   7.743  1.00  0.00     0.054 C 
BRANCH  36  37
HETATM   37  C   UNL     1      44.625 -12.302   9.123  1.00  0.00     0.165 C 
BRANCH  37  38
HETATM   38  O   UNL     1      44.190 -13.248  10.083  1.00  0.00    -0.401 OA
HETATM   39  H   UNL     1      44.221 -12.814  10.958  1.00  0.00     0.209 HD
ENDBRANCH  37  38
ENDBRANCH  36  37
ENDBRANCH  35  36
ENDBRANCH   1  35
TORSDOF 12
ENDMDL
MODEL 3
REMARK VINA RESULT:      -7.2      2.241      5.313
REMARK  12 active torsions:
REMARK  status: ('A' for Active; 'I' for Inactive)
REMARK    1  A    between atoms: C_2  and  C_3 
REMARK    2  A    between atoms: C_3  and  N_4 
REMARK    3  A    between atoms: C_3  and  C_25 
REMARK    4  A    between atoms: N_4  and  C_6 
REMARK    5  A    between atoms: N_4  and  C_21 
REMARK    6  A    between atoms: C_6  and  C_7 
REMARK    7  A    between atoms: C_8  and  O_9 
REMARK    8  A    between atoms: C_21  and  C_22 
REMARK    9  A    between atoms: C_22  and  C_23 
REMARK   10  A    between atoms: C_23  and  O_24 
REMARK   11  A    between atoms: N_26  and  C_27 
REMARK   12  A    between atoms: C_27  and  C_28 
ROOT
HETATM    1  N   UNL     1      41.696 -14.494   2.965  1.00  0.00    -0.055 N 
HETATM    2  H   UNL     1      41.138 -15.277   3.323  1.00  0.00     0.281 HD
ENDROOT
BRANCH   1   3
HETATM    3  C   UNL     1      40.843 -14.076   1.733  1.00  0.00     0.263 C 
BRANCH   3   4
HETATM    4  C   UNL     1      39.404 -13.581   2.076  1.00  0.00     0.016 C 
HETATM    5  C   UNL     1      38.347 -14.432   1.351  1.00  0.00     0.012 C 
HETATM    6  C   UNL     1      39.102 -12.110   1.807  1.00  0.00     0.012 C 
ENDBRANCH   3   4
BRANCH   3   7
HETATM    7  C   UNL     1      41.571 -13.215   0.744  1.00  0.00     0.168 A 
HETATM    8  N   UNL     1      41.655 -13.402  -0.619  1.00  0.00    -0.257 N 
HETATM    9  N   UNL     1      42.443 -12.453  -1.149  1.00  0.00    -0.003 NA
HETATM   10  N   UNL     1      42.810 -11.684  -0.140  1.00  0.00     0.018 NA
HETATM   11  N   UNL     1      42.278 -12.140   1.031  1.00  0.00    -0.145 NA
BRANCH   8  12
HETATM   12  C   UNL     1      41.046 -14.381  -1.504  1.00  0.00     0.186 C 
BRANCH  12  13
HETATM   13  C   UNL     1      39.764 -13.888  -2.129  1.00  0.00    -0.039 A 
HETATM   14  C   UNL     1      39.071 -14.706  -3.037  1.00  0.00     0.009 A 
HETATM   15  C   UNL     1      37.861 -14.286  -3.588  1.00  0.00     0.001 A 
HETATM   16  C   UNL     1      37.322 -13.052  -3.230  1.00  0.00     0.000 A 
HETATM   17  C   UNL     1      37.989 -12.240  -2.316  1.00  0.00     0.001 A 
HETATM   18  C   UNL     1      39.200 -12.656  -1.761  1.00  0.00     0.009 A 
ENDBRANCH  12  13
ENDBRANCH   8  12
ENDBRANCH   3   7
ENDBRANCH   1   3
BRANCH   1  19
HETATM   19  C   UNL     1      43.044 -15.202   2.773  1.00  0.00     0.278 C 
BRANCH  19  20
HETATM   20  C   UNL     1      43.183 -16.687   2.650  1.00  0.00     0.021 A 
HETATM   21  C   UNL     1      43.123 -17.361   1.443  1.00  0.00     0.170 A 
HETATM   22  N   UNL     1      43.331 -18.673   1.249  1.00  0.00    -0.224 NA
HETATM   23  C   UNL     1      43.692 -19.413   2.309  1.00  0.00     0.072 A 
HETATM   24  C   UNL     1      43.831 -18.843   3.602  1.00  0.00    -0.004 A 
HETATM   25  C   UNL     1      43.970 -20.763   2.131  1.00  0.00     0.072 A 
HETATM   26  C   UNL     1      43.558 -17.472   3.748  1.00  0.00     0.027 A 
HETATM   27  C   UNL     1      44.259 -19.627   4.689  1.00  0.00     0.053 A 
HETATM   28  C   UNL     1      44.548 -20.951   4.454  1.00  0.00     0.106 A 
HETATM   29  C   UNL     1      44.401 -21.506   3.210  1.00  0.00     0.107 A 
HETATM   30  O   UNL     1      45.006 -21.844   5.371  1.00  0.00    -0.323 OA
HETATM   31  O   UNL     1      44.748 -22.820   3.184  1.00  0.00    -0.323 OA
HETATM   32  C   UNL     1      45.170 -23.020   4.550  1.00  0.00     0.352 A 
BRANCH  21  33
HETATM   33  O   UNL     1      42.881 -16.712   0.284  1.00  0.00    -0.344 OA
HETATM   34  H   UNL     1      43.798 -16.514   0.004  1.00  0.00     0.219 HD
ENDBRANCH  21  33
ENDBRANCH  19  20
ENDBRANCH   1  19
BRANCH   1  35
HETATM   35  C   UNL     1      41.632 -13.488   4.109  1.00  0.00     0.238 C 
BRANCH  35  36
HETATM   36  C   UNL     1      41.799 -14.157   5.474  1.00  0.00     0.054 C 
BRANCH  36  37
HETATM   37  C   UNL     1      40.807 -15.299   5.664  1.00  0.00     0.165 C 
BRANCH  37  38
HETATM   38  O   UNL     1      39.496 -14.824   5.415  1.00  0.00    -0.401 OA
HETATM   39  H   UNL     1      39.334 -14.897   4.454  1.00  0.00     0.209 HD
ENDBRANCH  37  38
ENDBRANCH  36  37
ENDBRANCH  35  36
ENDBRANCH   1  35
TORSDOF 12
ENDMDL
MODEL 4
REMARK VINA RESULT:      -7.0      2.460      7.671
REMARK  12 active torsions:
REMARK  status: ('A' for Active; 'I' for Inactive)
REMARK    1  A    between atoms: C_2  and  C_3 
REMARK    2  A    between atoms: C_3  and  N_4 
REMARK    3  A    between atoms: C_3  and  C_25 
REMARK    4  A    between atoms: N_4  and  C_6 
REMARK    5  A    between atoms: N_4  and  C_21 
REMARK    6  A    between atoms: C_6  and  C_7 
REMARK    7  A    between atoms: C_8  and  O_9 
REMARK    8  A    between atoms: C_21  and  C_22 
REMARK    9  A    between atoms: C_22  and  C_23 
REMARK   10  A    between atoms: C_23  and  O_24 
REMARK   11  A    between atoms: N_26  and  C_27 
REMARK   12  A    between atoms: C_27  and  C_28 
ROOT
HETATM    1  N   UNL     1      42.134 -13.151   5.204  1.00  0.00    -0.055 N 
HETATM    2  H   UNL     1      42.833 -12.622   4.671  1.00  0.00     0.281 HD
ENDROOT
BRANCH   1   3
HETATM    3  C   UNL     1      42.902 -14.481   5.444  1.00  0.00     0.263 C 
BRANCH   3   4
HETATM    4  C   UNL     1      43.807 -14.489   6.716  1.00  0.00     0.016 C 
HETATM    5  C   UNL     1      45.181 -13.866   6.413  1.00  0.00     0.012 C 
HETATM    6  C   UNL     1      44.030 -15.839   7.390  1.00  0.00     0.012 C 
ENDBRANCH   3   4
BRANCH   3   7
HETATM    7  C   UNL     1      42.067 -15.715   5.276  1.00  0.00     0.168 A 
HETATM    8  N   UNL     1      42.269 -16.741   4.380  1.00  0.00    -0.257 N 
HETATM    9  N   UNL     1      41.274 -17.635   4.497  1.00  0.00    -0.003 NA
HETATM   10  N   UNL     1      40.496 -17.183   5.463  1.00  0.00     0.018 NA
HETATM   11  N   UNL     1      40.973 -16.003   5.954  1.00  0.00    -0.145 NA
BRANCH   8  12
HETATM   12  C   UNL     1      43.328 -16.995   3.418  1.00  0.00     0.186 C 
BRANCH  12  13
HETATM   13  C   UNL     1      43.731 -18.448   3.360  1.00  0.00    -0.039 A 
HETATM   14  C   UNL     1      43.496 -19.191   2.191  1.00  0.00     0.009 A 
HETATM   15  C   UNL     1      43.905 -20.521   2.103  1.00  0.00     0.001 A 
HETATM   16  C   UNL     1      44.563 -21.121   3.174  1.00  0.00     0.000 A 
HETATM   17  C   UNL     1      44.819 -20.390   4.331  1.00  0.00     0.001 A 
HETATM   18  C   UNL     1      44.413 -19.058   4.424  1.00  0.00     0.009 A 
ENDBRANCH  12  13
ENDBRANCH   8  12
ENDBRANCH   3   7
ENDBRANCH   1   3
BRANCH   1  19
HETATM   19  C   UNL     1      40.961 -13.099   4.215  1.00  0.00     0.278 C 
BRANCH  19  20
HETATM   20  C   UNL     1      41.096 -13.428   2.761  1.00  0.00     0.021 A 
HETATM   21  C   UNL     1      40.475 -14.510   2.164  1.00  0.00     0.170 A 
HETATM   22  N   UNL     1      40.476 -14.812   0.856  1.00  0.00    -0.224 NA
HETATM   23  C   UNL     1      41.085 -13.958   0.018  1.00  0.00     0.072 A 
HETATM   24  C   UNL     1      41.729 -12.784   0.490  1.00  0.00    -0.004 A 
HETATM   25  C   UNL     1      41.056 -14.210  -1.349  1.00  0.00     0.072 A 
HETATM   26  C   UNL     1      41.729 -12.547   1.876  1.00  0.00     0.027 A 
HETATM   27  C   UNL     1      42.318 -11.877  -0.410  1.00  0.00     0.053 A 
HETATM   28  C   UNL     1      42.237 -12.159  -1.755  1.00  0.00     0.106 A 
HETATM   29  C   UNL     1      41.628 -13.299  -2.211  1.00  0.00     0.107 A 
HETATM   30  O   UNL     1      42.714 -11.385  -2.764  1.00  0.00    -0.323 OA
HETATM   31  O   UNL     1      41.643 -13.388  -3.567  1.00  0.00    -0.323 OA
HETATM   32  C   UNL     1      42.298 -12.149  -3.916  1.00  0.00     0.352 A 
BRANCH  21  33
HETATM   33  O   UNL     1      39.734 -15.383   2.881  1.00  0.00    -0.344 OA
HETATM   34  H   UNL     1      40.051 -16.228   2.501  1.00  0.00     0.219 HD
ENDBRANCH  21  33
ENDBRANCH  19  20
ENDBRANCH   1  19
BRANCH   1  35
HETATM   35  C   UNL     1      41.974 -12.312   6.467  1.00  0.00     0.238 C 
BRANCH  35  36
HETATM   36  C   UNL     1      40.748 -11.399   6.401  1.00  0.00     0.054 C 
BRANCH  36  37
HETATM   37  C   UNL     1      39.599 -11.941   7.244  1.00  0.00     0.165 C 
BRANCH  37  38
HETATM   38  O   UNL     1      39.630 -13.357   7.219  1.00  0.00    -0.401 OA
HETATM   39  H   UNL     1      39.993 -13.628   6.353  1.00  0.00     0.209 HD
ENDBRANCH  37  38
ENDBRANCH  36  37
ENDBRANCH  35  36
ENDBRANCH   1  35
TORSDOF 12
ENDMDL
MODEL 5
REMARK VINA RESULT:      -7.0      2.541      5.380
REMARK  12 active torsions:
REMARK  status: ('A' for Active; 'I' for Inactive)
REMARK    1  A    between atoms: C_2  and  C_3 
REMARK    2  A    between atoms: C_3  and  N_4 
REMARK    3  A    between atoms: C_3  and  C_25 
REMARK    4  A    between atoms: N_4  and  C_6 
REMARK    5  A    between atoms: N_4  and  C_21 
REMARK    6  A    between atoms: C_6  and  C_7 
REMARK    7  A    between atoms: C_8  and  O_9 
REMARK    8  A    between atoms: C_21  and  C_22 
REMARK    9  A    between atoms: C_22  and  C_23 
REMARK   10  A    between atoms: C_23  and  O_24 
REMARK   11  A    between atoms: N_26  and  C_27 
REMARK   12  A    between atoms: C_27  and  C_28 
ROOT
HETATM    1  N   UNL     1      41.596 -14.256   3.047  1.00  0.00    -0.055 N 
HETATM    2  H   UNL     1      41.057 -15.098   3.278  1.00  0.00     0.281 HD
ENDROOT
BRANCH   1   3
HETATM    3  C   UNL     1      41.867 -14.494   1.535  1.00  0.00     0.263 C 
BRANCH   3   4
HETATM    4  C   UNL     1      41.250 -15.808   0.963  1.00  0.00     0.016 C 
HETATM    5  C   UNL     1      40.310 -16.463   1.990  1.00  0.00     0.012 C 
HETATM    6  C   UNL     1      42.230 -16.867   0.466  1.00  0.00     0.012 C 
ENDBRANCH   3   4
BRANCH   3   7
HETATM    7  C   UNL     1      41.651 -13.287   0.672  1.00  0.00     0.168 A 
HETATM    8  N   UNL     1      40.556 -13.013  -0.118  1.00  0.00    -0.257 N 
HETATM    9  N   UNL     1      40.764 -11.865  -0.782  1.00  0.00    -0.003 NA
HETATM   10  N   UNL     1      41.946 -11.429  -0.387  1.00  0.00     0.018 NA
HETATM   11  N   UNL     1      42.503 -12.293   0.510  1.00  0.00    -0.145 NA
BRANCH   8  12
HETATM   12  C   UNL     1      39.296 -13.712  -0.306  1.00  0.00     0.186 C 
BRANCH  12  13
HETATM   13  C   UNL     1      39.183 -14.361  -1.663  1.00  0.00    -0.039 A 
HETATM   14  C   UNL     1      40.263 -15.097  -2.177  1.00  0.00     0.009 A 
HETATM   15  C   UNL     1      40.159 -15.743  -3.408  1.00  0.00     0.001 A 
HETATM   16  C   UNL     1      38.973 -15.672  -4.135  1.00  0.00     0.000 A 
HETATM   17  C   UNL     1      37.887 -14.962  -3.628  1.00  0.00     0.001 A 
HETATM   18  C   UNL     1      37.986 -14.314  -2.396  1.00  0.00     0.009 A 
ENDBRANCH  12  13
ENDBRANCH   8  12
ENDBRANCH   3   7
ENDBRANCH   1   3
BRANCH   1  19
HETATM   19  C   UNL     1      42.732 -14.387   4.071  1.00  0.00     0.278 C 
BRANCH  19  20
HETATM   20  C   UNL     1      43.174 -15.697   4.646  1.00  0.00     0.021 A 
HETATM   21  C   UNL     1      43.060 -16.018   5.986  1.00  0.00     0.170 A 
HETATM   22  N   UNL     1      43.348 -17.200   6.553  1.00  0.00    -0.224 NA
HETATM   23  C   UNL     1      43.730 -18.203   5.747  1.00  0.00     0.072 A 
HETATM   24  C   UNL     1      43.850 -18.026   4.343  1.00  0.00    -0.004 A 
HETATM   25  C   UNL     1      43.981 -19.456   6.294  1.00  0.00     0.072 A 
HETATM   26  C   UNL     1      43.575 -16.751   3.817  1.00  0.00     0.027 A 
HETATM   27  C   UNL     1      44.204 -19.104   3.511  1.00  0.00     0.053 A 
HETATM   28  C   UNL     1      44.415 -20.330   4.099  1.00  0.00     0.106 A 
HETATM   29  C   UNL     1      44.312 -20.500   5.455  1.00  0.00     0.107 A 
HETATM   30  O   UNL     1      44.726 -21.483   3.453  1.00  0.00    -0.323 OA
HETATM   31  O   UNL     1      44.546 -21.783   5.836  1.00  0.00    -0.323 OA
HETATM   32  C   UNL     1      44.768 -22.414   4.557  1.00  0.00     0.352 A 
BRANCH  21  33
HETATM   33  O   UNL     1      42.579 -15.132   6.886  1.00  0.00    -0.344 OA
HETATM   34  H   UNL     1      42.157 -14.487   6.282  1.00  0.00     0.219 HD
ENDBRANCH  21  33
ENDBRANCH  19  20
ENDBRANCH   1  19
BRANCH   1  35
HETATM   35  C   UNL     1      40.593 -13.137   3.309  1.00  0.00     0.238 C 
BRANCH  35  36
HETATM   36  C   UNL     1      40.530 -12.755   4.789  1.00  0.00     0.054 C 
BRANCH  36  37
HETATM   37  C   UNL     1      39.521 -13.611   5.545  1.00  0.00     0.165 C 
BRANCH  37  38
HETATM   38  O   UNL     1      39.908 -13.696   6.905  1.00  0.00    -0.401 OA
HETATM   39  H   UNL     1      39.902 -12.790   7.270  1.00  0.00     0.209 HD
ENDBRANCH  37  38
ENDBRANCH  36  37
ENDBRANCH  35  36
ENDBRANCH   1  35
TORSDOF 12
ENDMDL
MODEL 6
REMARK VINA RESULT:      -7.0      2.287      5.786
REMARK  12 active torsions:
REMARK  status: ('A' for Active; 'I' for Inactive)
REMARK    1  A    between atoms: C_2  and  C_3 
REMARK    2  A    between atoms: C_3  and  N_4 
REMARK    3  A    between atoms: C_3  and  C_25 
REMARK    4  A    between atoms: N_4  and  C_6 
REMARK    5  A    between atoms: N_4  and  C_21 
REMARK    6  A    between atoms: C_6  and  C_7 
REMARK    7  A    between atoms: C_8  and  O_9 
REMARK    8  A    between atoms: C_21  and  C_22 
REMARK    9  A    between atoms: C_22  and  C_23 
REMARK   10  A    between atoms: C_23  and  O_24 
REMARK   11  A    between atoms: N_26  and  C_27 
REMARK   12  A    between atoms: C_27  and  C_28 
ROOT
HETATM    1  N   UNL     1      42.542 -14.457   3.829  1.00  0.00    -0.055 N 
HETATM    2  H   UNL     1      42.095 -15.254   4.296  1.00  0.00     0.281 HD
ENDROOT
BRANCH   1   3
HETATM    3  C   UNL     1      41.299 -13.747   3.222  1.00  0.00     0.263 C 
BRANCH   3   4
HETATM    4  C   UNL     1      40.494 -12.870   4.231  1.00  0.00     0.016 C 
HETATM    5  C   UNL     1      39.753 -13.753   5.251  1.00  0.00     0.012 C 
HETATM    6  C   UNL     1      39.495 -11.883   3.635  1.00  0.00     0.012 C 
ENDBRANCH   3   4
BRANCH   3   7
HETATM    7  C   UNL     1      41.551 -13.088   1.899  1.00  0.00     0.168 A 
HETATM    8  N   UNL     1      40.943 -13.375   0.696  1.00  0.00    -0.257 N 
HETATM    9  N   UNL     1      41.480 -12.610  -0.267  1.00  0.00    -0.003 NA
HETATM   10  N   UNL     1      42.376 -11.849   0.335  1.00  0.00     0.018 NA
HETATM   11  N   UNL     1      42.429 -12.131   1.668  1.00  0.00    -0.145 NA
BRANCH   8  12
HETATM   12  C   UNL     1      39.872 -14.293   0.345  1.00  0.00     0.186 C 
BRANCH  12  13
HETATM   13  C   UNL     1      39.790 -14.558  -1.137  1.00  0.00    -0.039 A 
HETATM   14  C   UNL     1      40.686 -15.459  -1.736  1.00  0.00     0.009 A 
HETATM   15  C   UNL     1      40.594 -15.751  -3.097  1.00  0.00     0.001 A 
HETATM   16  C   UNL     1      39.600 -15.159  -3.872  1.00  0.00     0.000 A 
HETATM   17  C   UNL     1      38.693 -14.279  -3.287  1.00  0.00     0.001 A 
HETATM   18  C   UNL     1      38.780 -13.983  -1.926  1.00  0.00     0.009 A 
ENDBRANCH  12  13
ENDBRANCH   8  12
ENDBRANCH   3   7
ENDBRANCH   1   3
BRANCH   1  19
HETATM   19  C   UNL     1      43.528 -15.208   2.923  1.00  0.00     0.278 C 
BRANCH  19  20
HETATM   20  C   UNL     1      43.541 -16.698   2.779  1.00  0.00     0.021 A 
HETATM   21  C   UNL     1      43.366 -17.348   1.571  1.00  0.00     0.170 A 
HETATM   22  N   UNL     1      43.458 -18.670   1.354  1.00  0.00    -0.224 NA
HETATM   23  C   UNL     1      43.813 -19.450   2.386  1.00  0.00     0.072 A 
HETATM   24  C   UNL     1      44.064 -18.911   3.675  1.00  0.00    -0.004 A 
HETATM   25  C   UNL     1      43.973 -20.816   2.182  1.00  0.00     0.072 A 
HETATM   26  C   UNL     1      43.910 -17.524   3.848  1.00  0.00     0.027 A 
HETATM   27  C   UNL     1      44.484 -19.740   4.731  1.00  0.00     0.053 A 
HETATM   28  C   UNL     1      44.654 -21.081   4.470  1.00  0.00     0.106 A 
HETATM   29  C   UNL     1      44.399 -21.605   3.230  1.00  0.00     0.107 A 
HETATM   30  O   UNL     1      45.086 -22.019   5.352  1.00  0.00    -0.323 OA
HETATM   31  O   UNL     1      44.637 -22.942   3.173  1.00  0.00    -0.323 OA
HETATM   32  C   UNL     1      45.113 -23.194   4.513  1.00  0.00     0.352 A 
BRANCH  21  33
HETATM   33  O   UNL     1      43.116 -16.667   0.432  1.00  0.00    -0.344 OA
HETATM   34  H   UNL     1      42.772 -17.392  -0.129  1.00  0.00     0.219 HD
ENDBRANCH  21  33
ENDBRANCH  19  20
ENDBRANCH   1  19
BRANCH   1  35
HETATM   35  C   UNL     1      43.162 -13.692   4.993  1.00  0.00     0.238 C 
BRANCH  35  36
HETATM   36  C   UNL     1      43.343 -14.575   6.230  1.00  0.00     0.054 C 
BRANCH  36  37
HETATM   37  C   UNL     1      44.631 -14.240   6.974  1.00  0.00     0.165 C 
BRANCH  37  38
HETATM   38  O   UNL     1      44.340 -14.047   8.346  1.00  0.00    -0.401 OA
HETATM   39  H   UNL     1      45.018 -14.526   8.861  1.00  0.00     0.209 HD
ENDBRANCH  37  38
ENDBRANCH  36  37
ENDBRANCH  35  36
ENDBRANCH   1  35
TORSDOF 12
ENDMDL
MODEL 7
REMARK VINA RESULT:      -6.9      2.746      5.468
REMARK  12 active torsions:
REMARK  status: ('A' for Active; 'I' for Inactive)
REMARK    1  A    between atoms: C_2  and  C_3 
REMARK    2  A    between atoms: C_3  and  N_4 
REMARK    3  A    between atoms: C_3  and  C_25 
REMARK    4  A    between atoms: N_4  and  C_6 
REMARK    5  A    between atoms: N_4  and  C_21 
REMARK    6  A    between atoms: C_6  and  C_7 
REMARK    7  A    between atoms: C_8  and  O_9 
REMARK    8  A    between atoms: C_21  and  C_22 
REMARK    9  A    between atoms: C_22  and  C_23 
REMARK   10  A    between atoms: C_23  and  O_24 
REMARK   11  A    between atoms: N_26  and  C_27 
REMARK   12  A    between atoms: C_27  and  C_28 
ROOT
HETATM    1  N   UNL     1      41.177 -13.960   3.104  1.00  0.00    -0.055 N 
HETATM    2  H   UNL     1      40.792 -14.841   3.462  1.00  0.00     0.281 HD
ENDROOT
BRANCH   1   3
HETATM    3  C   UNL     1      40.467 -13.878   1.723  1.00  0.00     0.263 C 
BRANCH   3   4
HETATM    4  C   UNL     1      38.994 -13.367   1.778  1.00  0.00     0.016 C 
HETATM    5  C   UNL     1      38.023 -14.443   1.263  1.00  0.00     0.012 C 
HETATM    6  C   UNL     1      38.694 -12.060   1.049  1.00  0.00     0.012 C 
ENDBRANCH   3   4
BRANCH   3   7
HETATM    7  C   UNL     1      41.295 -13.253   0.641  1.00  0.00     0.168 A 
HETATM    8  N   UNL     1      41.685 -13.830  -0.548  1.00  0.00    -0.257 N 
HETATM    9  N   UNL     1      42.466 -12.972  -1.224  1.00  0.00    -0.003 NA
HETATM   10  N   UNL     1      42.530 -11.882  -0.480  1.00  0.00     0.018 NA
HETATM   11  N   UNL     1      41.812 -12.040   0.668  1.00  0.00    -0.145 NA
BRANCH   8  12
HETATM   12  C   UNL     1      41.381 -15.119  -1.146  1.00  0.00     0.186 C 
BRANCH  12  13
HETATM   13  C   UNL     1      40.257 -15.049  -2.149  1.00  0.00    -0.039 A 
HETATM   14  C   UNL     1      40.199 -15.982  -3.198  1.00  0.00     0.009 A 
HETATM   15  C   UNL     1      39.141 -15.961  -4.107  1.00  0.00     0.001 A 
HETATM   16  C   UNL     1      38.124 -15.019  -3.972  1.00  0.00     0.000 A 
HETATM   17  C   UNL     1      38.159 -14.102  -2.925  1.00  0.00     0.001 A 
HETATM   18  C   UNL     1      39.215 -14.118  -2.013  1.00  0.00     0.009 A 
ENDBRANCH  12  13
ENDBRANCH   8  12
ENDBRANCH   3   7
ENDBRANCH   1   3
BRANCH   1  19
HETATM   19  C   UNL     1      42.676 -14.279   3.190  1.00  0.00     0.278 C 
BRANCH  19  20
HETATM   20  C   UNL     1      43.211 -15.615   3.601  1.00  0.00     0.021 A 
HETATM   21  C   UNL     1      43.411 -15.983   4.918  1.00  0.00     0.170 A 
HETATM   22  N   UNL     1      43.798 -17.190   5.362  1.00  0.00    -0.224 NA
HETATM   23  C   UNL     1      43.953 -18.169   4.456  1.00  0.00     0.072 A 
HETATM   24  C   UNL     1      43.740 -17.942   3.071  1.00  0.00    -0.004 A 
HETATM   25  C   UNL     1      44.297 -19.444   4.887  1.00  0.00     0.072 A 
HETATM   26  C   UNL     1      43.378 -16.645   2.666  1.00  0.00     0.027 A 
HETATM   27  C   UNL     1      43.860 -18.994   2.144  1.00  0.00     0.053 A 
HETATM   28  C   UNL     1      44.176 -20.243   2.626  1.00  0.00     0.106 A 
HETATM   29  C   UNL     1      44.395 -20.462   3.961  1.00  0.00     0.107 A 
HETATM   30  O   UNL     1      44.297 -21.377   1.887  1.00  0.00    -0.323 OA
HETATM   31  O   UNL     1      44.682 -21.762   4.234  1.00  0.00    -0.323 OA
HETATM   32  C   UNL     1      44.578 -22.348   2.919  1.00  0.00     0.352 A 
BRANCH  21  33
HETATM   33  O   UNL     1      43.179 -15.124   5.935  1.00  0.00    -0.344 OA
HETATM   34  H   UNL     1      43.635 -14.327   5.592  1.00  0.00     0.219 HD
ENDBRANCH  21  33
ENDBRANCH  19  20
ENDBRANCH   1  19
BRANCH   1  35
HETATM   35  C   UNL     1      40.658 -12.937   4.108  1.00  0.00     0.238 C 
BRANCH  35  36
HETATM   36  C   UNL     1      39.915 -13.597   5.271  1.00  0.00     0.054 C 
BRANCH  36  37
HETATM   37  C   UNL     1      39.333 -12.560   6.225  1.00  0.00     0.165 C 
BRANCH  37  38
HETATM   38  O   UNL     1      39.284 -13.105   7.532  1.00  0.00    -0.401 OA
HETATM   39  H   UNL     1      39.000 -12.392   8.137  1.00  0.00     0.209 HD
ENDBRANCH  37  38
ENDBRANCH  36  37
ENDBRANCH  35  36
ENDBRANCH   1  35
TORSDOF 12
ENDMDL
MODEL 8
REMARK VINA RESULT:      -6.9      1.836      4.568
REMARK  12 active torsions:
REMARK  status: ('A' for Active; 'I' for Inactive)
REMARK    1  A    between atoms: C_2  and  C_3 
REMARK    2  A    between atoms: C_3  and  N_4 
REMARK    3  A    between atoms: C_3  and  C_25 
REMARK    4  A    between atoms: N_4  and  C_6 
REMARK    5  A    between atoms: N_4  and  C_21 
REMARK    6  A    between atoms: C_6  and  C_7 
REMARK    7  A    between atoms: C_8  and  O_9 
REMARK    8  A    between atoms: C_21  and  C_22 
REMARK    9  A    between atoms: C_22  and  C_23 
REMARK   10  A    between atoms: C_23  and  O_24 
REMARK   11  A    between atoms: N_26  and  C_27 
REMARK   12  A    between atoms: C_27  and  C_28 
ROOT
HETATM    1  N   UNL     1      40.688 -14.166   0.504  1.00  0.00    -0.055 N 
HETATM    2  H   UNL     1      40.058 -14.081   1.310  1.00  0.00     0.281 HD
ENDROOT
BRANCH   1   3
HETATM    3  C   UNL     1      39.804 -13.548  -0.616  1.00  0.00     0.263 C 
BRANCH   3   4
HETATM    4  C   UNL     1      39.685 -11.993  -0.567  1.00  0.00     0.016 C 
HETATM    5  C   UNL     1      38.737 -11.553   0.562  1.00  0.00     0.012 C 
HETATM    6  C   UNL     1      39.252 -11.297  -1.855  1.00  0.00     0.012 C 
ENDBRANCH   3   4
BRANCH   3   7
HETATM    7  C   UNL     1      40.068 -14.102  -1.985  1.00  0.00     0.168 A 
HETATM    8  N   UNL     1      41.231 -13.995  -2.716  1.00  0.00    -0.257 N 
HETATM    9  N   UNL     1      41.054 -14.571  -3.916  1.00  0.00    -0.003 NA
HETATM   10  N   UNL     1      39.822 -15.046  -3.910  1.00  0.00     0.018 NA
HETATM   11  N   UNL     1      39.204 -14.767  -2.727  1.00  0.00    -0.145 NA
BRANCH   8  12
HETATM   12  C   UNL     1      42.527 -13.419  -2.400  1.00  0.00     0.186 C 
BRANCH  12  13
HETATM   13  C   UNL     1      42.621 -11.957  -2.755  1.00  0.00    -0.039 A 
HETATM   14  C   UNL     1      42.266 -11.527  -4.044  1.00  0.00     0.009 A 
HETATM   15  C   UNL     1      42.302 -10.172  -4.376  1.00  0.00     0.001 A 
HETATM   16  C   UNL     1      42.680  -9.231  -3.421  1.00  0.00     0.000 A 
HETATM   17  C   UNL     1      43.016  -9.641  -2.133  1.00  0.00     0.001 A 
HETATM   18  C   UNL     1      42.981 -10.995  -1.797  1.00  0.00     0.009 A 
ENDBRANCH  12  13
ENDBRANCH   8  12
ENDBRANCH   3   7
ENDBRANCH   1   3
BRANCH   1  19
HETATM   19  C   UNL     1      40.952 -15.677   0.541  1.00  0.00     0.278 C 
BRANCH  19  20
HETATM   20  C   UNL     1      41.517 -16.386   1.732  1.00  0.00     0.021 A 
HETATM   21  C   UNL     1      40.976 -16.294   3.001  1.00  0.00     0.170 A 
HETATM   22  N   UNL     1      41.372 -16.970   4.091  1.00  0.00    -0.224 NA
HETATM   23  C   UNL     1      42.351 -17.876   3.942  1.00  0.00     0.072 A 
HETATM   24  C   UNL     1      42.970 -18.104   2.685  1.00  0.00    -0.004 A 
HETATM   25  C   UNL     1      42.746 -18.635   5.038  1.00  0.00     0.072 A 
HETATM   26  C   UNL     1      42.539 -17.333   1.591  1.00  0.00     0.027 A 
HETATM   27  C   UNL     1      43.960 -19.094   2.541  1.00  0.00     0.053 A 
HETATM   28  C   UNL     1      44.296 -19.835   3.651  1.00  0.00     0.106 A 
HETATM   29  C   UNL     1      43.709 -19.608   4.868  1.00  0.00     0.107 A 
HETATM   30  O   UNL     1      45.198 -20.850   3.690  1.00  0.00    -0.323 OA
HETATM   31  O   UNL     1      44.167 -20.450   5.831  1.00  0.00    -0.323 OA
HETATM   32  C   UNL     1      45.083 -21.265   5.069  1.00  0.00     0.352 A 
BRANCH  21  33
HETATM   33  O   UNL     1      39.911 -15.503   3.259  1.00  0.00    -0.344 OA
HETATM   34  H   UNL     1      39.891 -15.557   4.237  1.00  0.00     0.219 HD
ENDBRANCH  21  33
ENDBRANCH  19  20
ENDBRANCH   1  19
BRANCH   1  35
HETATM   35  C   UNL     1      41.860 -13.277   0.903  1.00  0.00     0.238 C 
BRANCH  35  36
HETATM   36  C   UNL     1      41.722 -12.749   2.333  1.00  0.00     0.054 C 
BRANCH  36  37
HETATM   37  C   UNL     1      42.824 -13.286   3.238  1.00  0.00     0.165 C 
BRANCH  37  38
HETATM   38  O   UNL     1      42.248 -13.766   4.440  1.00  0.00    -0.401 OA
HETATM   39  H   UNL     1      41.697 -13.049   4.808  1.00  0.00     0.209 HD
ENDBRANCH  37  38
ENDBRANCH  36  37
ENDBRANCH  35  36
ENDBRANCH   1  35
TORSDOF 12
ENDMDL
MODEL 9
REMARK VINA RESULT:      -6.7      2.428      4.886
REMARK  12 active torsions:
REMARK  status: ('A' for Active; 'I' for Inactive)
REMARK    1  A    between atoms: C_2  and  C_3 
REMARK    2  A    between atoms: C_3  and  N_4 
REMARK    3  A    between atoms: C_3  and  C_25 
REMARK    4  A    between atoms: N_4  and  C_6 
REMARK    5  A    between atoms: N_4  and  C_21 
REMARK    6  A    between atoms: C_6  and  C_7 
REMARK    7  A    between atoms: C_8  and  O_9 
REMARK    8  A    between atoms: C_21  and  C_22 
REMARK    9  A    between atoms: C_22  and  C_23 
REMARK   10  A    between atoms: C_23  and  O_24 
REMARK   11  A    between atoms: N_26  and  C_27 
REMARK   12  A    between atoms: C_27  and  C_28 
ROOT
HETATM    1  N   UNL     1      41.368 -13.956   3.072  1.00  0.00    -0.055 N 
HETATM    2  H   UNL     1      40.949 -14.847   3.360  1.00  0.00     0.281 HD
ENDROOT
BRANCH   1   3
HETATM    3  C   UNL     1      40.727 -13.780   1.667  1.00  0.00     0.263 C 
BRANCH   3   4
HETATM    4  C   UNL     1      40.312 -15.112   0.969  1.00  0.00     0.016 C 
HETATM    5  C   UNL     1      39.987 -16.196   2.011  1.00  0.00     0.012 C 
HETATM    6  C   UNL     1      41.299 -15.695  -0.038  1.00  0.00     0.012 C 
ENDBRANCH   3   4
BRANCH   3   7
HETATM    7  C   UNL     1      39.690 -12.698   1.593  1.00  0.00     0.168 A 
HETATM    8  N   UNL     1      39.805 -11.476   0.967  1.00  0.00    -0.257 N 
HETATM    9  N   UNL     1      38.686 -10.764   1.175  1.00  0.00    -0.003 NA
HETATM   10  N   UNL     1      37.891 -11.543   1.886  1.00  0.00     0.018 NA
HETATM   11  N   UNL     1      38.495 -12.737   2.149  1.00  0.00    -0.145 NA
BRANCH   8  12
HETATM   12  C   UNL     1      40.863 -10.895   0.158  1.00  0.00     0.186 C 
BRANCH  12  13
HETATM   13  C   UNL     1      41.171 -11.708  -1.074  1.00  0.00    -0.039 A 
HETATM   14  C   UNL     1      40.138 -12.046  -1.964  1.00  0.00     0.009 A 
HETATM   15  C   UNL     1      40.413 -12.756  -3.133  1.00  0.00     0.001 A 
HETATM   16  C   UNL     1      41.722 -13.127  -3.432  1.00  0.00     0.000 A 
HETATM   17  C   UNL     1      42.758 -12.781  -2.569  1.00  0.00     0.001 A 
HETATM   18  C   UNL     1      42.489 -12.070  -1.398  1.00  0.00     0.009 A 
ENDBRANCH  12  13
ENDBRANCH   8  12
ENDBRANCH   3   7
ENDBRANCH   1   3
BRANCH   1  19
HETATM   19  C   UNL     1      42.855 -14.313   3.209  1.00  0.00     0.278 C 
BRANCH  19  20
HETATM   20  C   UNL     1      43.340 -15.654   3.664  1.00  0.00     0.021 A 
HETATM   21  C   UNL     1      43.455 -16.013   4.994  1.00  0.00     0.170 A 
HETATM   22  N   UNL     1      43.793 -17.221   5.471  1.00  0.00    -0.224 NA
HETATM   23  C   UNL     1      43.985 -18.211   4.585  1.00  0.00     0.072 A 
HETATM   24  C   UNL     1      43.859 -17.995   3.188  1.00  0.00    -0.004 A 
HETATM   25  C   UNL     1      44.280 -19.488   5.048  1.00  0.00     0.072 A 
HETATM   26  C   UNL     1      43.545 -16.696   2.750  1.00  0.00     0.027 A 
HETATM   27  C   UNL     1      44.015 -19.058   2.280  1.00  0.00     0.053 A 
HETATM   28  C   UNL     1      44.279 -20.308   2.791  1.00  0.00     0.106 A 
HETATM   29  C   UNL     1      44.414 -20.517   4.138  1.00  0.00     0.107 A 
HETATM   30  O   UNL     1      44.424 -21.451   2.071  1.00  0.00    -0.323 OA
HETATM   31  O   UNL     1      44.662 -21.818   4.440  1.00  0.00    -0.323 OA
HETATM   32  C   UNL     1      44.626 -22.416   3.126  1.00  0.00     0.352 A 
BRANCH  21  33
HETATM   33  O   UNL     1      43.178 -15.139   5.987  1.00  0.00    -0.344 OA
HETATM   34  H   UNL     1      42.625 -14.495   5.498  1.00  0.00     0.219 HD
ENDBRANCH  21  33
ENDBRANCH  19  20
ENDBRANCH   1  19
BRANCH   1  35
HETATM   35  C   UNL     1      40.822 -12.980   4.108  1.00  0.00     0.238 C 
BRANCH  35  36
HETATM   36  C   UNL     1      40.002 -13.687   5.189  1.00  0.00     0.054 C 
BRANCH  36  37
HETATM   37  C   UNL     1      39.106 -12.711   5.941  1.00  0.00     0.165 C 
BRANCH  37  38
HETATM   38  O   UNL     1      38.372 -11.938   5.008  1.00  0.00    -0.401 OA
HETATM   39  H   UNL     1      38.746 -11.035   5.014  1.00  0.00     0.209 HD
ENDBRANCH  37  38
ENDBRANCH  36  37
ENDBRANCH  35  36
ENDBRANCH   1  35
TORSDOF 12
ENDMDL
MODEL 10
REMARK VINA RESULT:      -6.7      2.865      7.603
REMARK  12 active torsions:
REMARK  status: ('A' for Active; 'I' for Inactive)
REMARK    1  A    between atoms: C_2  and  C_3 
REMARK    2  A    between atoms: C_3  and  N_4 
REMARK    3  A    between atoms: C_3  and  C_25 
REMARK    4  A    between atoms: N_4  and  C_6 
REMARK    5  A    between atoms: N_4  and  C_21 
REMARK    6  A    between atoms: C_6  and  C_7 
REMARK    7  A    between atoms: C_8  and  O_9 
REMARK    8  A    between atoms: C_21  and  C_22 
REMARK    9  A    between atoms: C_22  and  C_23 
REMARK   10  A    between atoms: C_23  and  O_24 
REMARK   11  A    between atoms: N_26  and  C_27 
REMARK   12  A    between atoms: C_27  and  C_28 
ROOT
HETATM    1  N   UNL     1      42.948 -14.372   4.540  1.00  0.00    -0.055 N 
HETATM    2  H   UNL     1      43.763 -14.078   5.090  1.00  0.00     0.281 HD
ENDROOT
BRANCH   1   3
HETATM    3  C   UNL     1      43.090 -15.918   4.624  1.00  0.00     0.263 C 
BRANCH   3   4
HETATM    4  C   UNL     1      43.075 -16.495   6.073  1.00  0.00     0.016 C 
HETATM    5  C   UNL     1      44.468 -16.387   6.718  1.00  0.00     0.012 C 
HETATM    6  C   UNL     1      42.582 -17.930   6.235  1.00  0.00     0.012 C 
ENDBRANCH   3   4
BRANCH   3   7
HETATM    7  C   UNL     1      42.227 -16.669   3.654  1.00  0.00     0.168 A 
HETATM    8  N   UNL     1      42.642 -17.555   2.684  1.00  0.00    -0.257 N 
HETATM    9  N   UNL     1      41.577 -17.974   1.981  1.00  0.00    -0.003 NA
HETATM   10  N   UNL     1      40.530 -17.381   2.525  1.00  0.00     0.018 NA
HETATM   11  N   UNL     1      40.915 -16.577   3.558  1.00  0.00    -0.145 NA
BRANCH   8  12
HETATM   12  C   UNL     1      43.953 -18.084   2.349  1.00  0.00     0.186 C 
BRANCH  12  13
HETATM   13  C   UNL     1      44.109 -19.540   2.712  1.00  0.00    -0.039 A 
HETATM   14  C   UNL     1      43.807 -20.531   1.764  1.00  0.00     0.009 A 
HETATM   15  C   UNL     1      43.990 -21.881   2.067  1.00  0.00     0.001 A 
HETATM   16  C   UNL     1      44.487 -22.255   3.313  1.00  0.00     0.000 A 
HETATM   17  C   UNL     1      44.809 -21.280   4.255  1.00  0.00     0.001 A 
HETATM   18  C   UNL     1      44.628 -19.929   3.957  1.00  0.00     0.009 A 
ENDBRANCH  12  13
ENDBRANCH   8  12
ENDBRANCH   3   7
ENDBRANCH   1   3
BRANCH   1  19
HETATM   19  C   UNL     1      43.244 -13.634   3.227  1.00  0.00     0.278 C 
BRANCH  19  20
HETATM   20  C   UNL     1      42.253 -13.511   2.112  1.00  0.00     0.021 A 
HETATM   21  C   UNL     1      41.547 -12.352   1.845  1.00  0.00     0.170 A 
HETATM   22  N   UNL     1      40.716 -12.142   0.811  1.00  0.00    -0.224 NA
HETATM   23  C   UNL     1      40.591 -13.121  -0.099  1.00  0.00     0.072 A 
HETATM   24  C   UNL     1      41.290 -14.350   0.028  1.00  0.00    -0.004 A 
HETATM   25  C   UNL     1      39.783 -12.914  -1.211  1.00  0.00     0.072 A 
HETATM   26  C   UNL     1      42.111 -14.525   1.156  1.00  0.00     0.027 A 
HETATM   27  C   UNL     1      41.182 -15.343  -0.963  1.00  0.00     0.053 A 
HETATM   28  C   UNL     1      40.392 -15.078  -2.057  1.00  0.00     0.106 A 
HETATM   29  C   UNL     1      39.706 -13.897  -2.176  1.00  0.00     0.107 A 
HETATM   30  O   UNL     1      40.200 -15.899  -3.123  1.00  0.00    -0.323 OA
HETATM   31  O   UNL     1      38.993 -13.824  -3.331  1.00  0.00    -0.323 OA
HETATM   32  C   UNL     1      39.343 -15.081  -3.949  1.00  0.00     0.352 A 
BRANCH  21  33
HETATM   33  O   UNL     1      41.673 -11.253   2.620  1.00  0.00    -0.344 OA
HETATM   34  H   UNL     1      41.872 -10.582   1.935  1.00  0.00     0.219 HD
ENDBRANCH  21  33
ENDBRANCH  19  20
ENDBRANCH   1  19
BRANCH   1  35
HETATM   35  C   UNL     1      41.781 -13.830   5.358  1.00  0.00     0.238 C 
BRANCH  35  36
HETATM   36  C   UNL     1      42.145 -12.541   6.096  1.00  0.00     0.054 C 
BRANCH  36  37
HETATM   37  C   UNL     1      40.990 -11.546   6.089  1.00  0.00     0.165 C 
BRANCH  37  38
HETATM   38  O   UNL     1      41.384 -10.380   5.388  1.00  0.00    -0.401 OA
HETATM   39  H   UNL     1      41.254  -9.618   5.987  1.00  0.00     0.209 HD
ENDBRANCH  37  38
ENDBRANCH  36  37
ENDBRANCH  35  36
ENDBRANCH   1  35
TORSDOF 12
ENDMDL
