MODEL 1
REMARK VINA RESULT:     -10.3      0.000      0.000
REMARK  7 active torsions:
REMARK  status: ('A' for Active; 'I' for Inactive)
REMARK    1  A    between atoms: C_5  and  C_6 
REMARK    2  A    between atoms: C_10  and  C_11 
REMARK       I    between atoms: C_11  and  N_12 
REMARK    3  A    between atoms: N_12  and  N_13 
REMARK       I    between atoms: N_13  and  C_14 
REMARK       I    between atoms: C_14  and  N_15 
REMARK    4  A    between atoms: N_15  and  C_16 
REMARK    5  A    between atoms: C_16  and  C_17 
REMARK    6  A    between atoms: C_17  and  C_18 
REMARK    7  A    between atoms: C_21  and  O_22 
ROOT
HETATM    1  C   UNL     1      45.088 -13.271   7.842  1.00  0.00     0.288 C 
HETATM    2  N   UNL     1      44.161 -14.278   7.685  1.00  0.00    -0.261 N 
HETATM    3  O   UNL     1      46.078 -13.179   7.118  1.00  0.00    -0.264 OA
HETATM    4  H   UNL     1      43.290 -14.339   8.204  1.00  0.00     0.190 HD
ENDROOT
BRANCH   2   5
HETATM    5  N   UNL     1      44.403 -15.294   6.748  1.00  0.00    -0.249 N 
HETATM    6  C   UNL     1      43.391 -15.569   5.852  1.00  0.00     0.335 C 
HETATM    7  N   UNL     1      43.742 -16.561   4.976  1.00  0.00    -0.337 N 
HETATM    8  O   UNL     1      42.301 -15.008   5.877  1.00  0.00    -0.246 OA
HETATM    9  H   UNL     1      44.517 -17.148   5.248  1.00  0.00     0.164 HD
HETATM   10  H   UNL     1      45.361 -15.340   6.408  1.00  0.00     0.192 HD
BRANCH   7  11
HETATM   11  C   UNL     1      42.832 -17.056   3.949  1.00  0.00     0.086 C 
HETATM   12  C   UNL     1      41.825 -18.046   4.542  1.00  0.00     0.032 C 
BRANCH  11  13
HETATM   13  C   UNL     1      43.601 -17.738   2.796  1.00  0.00     0.063 C 
BRANCH  13  14
HETATM   14  C   UNL     1      43.912 -19.209   2.971  1.00  0.00    -0.056 A 
HETATM   15  C   UNL     1      43.567 -20.113   1.951  1.00  0.00     0.010 A 
HETATM   16  C   UNL     1      43.858 -21.474   2.069  1.00  0.00     0.037 A 
HETATM   17  C   UNL     1      44.509 -21.935   3.206  1.00  0.00     0.065 A 
HETATM   18  C   UNL     1      44.875 -21.058   4.219  1.00  0.00     0.037 A 
HETATM   19  C   UNL     1      44.586 -19.697   4.098  1.00  0.00     0.010 A 
BRANCH  17  20
HETATM   20  O   UNL     1      44.813 -23.254   3.365  1.00  0.00    -0.361 OA
HETATM   21  H   UNL     1      44.173 -23.649   3.979  1.00  0.00     0.217 HD
ENDBRANCH  17  20
ENDBRANCH  13  14
ENDBRANCH  11  13
ENDBRANCH   7  11
ENDBRANCH   2   5
BRANCH   1  22
HETATM   22  C   UNL     1      44.832 -12.361   8.923  1.00  0.00     0.121 A 
HETATM   23  N   UNL     1      45.731 -11.396   9.280  1.00  0.00    -0.272 N 
HETATM   24  N   UNL     1      45.384 -10.696  10.369  1.00  0.00    -0.174 NA
HETATM   25  H   UNL     1      46.619 -11.196   8.831  1.00  0.00     0.189 HD
HETATM   26  C   UNL     1      44.192 -11.199  10.731  1.00  0.00     0.089 A 
HETATM   27  C   UNL     1      43.798 -12.227   9.829  1.00  0.00     0.071 A 
BRANCH  26  28
HETATM   28  C   UNL     1      43.488 -10.737  11.928  1.00  0.00    -0.006 A 
HETATM   29  C   UNL     1      42.343 -11.395  12.394  1.00  0.00     0.014 A 
HETATM   30  C   UNL     1      41.708 -10.977  13.570  1.00  0.00     0.007 A 
HETATM   31  C   UNL     1      42.204  -9.889  14.296  1.00  0.00    -0.062 A 
HETATM   32  C   UNL     1      41.558  -9.476  15.585  1.00  0.00     0.048 C 
HETATM   33  C   UNL     1      43.348  -9.229  13.834  1.00  0.00     0.007 A 
HETATM   34  C   UNL     1      43.978  -9.645  12.657  1.00  0.00     0.014 A 
ENDBRANCH  26  28
ENDBRANCH   1  22
TORSDOF 7
ENDMDL
MODEL 2
REMARK VINA RESULT:      -9.9      1.928      2.625
REMARK  7 active torsions:
REMARK  status: ('A' for Active; 'I' for Inactive)
REMARK    1  A    between atoms: C_5  and  C_6 
REMARK    2  A    between atoms: C_10  and  C_11 
REMARK       I    between atoms: C_11  and  N_12 
REMARK    3  A    between atoms: N_12  and  N_13 
REMARK       I    between atoms: N_13  and  C_14 
REMARK       I    between atoms: C_14  and  N_15 
REMARK    4  A    between atoms: N_15  and  C_16 
REMARK    5  A    between atoms: C_16  and  C_17 
REMARK    6  A    between atoms: C_17  and  C_18 
REMARK    7  A    between atoms: C_21  and  O_22 
ROOT
HETATM    1  C   UNL     1      45.156 -13.280   7.826  1.00  0.00     0.288 C 
HETATM    2  N   UNL     1      44.304 -14.355   7.708  1.00  0.00    -0.261 N 
HETATM    3  O   UNL     1      46.144 -13.149   7.104  1.00  0.00    -0.264 OA
HETATM    4  H   UNL     1      43.435 -14.456   8.224  1.00  0.00     0.190 HD
ENDROOT
BRANCH   2   5
HETATM    5  N   UNL     1      44.625 -15.392   6.818  1.00  0.00    -0.249 N 
HETATM    6  C   UNL     1      43.778 -16.480   6.797  1.00  0.00     0.335 C 
HETATM    7  N   UNL     1      44.176 -17.418   5.883  1.00  0.00    -0.337 N 
HETATM    8  O   UNL     1      42.811 -16.593   7.543  1.00  0.00    -0.246 OA
HETATM    9  H   UNL     1      45.134 -17.361   5.567  1.00  0.00     0.164 HD
HETATM   10  H   UNL     1      45.023 -15.085   5.933  1.00  0.00     0.192 HD
BRANCH   7  11
HETATM   11  C   UNL     1      43.463 -18.676   5.691  1.00  0.00     0.086 C 
HETATM   12  C   UNL     1      43.822 -19.680   6.791  1.00  0.00     0.032 C 
BRANCH  11  13
HETATM   13  C   UNL     1      43.775 -19.296   4.311  1.00  0.00     0.063 C 
BRANCH  13  14
HETATM   14  C   UNL     1      43.315 -18.511   3.100  1.00  0.00    -0.056 A 
HETATM   15  C   UNL     1      42.080 -17.841   3.141  1.00  0.00     0.010 A 
HETATM   16  C   UNL     1      41.634 -17.090   2.051  1.00  0.00     0.037 A 
HETATM   17  C   UNL     1      42.431 -16.995   0.917  1.00  0.00     0.065 A 
HETATM   18  C   UNL     1      43.664 -17.635   0.861  1.00  0.00     0.037 A 
HETATM   19  C   UNL     1      44.109 -18.383   1.952  1.00  0.00     0.010 A 
BRANCH  17  20
HETATM   20  O   UNL     1      42.038 -16.275  -0.170  1.00  0.00    -0.361 OA
HETATM   21  H   UNL     1      42.333 -16.735  -0.972  1.00  0.00     0.217 HD
ENDBRANCH  17  20
ENDBRANCH  13  14
ENDBRANCH  11  13
ENDBRANCH   7  11
ENDBRANCH   2   5
BRANCH   1  22
HETATM   22  C   UNL     1      44.827 -12.344   8.864  1.00  0.00     0.121 A 
HETATM   23  N   UNL     1      45.573 -11.220   9.084  1.00  0.00    -0.272 N 
HETATM   24  N   UNL     1      45.191 -10.505  10.151  1.00  0.00    -0.174 NA
HETATM   25  H   UNL     1      46.381 -10.912   8.551  1.00  0.00     0.189 HD
HETATM   26  C   UNL     1      44.130 -11.166  10.640  1.00  0.00     0.089 A 
HETATM   27  C   UNL     1      43.852 -12.311   9.841  1.00  0.00     0.071 A 
BRANCH  26  28
HETATM   28  C   UNL     1      43.444 -10.736  11.860  1.00  0.00    -0.006 A 
HETATM   29  C   UNL     1      42.304 -11.405  12.325  1.00  0.00     0.014 A 
HETATM   30  C   UNL     1      41.688 -11.017  13.521  1.00  0.00     0.007 A 
HETATM   31  C   UNL     1      42.196  -9.949  14.267  1.00  0.00    -0.062 A 
HETATM   32  C   UNL     1      41.569  -9.569  15.576  1.00  0.00     0.048 C 
HETATM   33  C   UNL     1      43.333  -9.278  13.806  1.00  0.00     0.007 A 
HETATM   34  C   UNL     1      43.945  -9.663  12.609  1.00  0.00     0.014 A 
ENDBRANCH  26  28
ENDBRANCH   1  22
TORSDOF 7
ENDMDL
MODEL 3
REMARK VINA RESULT:      -9.4      2.455     11.774
REMARK  7 active torsions:
REMARK  status: ('A' for Active; 'I' for Inactive)
REMARK    1  A    between atoms: C_5  and  C_6 
REMARK    2  A    between atoms: C_10  and  C_11 
REMARK       I    between atoms: C_11  and  N_12 
REMARK    3  A    between atoms: N_12  and  N_13 
REMARK       I    between atoms: N_13  and  C_14 
REMARK       I    between atoms: C_14  and  N_15 
REMARK    4  A    between atoms: N_15  and  C_16 
REMARK    5  A    between atoms: C_16  and  C_17 
REMARK    6  A    between atoms: C_17  and  C_18 
REMARK    7  A    between atoms: C_21  and  O_22 
ROOT
HETATM    1  C   UNL     1      42.156 -14.030   5.692  1.00  0.00     0.288 C 
HETATM    2  N   UNL     1      43.280 -13.571   6.341  1.00  0.00    -0.261 N 
HETATM    3  O   UNL     1      41.040 -13.561   5.912  1.00  0.00    -0.264 OA
HETATM    4  H   UNL     1      44.227 -13.871   6.127  1.00  0.00     0.190 HD
ENDROOT
BRANCH   2   5
HETATM    5  N   UNL     1      43.143 -12.618   7.362  1.00  0.00    -0.249 N 
HETATM    6  C   UNL     1      44.022 -12.709   8.421  1.00  0.00     0.335 C 
HETATM    7  N   UNL     1      43.809 -11.722   9.346  1.00  0.00    -0.337 N 
HETATM    8  O   UNL     1      44.861 -13.598   8.524  1.00  0.00    -0.246 OA
HETATM    9  H   UNL     1      42.913 -11.259   9.312  1.00  0.00     0.164 HD
HETATM   10  H   UNL     1      42.881 -11.688   7.044  1.00  0.00     0.192 HD
BRANCH   7  11
HETATM   11  C   UNL     1      44.590 -11.620  10.575  1.00  0.00     0.086 C 
HETATM   12  C   UNL     1      44.028 -12.547  11.657  1.00  0.00     0.032 C 
BRANCH  11  13
HETATM   13  C   UNL     1      44.615 -10.169  11.106  1.00  0.00     0.063 C 
BRANCH  13  14
HETATM   14  C   UNL     1      43.426  -9.734  11.936  1.00  0.00    -0.056 A 
HETATM   15  C   UNL     1      43.586  -9.536  13.318  1.00  0.00     0.010 A 
HETATM   16  C   UNL     1      42.516  -9.115  14.111  1.00  0.00     0.037 A 
HETATM   17  C   UNL     1      41.282  -8.876  13.520  1.00  0.00     0.065 A 
HETATM   18  C   UNL     1      41.105  -9.049  12.152  1.00  0.00     0.037 A 
HETATM   19  C   UNL     1      42.176  -9.467  11.361  1.00  0.00     0.010 A 
BRANCH  17  20
HETATM   20  O   UNL     1      40.210  -8.464  14.254  1.00  0.00    -0.361 OA
HETATM   21  H   UNL     1      40.433  -7.623  14.684  1.00  0.00     0.217 HD
ENDBRANCH  17  20
ENDBRANCH  13  14
ENDBRANCH  11  13
ENDBRANCH   7  11
ENDBRANCH   2   5
BRANCH   1  22
HETATM   22  C   UNL     1      42.374 -15.109   4.770  1.00  0.00     0.121 A 
HETATM   23  N   UNL     1      41.700 -15.190   3.584  1.00  0.00    -0.272 N 
HETATM   24  N   UNL     1      41.946 -16.307   2.886  1.00  0.00    -0.174 NA
HETATM   25  H   UNL     1      41.028 -14.521   3.219  1.00  0.00     0.189 HD
HETATM   26  C   UNL     1      42.843 -16.979   3.625  1.00  0.00     0.089 A 
HETATM   27  C   UNL     1      43.159 -16.245   4.803  1.00  0.00     0.071 A 
BRANCH  26  28
HETATM   28  C   UNL     1      43.336 -18.300   3.233  1.00  0.00    -0.006 A 
HETATM   29  C   UNL     1      44.225 -19.013   4.048  1.00  0.00     0.014 A 
HETATM   30  C   UNL     1      44.648 -20.298   3.687  1.00  0.00     0.007 A 
HETATM   31  C   UNL     1      44.195 -20.890   2.504  1.00  0.00    -0.062 A 
HETATM   32  C   UNL     1      44.604 -22.288   2.146  1.00  0.00     0.048 C 
HETATM   33  C   UNL     1      43.307 -20.181   1.687  1.00  0.00     0.007 A 
HETATM   34  C   UNL     1      42.889 -18.896   2.045  1.00  0.00     0.014 A 
ENDBRANCH  26  28
ENDBRANCH   1  22
TORSDOF 7
ENDMDL
MODEL 4
REMARK VINA RESULT:      -9.1      2.527     11.460
REMARK  7 active torsions:
REMARK  status: ('A' for Active; 'I' for Inactive)
REMARK    1  A    between atoms: C_5  and  C_6 
REMARK    2  A    between atoms: C_10  and  C_11 
REMARK       I    between atoms: C_11  and  N_12 
REMARK    3  A    between atoms: N_12  and  N_13 
REMARK       I    between atoms: N_13  and  C_14 
REMARK       I    between atoms: C_14  and  N_15 
REMARK    4  A    between atoms: N_15  and  C_16 
REMARK    5  A    between atoms: C_16  and  C_17 
REMARK    6  A    between atoms: C_17  and  C_18 
REMARK    7  A    between atoms: C_21  and  O_22 
ROOT
HETATM    1  C   UNL     1      43.520 -14.140   6.524  1.00  0.00     0.288 C 
HETATM    2  N   UNL     1      44.206 -13.728   7.644  1.00  0.00    -0.261 N 
HETATM    3  O   UNL     1      42.770 -13.386   5.905  1.00  0.00    -0.264 OA
HETATM    4  H   UNL     1      44.898 -14.291   8.131  1.00  0.00     0.190 HD
ENDROOT
BRANCH   2   5
HETATM    5  N   UNL     1      43.964 -12.448   8.166  1.00  0.00    -0.249 N 
HETATM    6  C   UNL     1      44.111 -12.293   9.528  1.00  0.00     0.335 C 
HETATM    7  N   UNL     1      43.868 -11.004   9.923  1.00  0.00    -0.337 N 
HETATM    8  O   UNL     1      44.389 -13.217  10.284  1.00  0.00    -0.246 OA
HETATM    9  H   UNL     1      43.352 -10.425   9.277  1.00  0.00     0.164 HD
HETATM   10  H   UNL     1      44.262 -11.680   7.567  1.00  0.00     0.192 HD
BRANCH   7  11
HETATM   11  C   UNL     1      43.929 -10.589  11.321  1.00  0.00     0.086 C 
HETATM   12  C   UNL     1      43.314 -11.655  12.234  1.00  0.00     0.032 C 
BRANCH  11  13
HETATM   13  C   UNL     1      43.201  -9.244  11.541  1.00  0.00     0.063 C 
BRANCH  13  14
HETATM   14  C   UNL     1      41.688  -9.289  11.538  1.00  0.00    -0.056 A 
HETATM   15  C   UNL     1      41.007  -9.503  10.328  1.00  0.00     0.010 A 
HETATM   16  C   UNL     1      39.612  -9.571  10.291  1.00  0.00     0.037 A 
HETATM   17  C   UNL     1      38.892  -9.438  11.472  1.00  0.00     0.065 A 
HETATM   18  C   UNL     1      39.545  -9.243  12.682  1.00  0.00     0.037 A 
HETATM   19  C   UNL     1      40.939  -9.178  12.718  1.00  0.00     0.010 A 
BRANCH  17  20
HETATM   20  O   UNL     1      37.531  -9.497  11.484  1.00  0.00    -0.361 OA
HETATM   21  H   UNL     1      37.187  -8.674  11.869  1.00  0.00     0.217 HD
ENDBRANCH  17  20
ENDBRANCH  13  14
ENDBRANCH  11  13
ENDBRANCH   7  11
ENDBRANCH   2   5
BRANCH   1  22
HETATM   22  C   UNL     1      43.719 -15.512   6.149  1.00  0.00     0.121 A 
HETATM   23  N   UNL     1      44.422 -16.380   6.938  1.00  0.00    -0.272 N 
HETATM   24  N   UNL     1      44.599 -17.593   6.398  1.00  0.00    -0.174 NA
HETATM   25  H   UNL     1      44.835 -16.180   7.844  1.00  0.00     0.189 HD
HETATM   26  C   UNL     1      43.962 -17.537   5.218  1.00  0.00     0.089 A 
HETATM   27  C   UNL     1      43.371 -16.255   5.038  1.00  0.00     0.071 A 
BRANCH  26  28
HETATM   28  C   UNL     1      43.967 -18.661   4.280  1.00  0.00    -0.006 A 
HETATM   29  C   UNL     1      43.235 -18.613   3.087  1.00  0.00     0.014 A 
HETATM   30  C   UNL     1      43.290 -19.673   2.174  1.00  0.00     0.007 A 
HETATM   31  C   UNL     1      44.072 -20.802   2.441  1.00  0.00    -0.062 A 
HETATM   32  C   UNL     1      44.175 -21.912   1.438  1.00  0.00     0.048 C 
HETATM   33  C   UNL     1      44.804 -20.854   3.632  1.00  0.00     0.007 A 
HETATM   34  C   UNL     1      44.745 -19.797   4.546  1.00  0.00     0.014 A 
ENDBRANCH  26  28
ENDBRANCH   1  22
TORSDOF 7
ENDMDL
MODEL 5
REMARK VINA RESULT:      -8.9      3.105      3.695
REMARK  7 active torsions:
REMARK  status: ('A' for Active; 'I' for Inactive)
REMARK    1  A    between atoms: C_5  and  C_6 
REMARK    2  A    between atoms: C_10  and  C_11 
REMARK       I    between atoms: C_11  and  N_12 
REMARK    3  A    between atoms: N_12  and  N_13 
REMARK       I    between atoms: N_13  and  C_14 
REMARK       I    between atoms: C_14  and  N_15 
REMARK    4  A    between atoms: N_15  and  C_16 
REMARK    5  A    between atoms: C_16  and  C_17 
REMARK    6  A    between atoms: C_17  and  C_18 
REMARK    7  A    between atoms: C_21  and  O_22 
ROOT
HETATM    1  C   UNL     1      39.806 -11.878   6.843  1.00  0.00     0.288 C 
HETATM    2  N   UNL     1      40.010 -13.233   6.706  1.00  0.00    -0.261 N 
HETATM    3  O   UNL     1      39.062 -11.252   6.089  1.00  0.00    -0.264 OA
HETATM    4  H   UNL     1      40.546 -13.799   7.357  1.00  0.00     0.190 HD
ENDROOT
BRANCH   2   5
HETATM    5  N   UNL     1      39.446 -13.905   5.611  1.00  0.00    -0.249 N 
HETATM    6  C   UNL     1      40.299 -14.249   4.584  1.00  0.00     0.335 C 
HETATM    7  N   UNL     1      39.647 -14.914   3.581  1.00  0.00    -0.337 N 
HETATM    8  O   UNL     1      41.489 -13.952   4.570  1.00  0.00    -0.246 OA
HETATM    9  H   UNL     1      38.641 -14.820   3.557  1.00  0.00     0.164 HD
HETATM   10  H   UNL     1      38.705 -14.561   5.850  1.00  0.00     0.192 HD
BRANCH   7  11
HETATM   11  C   UNL     1      40.324 -15.358   2.367  1.00  0.00     0.086 C 
HETATM   12  C   UNL     1      39.642 -14.785   1.120  1.00  0.00     0.032 C 
BRANCH  11  13
HETATM   13  C   UNL     1      40.353 -16.900   2.270  1.00  0.00     0.063 C 
BRANCH  13  14
HETATM   14  C   UNL     1      41.570 -17.589   2.850  1.00  0.00    -0.056 A 
HETATM   15  C   UNL     1      41.685 -17.728   4.244  1.00  0.00     0.010 A 
HETATM   16  C   UNL     1      42.784 -18.376   4.812  1.00  0.00     0.037 A 
HETATM   17  C   UNL     1      43.768 -18.901   3.985  1.00  0.00     0.065 A 
HETATM   18  C   UNL     1      43.667 -18.791   2.603  1.00  0.00     0.037 A 
HETATM   19  C   UNL     1      42.567 -18.145   2.037  1.00  0.00     0.010 A 
BRANCH  17  20
HETATM   20  O   UNL     1      44.858 -19.542   4.494  1.00  0.00    -0.361 OA
HETATM   21  H   UNL     1      44.680 -19.768   5.421  1.00  0.00     0.217 HD
ENDBRANCH  17  20
ENDBRANCH  13  14
ENDBRANCH  11  13
ENDBRANCH   7  11
ENDBRANCH   2   5
BRANCH   1  22
HETATM   22  C   UNL     1      40.541 -11.248   7.904  1.00  0.00     0.121 A 
HETATM   23  N   UNL     1      41.816 -10.790   7.723  1.00  0.00    -0.272 N 
HETATM   24  N   UNL     1      42.395 -10.320   8.837  1.00  0.00    -0.174 NA
HETATM   25  H   UNL     1      42.353 -10.809   6.861  1.00  0.00     0.189 HD
HETATM   26  C   UNL     1      41.454 -10.443   9.787  1.00  0.00     0.089 A 
HETATM   27  C   UNL     1      40.265 -10.995   9.233  1.00  0.00     0.071 A 
BRANCH  26  28
HETATM   28  C   UNL     1      41.712 -10.088  11.183  1.00  0.00    -0.006 A 
HETATM   29  C   UNL     1      40.661  -9.906  12.091  1.00  0.00     0.014 A 
HETATM   30  C   UNL     1      40.922  -9.618  13.436  1.00  0.00     0.007 A 
HETATM   31  C   UNL     1      42.238  -9.500  13.895  1.00  0.00    -0.062 A 
HETATM   32  C   UNL     1      42.518  -9.247  15.346  1.00  0.00     0.048 C 
HETATM   33  C   UNL     1      43.291  -9.681  12.992  1.00  0.00     0.007 A 
HETATM   34  C   UNL     1      43.029  -9.963  11.647  1.00  0.00     0.014 A 
ENDBRANCH  26  28
ENDBRANCH   1  22
TORSDOF 7
ENDMDL
MODEL 6
REMARK VINA RESULT:      -8.7      5.758      9.920
REMARK  7 active torsions:
REMARK  status: ('A' for Active; 'I' for Inactive)
REMARK    1  A    between atoms: C_5  and  C_6 
REMARK    2  A    between atoms: C_10  and  C_11 
REMARK       I    between atoms: C_11  and  N_12 
REMARK    3  A    between atoms: N_12  and  N_13 
REMARK       I    between atoms: N_13  and  C_14 
REMARK       I    between atoms: C_14  and  N_15 
REMARK    4  A    between atoms: N_15  and  C_16 
REMARK    5  A    between atoms: C_16  and  C_17 
REMARK    6  A    between atoms: C_17  and  C_18 
REMARK    7  A    between atoms: C_21  and  O_22 
ROOT
HETATM    1  C   UNL     1      41.000 -16.749   2.040  1.00  0.00     0.288 C 
HETATM    2  N   UNL     1      40.586 -16.517   3.332  1.00  0.00    -0.261 N 
HETATM    3  O   UNL     1      41.519 -17.813   1.704  1.00  0.00    -0.264 OA
HETATM    4  H   UNL     1      40.078 -15.689   3.630  1.00  0.00     0.190 HD
ENDROOT
BRANCH   2   5
HETATM    5  N   UNL     1      40.860 -17.472   4.323  1.00  0.00    -0.249 N 
HETATM    6  C   UNL     1      42.038 -17.322   5.024  1.00  0.00     0.335 C 
HETATM    7  N   UNL     1      42.193 -18.295   5.974  1.00  0.00    -0.337 N 
HETATM    8  O   UNL     1      42.856 -16.440   4.784  1.00  0.00    -0.246 OA
HETATM    9  H   UNL     1      41.628 -19.125   5.866  1.00  0.00     0.164 HD
HETATM   10  H   UNL     1      40.044 -17.800   4.836  1.00  0.00     0.192 HD
BRANCH   7  11
HETATM   11  C   UNL     1      43.374 -18.374   6.828  1.00  0.00     0.086 C 
HETATM   12  C   UNL     1      43.531 -17.099   7.663  1.00  0.00     0.032 C 
BRANCH  11  13
HETATM   13  C   UNL     1      44.656 -18.603   5.997  1.00  0.00     0.063 C 
BRANCH  13  14
HETATM   14  C   UNL     1      44.608 -19.724   4.979  1.00  0.00    -0.056 A 
HETATM   15  C   UNL     1      44.473 -19.412   3.616  1.00  0.00     0.010 A 
HETATM   16  C   UNL     1      44.448 -20.419   2.648  1.00  0.00     0.037 A 
HETATM   17  C   UNL     1      44.571 -21.745   3.042  1.00  0.00     0.065 A 
HETATM   18  C   UNL     1      44.723 -22.076   4.383  1.00  0.00     0.037 A 
HETATM   19  C   UNL     1      44.751 -21.068   5.349  1.00  0.00     0.010 A 
BRANCH  17  20
HETATM   20  O   UNL     1      44.551 -22.761   2.134  1.00  0.00    -0.361 OA
HETATM   21  H   UNL     1      45.050 -23.511   2.495  1.00  0.00     0.217 HD
ENDBRANCH  17  20
ENDBRANCH  13  14
ENDBRANCH  11  13
ENDBRANCH   7  11
ENDBRANCH   2   5
BRANCH   1  22
HETATM   22  C   UNL     1      40.812 -15.657   1.126  1.00  0.00     0.121 A 
HETATM   23  N   UNL     1      39.581 -15.103   0.910  1.00  0.00    -0.272 N 
HETATM   24  N   UNL     1      39.561 -14.162  -0.043  1.00  0.00    -0.174 NA
HETATM   25  H   UNL     1      38.710 -15.359   1.366  1.00  0.00     0.189 HD
HETATM   26  C   UNL     1      40.836 -14.067  -0.454  1.00  0.00     0.089 A 
HETATM   27  C   UNL     1      41.657 -14.970   0.278  1.00  0.00     0.071 A 
BRANCH  26  28
HETATM   28  C   UNL     1      41.234 -13.176  -1.545  1.00  0.00    -0.006 A 
HETATM   29  C   UNL     1      42.247 -12.224  -1.370  1.00  0.00     0.014 A 
HETATM   30  C   UNL     1      42.656 -11.413  -2.436  1.00  0.00     0.007 A 
HETATM   31  C   UNL     1      42.053 -11.535  -3.692  1.00  0.00    -0.062 A 
HETATM   32  C   UNL     1      42.529 -10.705  -4.848  1.00  0.00     0.048 C 
HETATM   33  C   UNL     1      41.041 -12.484  -3.871  1.00  0.00     0.007 A 
HETATM   34  C   UNL     1      40.630 -13.290  -2.805  1.00  0.00     0.014 A 
ENDBRANCH  26  28
ENDBRANCH   1  22
TORSDOF 7
ENDMDL
MODEL 7
REMARK VINA RESULT:      -8.7      7.257     11.784
REMARK  7 active torsions:
REMARK  status: ('A' for Active; 'I' for Inactive)
REMARK    1  A    between atoms: C_5  and  C_6 
REMARK    2  A    between atoms: C_10  and  C_11 
REMARK       I    between atoms: C_11  and  N_12 
REMARK    3  A    between atoms: N_12  and  N_13 
REMARK       I    between atoms: N_13  and  C_14 
REMARK       I    between atoms: C_14  and  N_15 
REMARK    4  A    between atoms: N_15  and  C_16 
REMARK    5  A    between atoms: C_16  and  C_17 
REMARK    6  A    between atoms: C_17  and  C_18 
REMARK    7  A    between atoms: C_21  and  O_22 
ROOT
HETATM    1  C   UNL     1      40.375 -14.575  -0.066  1.00  0.00     0.288 C 
HETATM    2  N   UNL     1      39.743 -15.117   1.031  1.00  0.00    -0.261 N 
HETATM    3  O   UNL     1      41.532 -14.160  -0.011  1.00  0.00    -0.264 OA
HETATM    4  H   UNL     1      38.823 -15.547   1.007  1.00  0.00     0.190 HD
ENDROOT
BRANCH   2   5
HETATM    5  N   UNL     1      40.391 -15.098   2.276  1.00  0.00    -0.249 N 
HETATM    6  C   UNL     1      40.835 -16.309   2.765  1.00  0.00     0.335 C 
HETATM    7  N   UNL     1      41.466 -16.169   3.973  1.00  0.00    -0.337 N 
HETATM    8  O   UNL     1      40.645 -17.376   2.192  1.00  0.00    -0.246 OA
HETATM    9  H   UNL     1      41.284 -15.315   4.480  1.00  0.00     0.164 HD
HETATM   10  H   UNL     1      40.972 -14.279   2.441  1.00  0.00     0.192 HD
BRANCH   7  11
HETATM   11  C   UNL     1      42.000 -17.308   4.713  1.00  0.00     0.086 C 
HETATM   12  C   UNL     1      41.887 -17.079   6.223  1.00  0.00     0.032 C 
BRANCH  11  13
HETATM   13  C   UNL     1      43.476 -17.577   4.345  1.00  0.00     0.063 C 
BRANCH  13  14
HETATM   14  C   UNL     1      43.798 -18.959   3.816  1.00  0.00    -0.056 A 
HETATM   15  C   UNL     1      43.405 -19.306   2.512  1.00  0.00     0.010 A 
HETATM   16  C   UNL     1      43.704 -20.564   1.983  1.00  0.00     0.037 A 
HETATM   17  C   UNL     1      44.411 -21.477   2.756  1.00  0.00     0.065 A 
HETATM   18  C   UNL     1      44.824 -21.149   4.041  1.00  0.00     0.037 A 
HETATM   19  C   UNL     1      44.527 -19.890   4.567  1.00  0.00     0.010 A 
BRANCH  17  20
HETATM   20  O   UNL     1      44.725 -22.716   2.283  1.00  0.00    -0.361 OA
HETATM   21  H   UNL     1      44.751 -23.337   3.029  1.00  0.00     0.217 HD
ENDBRANCH  17  20
ENDBRANCH  13  14
ENDBRANCH  11  13
ENDBRANCH   7  11
ENDBRANCH   2   5
BRANCH   1  22
HETATM   22  C   UNL     1      39.581 -14.502  -1.260  1.00  0.00     0.121 A 
HETATM   23  N   UNL     1      39.984 -15.083  -2.430  1.00  0.00    -0.272 N 
HETATM   24  N   UNL     1      39.179 -14.838  -3.472  1.00  0.00    -0.174 NA
HETATM   25  H   UNL     1      40.827 -15.631  -2.578  1.00  0.00     0.189 HD
HETATM   26  C   UNL     1      38.186 -14.090  -2.966  1.00  0.00     0.089 A 
HETATM   27  C   UNL     1      38.387 -13.882  -1.573  1.00  0.00     0.071 A 
BRANCH  26  28
HETATM   28  C   UNL     1      37.112 -13.557  -3.807  1.00  0.00    -0.006 A 
HETATM   29  C   UNL     1      36.301 -14.405  -4.572  1.00  0.00     0.014 A 
HETATM   30  C   UNL     1      35.244 -13.887  -5.330  1.00  0.00     0.007 A 
HETATM   31  C   UNL     1      34.985 -12.513  -5.342  1.00  0.00    -0.062 A 
HETATM   32  C   UNL     1      33.819 -11.966  -6.111  1.00  0.00     0.048 C 
HETATM   33  C   UNL     1      35.792 -11.663  -4.580  1.00  0.00     0.007 A 
HETATM   34  C   UNL     1      36.851 -12.180  -3.827  1.00  0.00     0.014 A 
ENDBRANCH  26  28
ENDBRANCH   1  22
TORSDOF 7
ENDMDL
MODEL 8
REMARK VINA RESULT:      -8.4      2.534      2.971
REMARK  7 active torsions:
REMARK  status: ('A' for Active; 'I' for Inactive)
REMARK    1  A    between atoms: C_5  and  C_6 
REMARK    2  A    between atoms: C_10  and  C_11 
REMARK       I    between atoms: C_11  and  N_12 
REMARK    3  A    between atoms: N_12  and  N_13 
REMARK       I    between atoms: N_13  and  C_14 
REMARK       I    between atoms: C_14  and  N_15 
REMARK    4  A    between atoms: N_15  and  C_16 
REMARK    5  A    between atoms: C_16  and  C_17 
REMARK    6  A    between atoms: C_17  and  C_18 
REMARK    7  A    between atoms: C_21  and  O_22 
ROOT
HETATM    1  C   UNL     1      40.863 -11.691   6.040  1.00  0.00     0.288 C 
HETATM    2  N   UNL     1      41.544 -12.887   5.989  1.00  0.00    -0.261 N 
HETATM    3  O   UNL     1      40.056 -11.364   5.170  1.00  0.00    -0.264 OA
HETATM    4  H   UNL     1      42.151 -13.231   6.727  1.00  0.00     0.190 HD
ENDROOT
BRANCH   2   5
HETATM    5  N   UNL     1      41.403 -13.710   4.861  1.00  0.00    -0.249 N 
HETATM    6  C   UNL     1      41.696 -15.047   5.025  1.00  0.00     0.335 C 
HETATM    7  N   UNL     1      41.507 -15.756   3.869  1.00  0.00    -0.337 N 
HETATM    8  O   UNL     1      42.113 -15.520   6.078  1.00  0.00    -0.246 OA
HETATM    9  H   UNL     1      41.473 -15.221   3.013  1.00  0.00     0.164 HD
HETATM   10  H   UNL     1      40.624 -13.468   4.252  1.00  0.00     0.192 HD
BRANCH   7  11
HETATM   11  C   UNL     1      41.779 -17.187   3.775  1.00  0.00     0.086 C 
HETATM   12  C   UNL     1      41.277 -17.921   5.023  1.00  0.00     0.032 C 
BRANCH  11  13
HETATM   13  C   UNL     1      43.288 -17.463   3.591  1.00  0.00     0.063 C 
BRANCH  13  14
HETATM   14  C   UNL     1      43.679 -18.892   3.278  1.00  0.00    -0.056 A 
HETATM   15  C   UNL     1      44.459 -19.611   4.201  1.00  0.00     0.010 A 
HETATM   16  C   UNL     1      44.820 -20.937   3.955  1.00  0.00     0.037 A 
HETATM   17  C   UNL     1      44.389 -21.556   2.788  1.00  0.00     0.065 A 
HETATM   18  C   UNL     1      43.603 -20.870   1.870  1.00  0.00     0.037 A 
HETATM   19  C   UNL     1      43.241 -19.545   2.118  1.00  0.00     0.010 A 
BRANCH  17  20
HETATM   20  O   UNL     1      44.717 -22.848   2.506  1.00  0.00    -0.361 OA
HETATM   21  H   UNL     1      44.544 -23.391   3.292  1.00  0.00     0.217 HD
ENDBRANCH  17  20
ENDBRANCH  13  14
ENDBRANCH  11  13
ENDBRANCH   7  11
ENDBRANCH   2   5
BRANCH   1  22
HETATM   22  C   UNL     1      41.181 -10.847   7.157  1.00  0.00     0.121 A 
HETATM   23  N   UNL     1      41.468  -9.520   6.999  1.00  0.00    -0.272 N 
HETATM   24  N   UNL     1      41.840  -8.900   8.127  1.00  0.00    -0.174 NA
HETATM   25  H   UNL     1      41.459  -8.995   6.130  1.00  0.00     0.189 HD
HETATM   26  C   UNL     1      41.767  -9.847   9.076  1.00  0.00     0.089 A 
HETATM   27  C   UNL     1      41.328 -11.077   8.511  1.00  0.00     0.071 A 
BRANCH  26  28
HETATM   28  C   UNL     1      42.154  -9.585  10.463  1.00  0.00    -0.006 A 
HETATM   29  C   UNL     1      41.680  -8.459  11.148  1.00  0.00     0.014 A 
HETATM   30  C   UNL     1      42.015  -8.247  12.491  1.00  0.00     0.007 A 
HETATM   31  C   UNL     1      42.836  -9.153  13.169  1.00  0.00    -0.062 A 
HETATM   32  C   UNL     1      43.149  -8.956  14.623  1.00  0.00     0.048 C 
HETATM   33  C   UNL     1      43.312 -10.279  12.489  1.00  0.00     0.007 A 
HETATM   34  C   UNL     1      42.981 -10.487  11.147  1.00  0.00     0.014 A 
ENDBRANCH  26  28
ENDBRANCH   1  22
TORSDOF 7
ENDMDL
MODEL 9
REMARK VINA RESULT:      -8.3      6.050     10.594
REMARK  7 active torsions:
REMARK  status: ('A' for Active; 'I' for Inactive)
REMARK    1  A    between atoms: C_5  and  C_6 
REMARK    2  A    between atoms: C_10  and  C_11 
REMARK       I    between atoms: C_11  and  N_12 
REMARK    3  A    between atoms: N_12  and  N_13 
REMARK       I    between atoms: N_13  and  C_14 
REMARK       I    between atoms: C_14  and  N_15 
REMARK    4  A    between atoms: N_15  and  C_16 
REMARK    5  A    between atoms: C_16  and  C_17 
REMARK    6  A    between atoms: C_17  and  C_18 
REMARK    7  A    between atoms: C_21  and  O_22 
ROOT
HETATM    1  C   UNL     1      41.220 -14.052   1.779  1.00  0.00     0.288 C 
HETATM    2  N   UNL     1      40.612 -14.396   2.966  1.00  0.00    -0.261 N 
HETATM    3  O   UNL     1      42.441 -14.103   1.635  1.00  0.00    -0.264 OA
HETATM    4  H   UNL     1      39.606 -14.449   3.099  1.00  0.00     0.190 HD
ENDROOT
BRANCH   2   5
HETATM    5  N   UNL     1      41.406 -14.708   4.080  1.00  0.00    -0.249 N 
HETATM    6  C   UNL     1      41.651 -16.045   4.315  1.00  0.00     0.335 C 
HETATM    7  N   UNL     1      42.448 -16.232   5.412  1.00  0.00    -0.337 N 
HETATM    8  O   UNL     1      41.170 -16.946   3.635  1.00  0.00    -0.246 OA
HETATM    9  H   UNL     1      42.515 -15.458   6.057  1.00  0.00     0.164 HD
HETATM   10  H   UNL     1      42.161 -14.050   4.263  1.00  0.00     0.192 HD
BRANCH   7  11
HETATM   11  C   UNL     1      42.827 -17.559   5.887  1.00  0.00     0.086 C 
HETATM   12  C   UNL     1      42.845 -17.605   7.419  1.00  0.00     0.032 C 
BRANCH  11  13
HETATM   13  C   UNL     1      44.212 -17.976   5.346  1.00  0.00     0.063 C 
BRANCH  13  14
HETATM   14  C   UNL     1      44.234 -19.138   4.375  1.00  0.00    -0.056 A 
HETATM   15  C   UNL     1      43.836 -18.931   3.044  1.00  0.00     0.010 A 
HETATM   16  C   UNL     1      43.864 -19.974   2.115  1.00  0.00     0.037 A 
HETATM   17  C   UNL     1      44.304 -21.230   2.514  1.00  0.00     0.065 A 
HETATM   18  C   UNL     1      44.719 -21.453   3.822  1.00  0.00     0.037 A 
HETATM   19  C   UNL     1      44.694 -20.409   4.747  1.00  0.00     0.010 A 
BRANCH  17  20
HETATM   20  O   UNL     1      44.349 -22.277   1.644  1.00  0.00    -0.361 OA
HETATM   21  H   UNL     1      45.278 -22.492   1.463  1.00  0.00     0.217 HD
ENDBRANCH  17  20
ENDBRANCH  13  14
ENDBRANCH  11  13
ENDBRANCH   7  11
ENDBRANCH   2   5
BRANCH   1  22
HETATM   22  C   UNL     1      40.336 -13.603   0.741  1.00  0.00     0.121 A 
HETATM   23  N   UNL     1      39.751 -12.368   0.776  1.00  0.00    -0.272 N 
HETATM   24  N   UNL     1      38.878 -12.144  -0.216  1.00  0.00    -0.174 NA
HETATM   25  H   UNL     1      39.888 -11.650   1.481  1.00  0.00     0.189 HD
HETATM   26  C   UNL     1      38.909 -13.264  -0.955  1.00  0.00     0.089 A 
HETATM   27  C   UNL     1      39.835 -14.193  -0.403  1.00  0.00     0.071 A 
BRANCH  26  28
HETATM   28  C   UNL     1      38.041 -13.448  -2.120  1.00  0.00    -0.006 A 
HETATM   29  C   UNL     1      37.296 -12.384  -2.644  1.00  0.00     0.014 A 
HETATM   30  C   UNL     1      36.511 -12.559  -3.790  1.00  0.00     0.007 A 
HETATM   31  C   UNL     1      36.451 -13.803  -4.426  1.00  0.00    -0.062 A 
HETATM   32  C   UNL     1      35.654 -13.976  -5.685  1.00  0.00     0.048 C 
HETATM   33  C   UNL     1      37.194 -14.868  -3.907  1.00  0.00     0.007 A 
HETATM   34  C   UNL     1      37.974 -14.694  -2.759  1.00  0.00     0.014 A 
ENDBRANCH  26  28
ENDBRANCH   1  22
TORSDOF 7
ENDMDL
MODEL 10
REMARK VINA RESULT:      -8.3      1.922      2.432
REMARK  7 active torsions:
REMARK  status: ('A' for Active; 'I' for Inactive)
REMARK    1  A    between atoms: C_5  and  C_6 
REMARK    2  A    between atoms: C_10  and  C_11 
REMARK       I    between atoms: C_11  and  N_12 
REMARK    3  A    between atoms: N_12  and  N_13 
REMARK       I    between atoms: N_13  and  C_14 
REMARK       I    between atoms: C_14  and  N_15 
REMARK    4  A    between atoms: N_15  and  C_16 
REMARK    5  A    between atoms: C_16  and  C_17 
REMARK    6  A    between atoms: C_17  and  C_18 
REMARK    7  A    between atoms: C_21  and  O_22 
ROOT
HETATM    1  C   UNL     1      42.630 -11.873   7.290  1.00  0.00     0.288 C 
HETATM    2  N   UNL     1      43.113 -13.054   6.774  1.00  0.00    -0.261 N 
HETATM    3  O   UNL     1      41.989 -11.077   6.605  1.00  0.00    -0.264 OA
HETATM    4  H   UNL     1      43.571 -13.775   7.325  1.00  0.00     0.190 HD
ENDROOT
BRANCH   2   5
HETATM    5  N   UNL     1      42.970 -13.314   5.402  1.00  0.00    -0.249 N 
HETATM    6  C   UNL     1      42.042 -14.269   5.043  1.00  0.00     0.335 C 
HETATM    7  N   UNL     1      41.974 -14.426   3.684  1.00  0.00    -0.337 N 
HETATM    8  O   UNL     1      41.392 -14.916   5.857  1.00  0.00    -0.246 OA
HETATM    9  H   UNL     1      42.758 -14.081   3.151  1.00  0.00     0.164 HD
HETATM   10  H   UNL     1      43.066 -12.498   4.802  1.00  0.00     0.192 HD
BRANCH   7  11
HETATM   11  C   UNL     1      41.088 -15.399   3.053  1.00  0.00     0.086 C 
HETATM   12  C   UNL     1      39.672 -14.833   2.904  1.00  0.00     0.032 C 
BRANCH  11  13
HETATM   13  C   UNL     1      41.031 -16.716   3.859  1.00  0.00     0.063 C 
BRANCH  13  14
HETATM   14  C   UNL     1      42.114 -17.733   3.567  1.00  0.00    -0.056 A 
HETATM   15  C   UNL     1      42.356 -18.120   2.238  1.00  0.00     0.010 A 
HETATM   16  C   UNL     1      43.361 -19.039   1.930  1.00  0.00     0.037 A 
HETATM   17  C   UNL     1      44.139 -19.567   2.953  1.00  0.00     0.065 A 
HETATM   18  C   UNL     1      43.929 -19.185   4.272  1.00  0.00     0.037 A 
HETATM   19  C   UNL     1      42.926 -18.264   4.578  1.00  0.00     0.010 A 
BRANCH  17  20
HETATM   20  O   UNL     1      45.131 -20.467   2.699  1.00  0.00    -0.361 OA
HETATM   21  H   UNL     1      45.670 -20.136   1.963  1.00  0.00     0.217 HD
ENDBRANCH  17  20
ENDBRANCH  13  14
ENDBRANCH  11  13
ENDBRANCH   7  11
ENDBRANCH   2   5
BRANCH   1  22
HETATM   22  C   UNL     1      42.952 -11.625   8.667  1.00  0.00     0.121 A 
HETATM   23  N   UNL     1      43.976 -12.276   9.297  1.00  0.00    -0.272 N 
HETATM   24  N   UNL     1      44.080 -12.003  10.604  1.00  0.00    -0.174 NA
HETATM   25  H   UNL     1      44.615 -12.948   8.883  1.00  0.00     0.189 HD
HETATM   26  C   UNL     1      43.105 -11.112  10.845  1.00  0.00     0.089 A 
HETATM   27  C   UNL     1      42.392 -10.827   9.646  1.00  0.00     0.071 A 
BRANCH  26  28
HETATM   28  C   UNL     1      42.841 -10.596  12.189  1.00  0.00    -0.006 A 
HETATM   29  C   UNL     1      43.687  -9.650  12.781  1.00  0.00     0.014 A 
HETATM   30  C   UNL     1      43.395  -9.125  14.046  1.00  0.00     0.007 A 
HETATM   31  C   UNL     1      42.256  -9.542  14.743  1.00  0.00    -0.062 A 
HETATM   32  C   UNL     1      41.914  -8.938  16.072  1.00  0.00     0.048 C 
HETATM   33  C   UNL     1      41.408 -10.486  14.155  1.00  0.00     0.007 A 
HETATM   34  C   UNL     1      41.703 -11.014  12.894  1.00  0.00     0.014 A 
ENDBRANCH  26  28
ENDBRANCH   1  22
TORSDOF 7
ENDMDL
