MODEL 1
REMARK VINA RESULT:      -7.7      0.000      0.000
REMARK  8 active torsions:
REMARK  status: ('A' for Active; 'I' for Inactive)
REMARK    1  A    between atoms: C_2  and  O_3 
REMARK    2  A    between atoms: O_3  and  C_4 
REMARK    3  A    between atoms: C_5  and  O_6 
REMARK    4  A    between atoms: O_6  and  C_7 
REMARK    5  A    between atoms: C_10  and  C_11 
REMARK    6  A    between atoms: C_11  and  N_12 
REMARK    7  A    between atoms: N_12  and  C_13 
REMARK    8  A    between atoms: C_20  and  C_21 
REMARK       I    between atoms: C_21  and  N_22 
ROOT
HETATM    1  C   UNL     1      39.876 -15.465   1.512  1.00  0.00     0.009 A 
HETATM    2  C   UNL     1      40.503 -15.334   0.258  1.00  0.00     0.039 A 
HETATM    3  C   UNL     1      40.064 -14.362  -0.665  1.00  0.00     0.030 A 
HETATM    4  C   UNL     1      38.979 -13.564  -0.326  1.00  0.00     0.063 A 
HETATM    5  N   UNL     1      38.784 -12.743  -1.400  1.00  0.00    -0.277 N 
HETATM    6  H   UNL     1      38.070 -12.031  -1.505  1.00  0.00     0.189 HD
HETATM    7  N   UNL     1      39.650 -12.931  -2.410  1.00  0.00    -0.168 NA
HETATM    8  C   UNL     1      40.446 -13.932  -1.970  1.00  0.00     0.156 A 
HETATM    9  C   UNL     1      38.300 -13.686   0.886  1.00  0.00     0.034 A 
HETATM   10  C   UNL     1      38.763 -14.659   1.784  1.00  0.00     0.026 A 
ENDROOT
BRANCH   1  11
HETATM   11  N   UNL     1      40.308 -16.492   2.360  1.00  0.00    -0.289 NA
HETATM   12  H   UNL     1      40.346 -17.392   1.884  1.00  0.00     0.128 HD
BRANCH  11  13
HETATM   13  C   UNL     1      41.454 -16.275   3.229  1.00  0.00     0.131 C 
BRANCH  13  14
HETATM   14  C   UNL     1      42.402 -17.447   3.119  1.00  0.00    -0.042 A 
HETATM   15  C   UNL     1      43.086 -17.929   4.245  1.00  0.00     0.048 A 
HETATM   16  C   UNL     1      43.954 -19.024   4.142  1.00  0.00     0.102 A 
HETATM   17  C   UNL     1      44.140 -19.652   2.895  1.00  0.00     0.102 A 
HETATM   18  C   UNL     1      43.477 -19.158   1.768  1.00  0.00     0.040 A 
HETATM   19  C   UNL     1      42.616 -18.063   1.879  1.00  0.00     0.011 A 
BRANCH  16  20
HETATM   20  O   UNL     1      44.649 -19.564   5.196  1.00  0.00    -0.349 OA
BRANCH  20  21
HETATM   21  C   UNL     1      44.074 -19.469   6.496  1.00  0.00     0.171 C 
HETATM   22  C   UNL     1      43.731 -20.873   6.960  1.00  0.00     0.034 C 
ENDBRANCH  20  21
ENDBRANCH  16  20
BRANCH  17  23
HETATM   23  O   UNL     1      44.997 -20.726   2.880  1.00  0.00    -0.349 OA
BRANCH  23  24
HETATM   24  C   UNL     1      44.435 -22.017   2.668  1.00  0.00     0.171 C 
HETATM   25  C   UNL     1      44.642 -22.831   3.933  1.00  0.00     0.034 C 
ENDBRANCH  23  24
ENDBRANCH  17  23
ENDBRANCH  13  14
ENDBRANCH  11  13
ENDBRANCH   1  11
BRANCH   8  26
HETATM   26  C   UNL     1      41.546 -14.452  -2.792  1.00  0.00     0.270 C 
HETATM   27  N   UNL     1      42.702 -13.723  -2.706  1.00  0.00    -0.365 N 
HETATM   28  H   UNL     1      42.715 -12.907  -2.104  1.00  0.00     0.159 HD
HETATM   29  H   UNL     1      43.512 -14.002  -3.235  1.00  0.00     0.159 HD
HETATM   30  O   UNL     1      41.475 -15.449  -3.505  1.00  0.00    -0.266 OA
ENDBRANCH   8  26
TORSDOF 8
ENDMDL
MODEL 2
REMARK VINA RESULT:      -7.5      1.008      1.419
REMARK  8 active torsions:
REMARK  status: ('A' for Active; 'I' for Inactive)
REMARK    1  A    between atoms: C_2  and  O_3 
REMARK    2  A    between atoms: O_3  and  C_4 
REMARK    3  A    between atoms: C_5  and  O_6 
REMARK    4  A    between atoms: O_6  and  C_7 
REMARK    5  A    between atoms: C_10  and  C_11 
REMARK    6  A    between atoms: C_11  and  N_12 
REMARK    7  A    between atoms: N_12  and  C_13 
REMARK    8  A    between atoms: C_20  and  C_21 
REMARK       I    between atoms: C_21  and  N_22 
ROOT
HETATM    1  C   UNL     1      40.545 -15.698   1.428  1.00  0.00     0.009 A 
HETATM    2  C   UNL     1      40.972 -15.408   0.118  1.00  0.00     0.039 A 
HETATM    3  C   UNL     1      40.401 -14.337  -0.601  1.00  0.00     0.030 A 
HETATM    4  C   UNL     1      39.387 -13.600  -0.004  1.00  0.00     0.063 A 
HETATM    5  N   UNL     1      39.033 -12.658  -0.927  1.00  0.00    -0.277 N 
HETATM    6  H   UNL     1      38.316 -11.947  -0.834  1.00  0.00     0.189 HD
HETATM    7  N   UNL     1      39.731 -12.711  -2.074  1.00  0.00    -0.168 NA
HETATM    8  C   UNL     1      40.580 -13.748  -1.887  1.00  0.00     0.156 A 
HETATM    9  C   UNL     1      38.903 -13.877   1.274  1.00  0.00     0.034 A 
HETATM   10  C   UNL     1      39.493 -14.945   1.965  1.00  0.00     0.026 A 
ENDROOT
BRANCH   1  11
HETATM   11  N   UNL     1      41.097 -16.815   2.068  1.00  0.00    -0.289 NA
HETATM   12  H   UNL     1      40.453 -17.227   2.742  1.00  0.00     0.128 HD
BRANCH  11  13
HETATM   13  C   UNL     1      41.801 -17.819   1.287  1.00  0.00     0.131 C 
BRANCH  13  14
HETATM   14  C   UNL     1      42.757 -18.576   2.180  1.00  0.00    -0.042 A 
HETATM   15  C   UNL     1      43.248 -17.999   3.361  1.00  0.00     0.048 A 
HETATM   16  C   UNL     1      44.124 -18.708   4.194  1.00  0.00     0.102 A 
HETATM   17  C   UNL     1      44.514 -20.016   3.844  1.00  0.00     0.102 A 
HETATM   18  C   UNL     1      44.044 -20.582   2.656  1.00  0.00     0.040 A 
HETATM   19  C   UNL     1      43.174 -19.866   1.830  1.00  0.00     0.011 A 
BRANCH  16  20
HETATM   20  O   UNL     1      44.637 -18.223   5.372  1.00  0.00    -0.349 OA
BRANCH  20  21
HETATM   21  C   UNL     1      43.763 -17.508   6.239  1.00  0.00     0.171 C 
HETATM   22  C   UNL     1      43.641 -18.294   7.532  1.00  0.00     0.034 C 
ENDBRANCH  20  21
ENDBRANCH  16  20
BRANCH  17  23
HETATM   23  O   UNL     1      45.365 -20.647   4.719  1.00  0.00    -0.349 OA
BRANCH  23  24
HETATM   24  C   UNL     1      44.978 -21.928   5.210  1.00  0.00     0.171 C 
HETATM   25  C   UNL     1      44.053 -21.714   6.395  1.00  0.00     0.034 C 
ENDBRANCH  23  24
ENDBRANCH  17  23
ENDBRANCH  13  14
ENDBRANCH  11  13
ENDBRANCH   1  11
BRANCH   8  26
HETATM   26  C   UNL     1      41.536 -14.150  -2.927  1.00  0.00     0.270 C 
HETATM   27  N   UNL     1      42.757 -13.539  -2.830  1.00  0.00    -0.365 N 
HETATM   28  H   UNL     1      42.908 -12.876  -2.078  1.00  0.00     0.159 HD
HETATM   29  H   UNL     1      43.478 -13.750  -3.500  1.00  0.00     0.159 HD
HETATM   30  O   UNL     1      41.299 -14.961  -3.817  1.00  0.00    -0.266 OA
ENDBRANCH   8  26
TORSDOF 8
ENDMDL
MODEL 3
REMARK VINA RESULT:      -7.4      1.173      2.297
REMARK  8 active torsions:
REMARK  status: ('A' for Active; 'I' for Inactive)
REMARK    1  A    between atoms: C_2  and  O_3 
REMARK    2  A    between atoms: O_3  and  C_4 
REMARK    3  A    between atoms: C_5  and  O_6 
REMARK    4  A    between atoms: O_6  and  C_7 
REMARK    5  A    between atoms: C_10  and  C_11 
REMARK    6  A    between atoms: C_11  and  N_12 
REMARK    7  A    between atoms: N_12  and  C_13 
REMARK    8  A    between atoms: C_20  and  C_21 
REMARK       I    between atoms: C_21  and  N_22 
ROOT
HETATM    1  C   UNL     1      41.188 -14.827   2.064  1.00  0.00     0.009 A 
HETATM    2  C   UNL     1      41.448 -14.796   0.681  1.00  0.00     0.039 A 
HETATM    3  C   UNL     1      40.409 -14.538  -0.238  1.00  0.00     0.030 A 
HETATM    4  C   UNL     1      39.122 -14.351   0.248  1.00  0.00     0.063 A 
HETATM    5  N   UNL     1      38.347 -14.136  -0.856  1.00  0.00    -0.277 N 
HETATM    6  H   UNL     1      37.348 -13.967  -0.880  1.00  0.00     0.189 HD
HETATM    7  N   UNL     1      39.016 -14.161  -2.021  1.00  0.00    -0.168 NA
HETATM    8  C   UNL     1      40.294 -14.412  -1.654  1.00  0.00     0.156 A 
HETATM    9  C   UNL     1      38.809 -14.414   1.605  1.00  0.00     0.034 A 
HETATM   10  C   UNL     1      39.865 -14.668   2.494  1.00  0.00     0.026 A 
ENDROOT
BRANCH   1  11
HETATM   11  N   UNL     1      42.242 -15.156   2.926  1.00  0.00    -0.289 NA
HETATM   12  H   UNL     1      42.944 -14.419   2.972  1.00  0.00     0.128 HD
BRANCH  11  13
HETATM   13  C   UNL     1      41.954 -15.730   4.231  1.00  0.00     0.131 C 
BRANCH  13  14
HETATM   14  C   UNL     1      42.795 -16.969   4.435  1.00  0.00    -0.042 A 
HETATM   15  C   UNL     1      43.159 -17.779   3.348  1.00  0.00     0.048 A 
HETATM   16  C   UNL     1      43.950 -18.920   3.539  1.00  0.00     0.102 A 
HETATM   17  C   UNL     1      44.387 -19.257   4.835  1.00  0.00     0.102 A 
HETATM   18  C   UNL     1      44.005 -18.464   5.921  1.00  0.00     0.040 A 
HETATM   19  C   UNL     1      43.214 -17.330   5.722  1.00  0.00     0.011 A 
BRANCH  16  20
HETATM   20  O   UNL     1      44.361 -19.756   2.530  1.00  0.00    -0.349 OA
BRANCH  20  21
HETATM   21  C   UNL     1      43.377 -20.552   1.878  1.00  0.00     0.171 C 
HETATM   22  C   UNL     1      44.034 -21.853   1.454  1.00  0.00     0.034 C 
ENDBRANCH  20  21
ENDBRANCH  16  20
BRANCH  17  23
HETATM   23  O   UNL     1      45.169 -20.383   4.936  1.00  0.00    -0.349 OA
BRANCH  23  24
HETATM   24  C   UNL     1      44.623 -21.507   5.619  1.00  0.00     0.171 C 
HETATM   25  C   UNL     1      44.734 -22.711   4.700  1.00  0.00     0.034 C 
ENDBRANCH  23  24
ENDBRANCH  17  23
ENDBRANCH  13  14
ENDBRANCH  11  13
ENDBRANCH   1  11
BRANCH   8  26
HETATM   26  C   UNL     1      41.368 -14.522  -2.649  1.00  0.00     0.270 C 
HETATM   27  N   UNL     1      42.338 -13.564  -2.533  1.00  0.00    -0.365 N 
HETATM   28  H   UNL     1      42.249 -12.871  -1.798  1.00  0.00     0.159 HD
HETATM   29  H   UNL     1      43.116 -13.557  -3.173  1.00  0.00     0.159 HD
HETATM   30  O   UNL     1      41.426 -15.385  -3.520  1.00  0.00    -0.266 OA
ENDBRANCH   8  26
TORSDOF 8
ENDMDL
MODEL 4
REMARK VINA RESULT:      -7.4      3.638      5.133
REMARK  8 active torsions:
REMARK  status: ('A' for Active; 'I' for Inactive)
REMARK    1  A    between atoms: C_2  and  O_3 
REMARK    2  A    between atoms: O_3  and  C_4 
REMARK    3  A    between atoms: C_5  and  O_6 
REMARK    4  A    between atoms: O_6  and  C_7 
REMARK    5  A    between atoms: C_10  and  C_11 
REMARK    6  A    between atoms: C_11  and  N_12 
REMARK    7  A    between atoms: N_12  and  C_13 
REMARK    8  A    between atoms: C_20  and  C_21 
REMARK       I    between atoms: C_21  and  N_22 
ROOT
HETATM    1  C   UNL     1      42.311 -14.800   5.637  1.00  0.00     0.009 A 
HETATM    2  C   UNL     1      41.199 -13.956   5.459  1.00  0.00     0.039 A 
HETATM    3  C   UNL     1      41.178 -13.010   4.412  1.00  0.00     0.030 A 
HETATM    4  C   UNL     1      42.289 -12.906   3.586  1.00  0.00     0.063 A 
HETATM    5  N   UNL     1      41.983 -11.919   2.692  1.00  0.00    -0.277 N 
HETATM    6  H   UNL     1      42.568 -11.570   1.941  1.00  0.00     0.189 HD
HETATM    7  N   UNL     1      40.767 -11.372   2.858  1.00  0.00    -0.168 NA
HETATM    8  C   UNL     1      40.258 -12.036   3.922  1.00  0.00     0.156 A 
HETATM    9  C   UNL     1      43.429 -13.691   3.750  1.00  0.00     0.034 A 
HETATM   10  C   UNL     1      43.419 -14.624   4.797  1.00  0.00     0.026 A 
ENDROOT
BRANCH   1  11
HETATM   11  N   UNL     1      42.309 -15.671   6.733  1.00  0.00    -0.289 NA
HETATM   12  H   UNL     1      42.065 -15.195   7.601  1.00  0.00     0.128 HD
BRANCH  11  13
HETATM   13  C   UNL     1      41.671 -16.973   6.618  1.00  0.00     0.131 C 
BRANCH  13  14
HETATM   14  C   UNL     1      42.493 -17.860   5.711  1.00  0.00    -0.042 A 
HETATM   15  C   UNL     1      42.192 -17.970   4.345  1.00  0.00     0.048 A 
HETATM   16  C   UNL     1      42.964 -18.783   3.504  1.00  0.00     0.102 A 
HETATM   17  C   UNL     1      44.057 -19.496   4.035  1.00  0.00     0.102 A 
HETATM   18  C   UNL     1      44.343 -19.405   5.400  1.00  0.00     0.040 A 
HETATM   19  C   UNL     1      43.566 -18.595   6.231  1.00  0.00     0.011 A 
BRANCH  16  20
HETATM   20  O   UNL     1      42.745 -18.934   2.157  1.00  0.00    -0.349 OA
BRANCH  20  21
HETATM   21  C   UNL     1      42.756 -17.766   1.342  1.00  0.00     0.171 C 
HETATM   22  C   UNL     1      44.168 -17.209   1.341  1.00  0.00     0.034 C 
ENDBRANCH  20  21
ENDBRANCH  16  20
BRANCH  17  23
HETATM   23  O   UNL     1      44.771 -20.260   3.143  1.00  0.00    -0.349 OA
BRANCH  23  24
HETATM   24  C   UNL     1      44.469 -21.650   3.075  1.00  0.00     0.171 C 
HETATM   25  C   UNL     1      44.194 -21.998   1.622  1.00  0.00     0.034 C 
ENDBRANCH  23  24
ENDBRANCH  17  23
ENDBRANCH  13  14
ENDBRANCH  11  13
ENDBRANCH   1  11
BRANCH   8  26
HETATM   26  C   UNL     1      38.918 -11.734   4.442  1.00  0.00     0.270 C 
HETATM   27  N   UNL     1      38.046 -11.263   3.498  1.00  0.00    -0.365 N 
HETATM   28  H   UNL     1      38.374 -11.158   2.545  1.00  0.00     0.159 HD
HETATM   29  H   UNL     1      37.103 -11.026   3.760  1.00  0.00     0.159 HD
HETATM   30  O   UNL     1      38.574 -11.881   5.610  1.00  0.00    -0.266 OA
ENDBRANCH   8  26
TORSDOF 8
ENDMDL
MODEL 5
REMARK VINA RESULT:      -7.3      0.920      2.418
REMARK  8 active torsions:
REMARK  status: ('A' for Active; 'I' for Inactive)
REMARK    1  A    between atoms: C_2  and  O_3 
REMARK    2  A    between atoms: O_3  and  C_4 
REMARK    3  A    between atoms: C_5  and  O_6 
REMARK    4  A    between atoms: O_6  and  C_7 
REMARK    5  A    between atoms: C_10  and  C_11 
REMARK    6  A    between atoms: C_11  and  N_12 
REMARK    7  A    between atoms: N_12  and  C_13 
REMARK    8  A    between atoms: C_20  and  C_21 
REMARK       I    between atoms: C_21  and  N_22 
ROOT
HETATM    1  C   UNL     1      39.960 -15.160   1.132  1.00  0.00     0.009 A 
HETATM    2  C   UNL     1      40.555 -14.952  -0.126  1.00  0.00     0.039 A 
HETATM    3  C   UNL     1      40.448 -13.703  -0.772  1.00  0.00     0.030 A 
HETATM    4  C   UNL     1      39.713 -12.697  -0.159  1.00  0.00     0.063 A 
HETATM    5  N   UNL     1      39.779 -11.631  -1.010  1.00  0.00    -0.277 N 
HETATM    6  H   UNL     1      39.349 -10.720  -0.887  1.00  0.00     0.189 HD
HETATM    7  N   UNL     1      40.496 -11.850  -2.125  1.00  0.00    -0.168 NA
HETATM    8  C   UNL     1      40.914 -13.130  -1.992  1.00  0.00     0.156 A 
HETATM    9  C   UNL     1      39.071 -12.870   1.067  1.00  0.00     0.034 A 
HETATM   10  C   UNL     1      39.200 -14.122   1.686  1.00  0.00     0.026 A 
ENDROOT
BRANCH   1  11
HETATM   11  N   UNL     1      40.040 -16.439   1.696  1.00  0.00    -0.289 NA
HETATM   12  H   UNL     1      39.119 -16.851   1.844  1.00  0.00     0.128 HD
BRANCH  11  13
HETATM   13  C   UNL     1      40.999 -17.399   1.172  1.00  0.00     0.131 C 
BRANCH  13  14
HETATM   14  C   UNL     1      41.908 -17.865   2.286  1.00  0.00    -0.042 A 
HETATM   15  C   UNL     1      42.910 -18.818   2.046  1.00  0.00     0.048 A 
HETATM   16  C   UNL     1      43.760 -19.238   3.078  1.00  0.00     0.102 A 
HETATM   17  C   UNL     1      43.610 -18.697   4.370  1.00  0.00     0.102 A 
HETATM   18  C   UNL     1      42.596 -17.765   4.615  1.00  0.00     0.040 A 
HETATM   19  C   UNL     1      41.752 -17.355   3.581  1.00  0.00     0.011 A 
BRANCH  16  20
HETATM   20  O   UNL     1      44.773 -20.153   2.924  1.00  0.00    -0.349 OA
BRANCH  20  21
HETATM   21  C   UNL     1      44.438 -21.536   2.974  1.00  0.00     0.171 C 
HETATM   22  C   UNL     1      44.269 -22.029   1.548  1.00  0.00     0.034 C 
ENDBRANCH  20  21
ENDBRANCH  16  20
BRANCH  17  23
HETATM   23  O   UNL     1      44.490 -19.151   5.322  1.00  0.00    -0.349 OA
BRANCH  23  24
HETATM   24  C   UNL     1      43.966 -19.951   6.378  1.00  0.00     0.171 C 
HETATM   25  C   UNL     1      43.945 -19.106   7.639  1.00  0.00     0.034 C 
ENDBRANCH  23  24
ENDBRANCH  17  23
ENDBRANCH  13  14
ENDBRANCH  11  13
ENDBRANCH   1  11
BRANCH   8  26
HETATM   26  C   UNL     1      41.744 -13.773  -3.019  1.00  0.00     0.270 C 
HETATM   27  N   UNL     1      43.044 -13.347  -3.036  1.00  0.00    -0.365 N 
HETATM   28  H   UNL     1      43.331 -12.642  -2.365  1.00  0.00     0.159 HD
HETATM   29  H   UNL     1      43.690 -13.730  -3.707  1.00  0.00     0.159 HD
HETATM   30  O   UNL     1      41.343 -14.624  -3.808  1.00  0.00    -0.266 OA
ENDBRANCH   8  26
TORSDOF 8
ENDMDL
MODEL 6
REMARK VINA RESULT:      -7.2      2.270      3.032
REMARK  8 active torsions:
REMARK  status: ('A' for Active; 'I' for Inactive)
REMARK    1  A    between atoms: C_2  and  O_3 
REMARK    2  A    between atoms: O_3  and  C_4 
REMARK    3  A    between atoms: C_5  and  O_6 
REMARK    4  A    between atoms: O_6  and  C_7 
REMARK    5  A    between atoms: C_10  and  C_11 
REMARK    6  A    between atoms: C_11  and  N_12 
REMARK    7  A    between atoms: N_12  and  C_13 
REMARK    8  A    between atoms: C_20  and  C_21 
REMARK       I    between atoms: C_21  and  N_22 
ROOT
HETATM    1  C   UNL     1      41.127 -15.498  -1.024  1.00  0.00     0.009 A 
HETATM    2  C   UNL     1      41.656 -14.222  -0.754  1.00  0.00     0.039 A 
HETATM    3  C   UNL     1      41.910 -13.314  -1.804  1.00  0.00     0.030 A 
HETATM    4  C   UNL     1      41.661 -13.719  -3.108  1.00  0.00     0.063 A 
HETATM    5  N   UNL     1      42.005 -12.653  -3.890  1.00  0.00    -0.277 N 
HETATM    6  H   UNL     1      41.959 -12.595  -4.901  1.00  0.00     0.189 HD
HETATM    7  N   UNL     1      42.453 -11.585  -3.210  1.00  0.00    -0.168 NA
HETATM    8  C   UNL     1      42.402 -11.981  -1.918  1.00  0.00     0.156 A 
HETATM    9  C   UNL     1      41.177 -14.988  -3.427  1.00  0.00     0.034 A 
HETATM   10  C   UNL     1      40.932 -15.866  -2.361  1.00  0.00     0.026 A 
ENDROOT
BRANCH   1  11
HETATM   11  N   UNL     1      40.961 -16.382   0.049  1.00  0.00    -0.289 NA
HETATM   12  H   UNL     1      41.364 -17.298  -0.143  1.00  0.00     0.128 HD
BRANCH  11  13
HETATM   13  C   UNL     1      41.231 -15.930   1.405  1.00  0.00     0.131 C 
BRANCH  13  14
HETATM   14  C   UNL     1      42.114 -16.935   2.107  1.00  0.00    -0.042 A 
HETATM   15  C   UNL     1      41.969 -17.186   3.480  1.00  0.00     0.048 A 
HETATM   16  C   UNL     1      42.781 -18.128   4.126  1.00  0.00     0.102 A 
HETATM   17  C   UNL     1      43.752 -18.834   3.389  1.00  0.00     0.102 A 
HETATM   18  C   UNL     1      43.913 -18.567   2.026  1.00  0.00     0.040 A 
HETATM   19  C   UNL     1      43.101 -17.624   1.391  1.00  0.00     0.011 A 
BRANCH  16  20
HETATM   20  O   UNL     1      42.694 -18.442   5.460  1.00  0.00    -0.349 OA
BRANCH  20  21
HETATM   21  C   UNL     1      42.804 -17.383   6.405  1.00  0.00     0.171 C 
HETATM   22  C   UNL     1      44.278 -17.081   6.601  1.00  0.00     0.034 C 
ENDBRANCH  20  21
ENDBRANCH  16  20
BRANCH  17  23
HETATM   23  O   UNL     1      44.498 -19.748   4.092  1.00  0.00    -0.349 OA
BRANCH  23  24
HETATM   24  C   UNL     1      44.679 -21.038   3.515  1.00  0.00     0.171 C 
HETATM   25  C   UNL     1      44.859 -22.035   4.646  1.00  0.00     0.034 C 
ENDBRANCH  23  24
ENDBRANCH  17  23
ENDBRANCH  13  14
ENDBRANCH  11  13
ENDBRANCH   1  11
BRANCH   8  26
HETATM   26  C   UNL     1      42.816 -11.088  -0.828  1.00  0.00     0.270 C 
HETATM   27  N   UNL     1      41.843 -10.859   0.107  1.00  0.00    -0.365 N 
HETATM   28  H   UNL     1      40.940 -11.303  -0.015  1.00  0.00     0.159 HD
HETATM   29  H   UNL     1      42.034 -10.257   0.893  1.00  0.00     0.159 HD
HETATM   30  O   UNL     1      43.927 -10.576  -0.729  1.00  0.00    -0.266 OA
ENDBRANCH   8  26
TORSDOF 8
ENDMDL
MODEL 7
REMARK VINA RESULT:      -7.1      3.239      4.407
REMARK  8 active torsions:
REMARK  status: ('A' for Active; 'I' for Inactive)
REMARK    1  A    between atoms: C_2  and  O_3 
REMARK    2  A    between atoms: O_3  and  C_4 
REMARK    3  A    between atoms: C_5  and  O_6 
REMARK    4  A    between atoms: O_6  and  C_7 
REMARK    5  A    between atoms: C_10  and  C_11 
REMARK    6  A    between atoms: C_11  and  N_12 
REMARK    7  A    between atoms: N_12  and  C_13 
REMARK    8  A    between atoms: C_20  and  C_21 
REMARK       I    between atoms: C_21  and  N_22 
ROOT
HETATM    1  C   UNL     1      39.409 -15.246   2.202  1.00  0.00     0.009 A 
HETATM    2  C   UNL     1      39.820 -14.594   3.380  1.00  0.00     0.039 A 
HETATM    3  C   UNL     1      39.542 -13.225   3.575  1.00  0.00     0.030 A 
HETATM    4  C   UNL     1      38.887 -12.528   2.569  1.00  0.00     0.063 A 
HETATM    5  N   UNL     1      38.769 -11.248   3.032  1.00  0.00    -0.277 N 
HETATM    6  H   UNL     1      38.346 -10.460   2.555  1.00  0.00     0.189 HD
HETATM    7  N   UNL     1      39.286 -11.049   4.257  1.00  0.00    -0.168 NA
HETATM    8  C   UNL     1      39.770 -12.263   4.604  1.00  0.00     0.156 A 
HETATM    9  C   UNL     1      38.498 -13.121   1.368  1.00  0.00     0.034 A 
HETATM   10  C   UNL     1      38.787 -14.484   1.205  1.00  0.00     0.026 A 
ENDROOT
BRANCH   1  11
HETATM   11  N   UNL     1      39.773 -16.587   2.030  1.00  0.00    -0.289 NA
HETATM   12  H   UNL     1      38.987 -17.162   1.730  1.00  0.00     0.128 HD
BRANCH  11  13
HETATM   13  C   UNL     1      41.003 -16.916   1.326  1.00  0.00     0.131 C 
BRANCH  13  14
HETATM   14  C   UNL     1      41.950 -17.626   2.265  1.00  0.00    -0.042 A 
HETATM   15  C   UNL     1      41.733 -17.613   3.652  1.00  0.00     0.048 A 
HETATM   16  C   UNL     1      42.605 -18.283   4.520  1.00  0.00     0.102 A 
HETATM   17  C   UNL     1      43.711 -18.980   3.996  1.00  0.00     0.102 A 
HETATM   18  C   UNL     1      43.941 -18.974   2.617  1.00  0.00     0.040 A 
HETATM   19  C   UNL     1      43.068 -18.301   1.760  1.00  0.00     0.011 A 
BRANCH  16  20
HETATM   20  O   UNL     1      42.456 -18.330   5.885  1.00  0.00    -0.349 OA
BRANCH  20  21
HETATM   21  C   UNL     1      42.087 -17.132   6.560  1.00  0.00     0.171 C 
HETATM   22  C   UNL     1      43.301 -16.630   7.319  1.00  0.00     0.034 C 
ENDBRANCH  20  21
ENDBRANCH  16  20
BRANCH  17  23
HETATM   23  O   UNL     1      44.511 -19.621   4.912  1.00  0.00    -0.349 OA
BRANCH  23  24
HETATM   24  C   UNL     1      45.230 -20.769   4.472  1.00  0.00     0.171 C 
HETATM   25  C   UNL     1      44.722 -21.967   5.255  1.00  0.00     0.034 C 
ENDBRANCH  23  24
ENDBRANCH  17  23
ENDBRANCH  13  14
ENDBRANCH  11  13
ENDBRANCH   1  11
BRANCH   8  26
HETATM   26  C   UNL     1      40.431 -12.482   5.897  1.00  0.00     0.270 C 
HETATM   27  N   UNL     1      39.677 -13.184   6.799  1.00  0.00    -0.365 N 
HETATM   28  H   UNL     1      38.751 -13.490   6.521  1.00  0.00     0.159 HD
HETATM   29  H   UNL     1      40.045 -13.382   7.715  1.00  0.00     0.159 HD
HETATM   30  O   UNL     1      41.558 -12.087   6.181  1.00  0.00    -0.266 OA
ENDBRANCH   8  26
TORSDOF 8
ENDMDL
MODEL 8
REMARK VINA RESULT:      -7.0      6.960      9.145
REMARK  8 active torsions:
REMARK  status: ('A' for Active; 'I' for Inactive)
REMARK    1  A    between atoms: C_2  and  O_3 
REMARK    2  A    between atoms: O_3  and  C_4 
REMARK    3  A    between atoms: C_5  and  O_6 
REMARK    4  A    between atoms: O_6  and  C_7 
REMARK    5  A    between atoms: C_10  and  C_11 
REMARK    6  A    between atoms: C_11  and  N_12 
REMARK    7  A    between atoms: N_12  and  C_13 
REMARK    8  A    between atoms: C_20  and  C_21 
REMARK       I    between atoms: C_21  and  N_22 
ROOT
HETATM    1  C   UNL     1      44.712 -12.399   8.670  1.00  0.00     0.009 A 
HETATM    2  C   UNL     1      43.419 -11.878   8.861  1.00  0.00     0.039 A 
HETATM    3  C   UNL     1      43.159 -10.972   9.911  1.00  0.00     0.030 A 
HETATM    4  C   UNL     1      44.195 -10.636  10.772  1.00  0.00     0.063 A 
HETATM    5  N   UNL     1      43.649  -9.768  11.674  1.00  0.00    -0.277 N 
HETATM    6  H   UNL     1      44.116  -9.321  12.455  1.00  0.00     0.189 HD
HETATM    7  N   UNL     1      42.347  -9.503  11.475  1.00  0.00    -0.168 NA
HETATM    8  C   UNL     1      42.030 -10.244  10.389  1.00  0.00     0.156 A 
HETATM    9  C   UNL     1      45.482 -11.159  10.647  1.00  0.00     0.034 A 
HETATM   10  C   UNL     1      45.709 -12.054   9.591  1.00  0.00     0.026 A 
ENDROOT
BRANCH   1  11
HETATM   11  N   UNL     1      44.898 -13.347   7.656  1.00  0.00    -0.289 NA
HETATM   12  H   UNL     1      45.207 -14.246   8.022  1.00  0.00     0.128 HD
BRANCH  11  13
HETATM   13  C   UNL     1      43.896 -13.488   6.610  1.00  0.00     0.131 C 
BRANCH  13  14
HETATM   14  C   UNL     1      43.817 -14.935   6.179  1.00  0.00    -0.042 A 
HETATM   15  C   UNL     1      43.352 -15.281   4.901  1.00  0.00     0.048 A 
HETATM   16  C   UNL     1      43.291 -16.622   4.499  1.00  0.00     0.102 A 
HETATM   17  C   UNL     1      43.705 -17.635   5.386  1.00  0.00     0.102 A 
HETATM   18  C   UNL     1      44.146 -17.293   6.668  1.00  0.00     0.040 A 
HETATM   19  C   UNL     1      44.200 -15.953   7.061  1.00  0.00     0.011 A 
BRANCH  16  20
HETATM   20  O   UNL     1      42.863 -17.043   3.264  1.00  0.00    -0.349 OA
BRANCH  20  21
HETATM   21  C   UNL     1      43.600 -16.622   2.121  1.00  0.00     0.171 C 
HETATM   22  C   UNL     1      43.900 -17.850   1.280  1.00  0.00     0.034 C 
ENDBRANCH  20  21
ENDBRANCH  16  20
BRANCH  17  23
HETATM   23  O   UNL     1      43.626 -18.922   4.913  1.00  0.00    -0.349 OA
BRANCH  23  24
HETATM   24  C   UNL     1      44.808 -19.716   4.956  1.00  0.00     0.171 C 
HETATM   25  C   UNL     1      44.856 -20.553   3.690  1.00  0.00     0.034 C 
ENDBRANCH  23  24
ENDBRANCH  17  23
ENDBRANCH  13  14
ENDBRANCH  11  13
ENDBRANCH   1  11
BRANCH   8  26
HETATM   26  C   UNL     1      40.671 -10.242   9.832  1.00  0.00     0.270 C 
HETATM   27  N   UNL     1      39.928 -11.342  10.164  1.00  0.00    -0.365 N 
HETATM   28  H   UNL     1      40.353 -12.055  10.748  1.00  0.00     0.159 HD
HETATM   29  H   UNL     1      38.983 -11.431   9.828  1.00  0.00     0.159 HD
HETATM   30  O   UNL     1      40.206  -9.349   9.129  1.00  0.00    -0.266 OA
ENDBRANCH   8  26
TORSDOF 8
ENDMDL
MODEL 9
REMARK VINA RESULT:      -7.0      3.646      8.463
REMARK  8 active torsions:
REMARK  status: ('A' for Active; 'I' for Inactive)
REMARK    1  A    between atoms: C_2  and  O_3 
REMARK    2  A    between atoms: O_3  and  C_4 
REMARK    3  A    between atoms: C_5  and  O_6 
REMARK    4  A    between atoms: O_6  and  C_7 
REMARK    5  A    between atoms: C_10  and  C_11 
REMARK    6  A    between atoms: C_11  and  N_12 
REMARK    7  A    between atoms: N_12  and  C_13 
REMARK    8  A    between atoms: C_20  and  C_21 
REMARK       I    between atoms: C_21  and  N_22 
ROOT
HETATM    1  C   UNL     1      44.197 -19.312   2.949  1.00  0.00     0.009 A 
HETATM    2  C   UNL     1      43.784 -18.735   4.165  1.00  0.00     0.039 A 
HETATM    3  C   UNL     1      43.842 -19.474   5.365  1.00  0.00     0.030 A 
HETATM    4  C   UNL     1      44.278 -20.791   5.315  1.00  0.00     0.063 A 
HETATM    5  N   UNL     1      44.216 -21.242   6.603  1.00  0.00    -0.277 N 
HETATM    6  H   UNL     1      44.457 -22.167   6.941  1.00  0.00     0.189 HD
HETATM    7  N   UNL     1      43.782 -20.333   7.492  1.00  0.00    -0.168 NA
HETATM    8  C   UNL     1      43.543 -19.234   6.739  1.00  0.00     0.156 A 
HETATM    9  C   UNL     1      44.657 -21.418   4.128  1.00  0.00     0.034 A 
HETATM   10  C   UNL     1      44.592 -20.655   2.953  1.00  0.00     0.026 A 
ENDROOT
BRANCH   1  11
HETATM   11  N   UNL     1      44.053 -18.556   1.779  1.00  0.00    -0.289 NA
HETATM   12  H   UNL     1      43.226 -18.825   1.248  1.00  0.00     0.128 HD
BRANCH  11  13
HETATM   13  C   UNL     1      44.238 -17.114   1.825  1.00  0.00     0.131 C 
BRANCH  13  14
HETATM   14  C   UNL     1      42.890 -16.432   1.875  1.00  0.00    -0.042 A 
HETATM   15  C   UNL     1      42.570 -15.547   2.916  1.00  0.00     0.048 A 
HETATM   16  C   UNL     1      41.324 -14.906   2.953  1.00  0.00     0.102 A 
HETATM   17  C   UNL     1      40.383 -15.151   1.933  1.00  0.00     0.102 A 
HETATM   18  C   UNL     1      40.693 -16.051   0.909  1.00  0.00     0.040 A 
HETATM   19  C   UNL     1      41.936 -16.687   0.882  1.00  0.00     0.011 A 
BRANCH  16  20
HETATM   20  O   UNL     1      40.938 -14.017   3.926  1.00  0.00    -0.349 OA
BRANCH  20  21
HETATM   21  C   UNL     1      40.580 -14.536   5.203  1.00  0.00     0.171 C 
HETATM   22  C   UNL     1      39.873 -13.436   5.974  1.00  0.00     0.034 C 
ENDBRANCH  20  21
ENDBRANCH  16  20
BRANCH  17  23
HETATM   23  O   UNL     1      39.191 -14.475   2.036  1.00  0.00    -0.349 OA
BRANCH  23  24
HETATM   24  C   UNL     1      38.768 -13.707   0.913  1.00  0.00     0.171 C 
HETATM   25  C   UNL     1      37.295 -13.991   0.681  1.00  0.00     0.034 C 
ENDBRANCH  23  24
ENDBRANCH  17  23
ENDBRANCH  13  14
ENDBRANCH  11  13
ENDBRANCH   1  11
BRANCH   8  26
HETATM   26  C   UNL     1      43.044 -17.990   7.338  1.00  0.00     0.270 C 
HETATM   27  N   UNL     1      43.551 -17.726   8.582  1.00  0.00    -0.365 N 
HETATM   28  H   UNL     1      44.209 -18.383   8.986  1.00  0.00     0.159 HD
HETATM   29  H   UNL     1      43.266 -16.894   9.074  1.00  0.00     0.159 HD
HETATM   30  O   UNL     1      42.245 -17.229   6.802  1.00  0.00    -0.266 OA
ENDBRANCH   8  26
TORSDOF 8
ENDMDL
MODEL 10
REMARK VINA RESULT:      -6.9      4.323      5.644
REMARK  8 active torsions:
REMARK  status: ('A' for Active; 'I' for Inactive)
REMARK    1  A    between atoms: C_2  and  O_3 
REMARK    2  A    between atoms: O_3  and  C_4 
REMARK    3  A    between atoms: C_5  and  O_6 
REMARK    4  A    between atoms: O_6  and  C_7 
REMARK    5  A    between atoms: C_10  and  C_11 
REMARK    6  A    between atoms: C_11  and  N_12 
REMARK    7  A    between atoms: N_12  and  C_13 
REMARK    8  A    between atoms: C_20  and  C_21 
REMARK       I    between atoms: C_21  and  N_22 
ROOT
HETATM    1  C   UNL     1      40.348 -14.060   4.744  1.00  0.00     0.009 A 
HETATM    2  C   UNL     1      40.731 -13.206   5.796  1.00  0.00     0.039 A 
HETATM    3  C   UNL     1      41.061 -11.859   5.541  1.00  0.00     0.030 A 
HETATM    4  C   UNL     1      41.035 -11.403   4.230  1.00  0.00     0.063 A 
HETATM    5  N   UNL     1      41.404 -10.089   4.297  1.00  0.00    -0.277 N 
HETATM    6  H   UNL     1      41.499  -9.440   3.524  1.00  0.00     0.189 HD
HETATM    7  N   UNL     1      41.664  -9.645   5.538  1.00  0.00    -0.168 NA
HETATM    8  C   UNL     1      41.459 -10.731   6.318  1.00  0.00     0.156 A 
HETATM    9  C   UNL     1      40.702 -12.222   3.151  1.00  0.00     0.034 A 
HETATM   10  C   UNL     1      40.376 -13.556   3.437  1.00  0.00     0.026 A 
ENDROOT
BRANCH   1  11
HETATM   11  N   UNL     1      40.099 -15.404   5.044  1.00  0.00    -0.289 NA
HETATM   12  H   UNL     1      39.839 -15.940   4.217  1.00  0.00     0.128 HD
BRANCH  11  13
HETATM   13  C   UNL     1      41.013 -16.131   5.911  1.00  0.00     0.131 C 
BRANCH  13  14
HETATM   14  C   UNL     1      41.854 -17.074   5.082  1.00  0.00    -0.042 A 
HETATM   15  C   UNL     1      42.834 -17.881   5.681  1.00  0.00     0.048 A 
HETATM   16  C   UNL     1      43.603 -18.764   4.912  1.00  0.00     0.102 A 
HETATM   17  C   UNL     1      43.391 -18.845   3.522  1.00  0.00     0.102 A 
HETATM   18  C   UNL     1      42.432 -18.024   2.921  1.00  0.00     0.040 A 
HETATM   19  C   UNL     1      41.672 -17.145   3.695  1.00  0.00     0.011 A 
BRANCH  16  20
HETATM   20  O   UNL     1      44.569 -19.597   5.422  1.00  0.00    -0.349 OA
BRANCH  20  21
HETATM   21  C   UNL     1      44.149 -20.716   6.194  1.00  0.00     0.171 C 
HETATM   22  C   UNL     1      44.618 -21.975   5.487  1.00  0.00     0.034 C 
ENDBRANCH  20  21
ENDBRANCH  16  20
BRANCH  17  23
HETATM   23  O   UNL     1      44.177 -19.743   2.841  1.00  0.00    -0.349 OA
BRANCH  23  24
HETATM   24  C   UNL     1      43.544 -20.578   1.877  1.00  0.00     0.171 C 
HETATM   25  C   UNL     1      44.299 -21.895   1.831  1.00  0.00     0.034 C 
ENDBRANCH  23  24
ENDBRANCH  17  23
ENDBRANCH  13  14
ENDBRANCH  11  13
ENDBRANCH   1  11
BRANCH   8  26
HETATM   26  C   UNL     1      41.642 -10.671   7.774  1.00  0.00     0.270 C 
HETATM   27  N   UNL     1      40.554 -11.091   8.492  1.00  0.00    -0.365 N 
HETATM   28  H   UNL     1      39.731 -11.400   7.987  1.00  0.00     0.159 HD
HETATM   29  H   UNL     1      40.584 -11.085   9.498  1.00  0.00     0.159 HD
HETATM   30  O   UNL     1      42.664 -10.287   8.334  1.00  0.00    -0.266 OA
ENDBRANCH   8  26
TORSDOF 8
ENDMDL
