MODEL 1
REMARK VINA RESULT:      -9.5      0.000      0.000
REMARK  5 active torsions:
REMARK  status: ('A' for Active; 'I' for Inactive)
REMARK       I    between atoms: N_6  and  C_7 
REMARK    1  A    between atoms: C_7  and  C_8 
REMARK    2  A    between atoms: N_11  and  C_12 
REMARK    3  A    between atoms: C_19  and  C_20 
REMARK    4  A    between atoms: C_20  and  N_21 
REMARK    5  A    between atoms: N_21  and  C_22 
ROOT
HETATM    1  C   UNL     1      44.284 -15.059   6.395  1.00  0.00     0.719 A 
HETATM    2  N   UNL     1      43.727 -14.896   5.132  1.00  0.00    -0.154 N 
HETATM    3  C   UNL     1      43.343 -16.177   4.726  1.00  0.00     0.083 A 
HETATM    4  C   UNL     1      42.701 -16.321   3.462  1.00  0.00     0.033 A 
HETATM    5  C   UNL     1      42.530 -15.240   2.679  1.00  0.00     0.004 A 
HETATM    6  C   UNL     1      42.997 -13.931   3.089  1.00  0.00     0.018 A 
HETATM    7  C   UNL     1      43.580 -13.788   4.290  1.00  0.00     0.115 A 
HETATM    8  C   UNL     1      43.767 -17.043   5.709  1.00  0.00     0.099 A 
HETATM    9  N   UNL     1      44.351 -16.339   6.754  1.00  0.00    -0.064 NA
ENDROOT
BRANCH   1  10
HETATM   10  N   UNL     1      44.763 -14.045   7.237  1.00  0.00    -0.147 N 
HETATM   11  C   UNL     1      45.932 -13.344   7.023  1.00  0.00     0.233 A 
HETATM   12  N   UNL     1      46.162 -12.429   7.935  1.00  0.00    -0.236 NA
HETATM   13  C   UNL     1      45.106 -12.518   8.816  1.00  0.00     0.142 A 
HETATM   14  C   UNL     1      44.265 -13.544   8.414  1.00  0.00     0.153 A 
BRANCH  13  15
HETATM   15  C   UNL     1      44.911 -11.705  10.028  1.00  0.00     0.273 C 
HETATM   16  N   UNL     1      43.874 -10.758  10.082  1.00  0.00    -0.345 N 
HETATM   17  C   UNL     1      43.897  -9.817  11.205  1.00  0.00     0.154 C 
HETATM   18  C   UNL     1      42.750 -10.723   9.151  1.00  0.00     0.128 C 
HETATM   19  C   UNL     1      43.141 -10.362  12.424  1.00  0.00     0.254 C 
HETATM   20  N   UNL     1      41.627 -10.273  12.256  1.00  0.00    -0.073 N 
HETATM   21  C   UNL     1      40.940 -10.765  13.512  1.00  0.00     0.269 C 
HETATM   22  H   UNL     1      41.386  -9.275  12.183  1.00  0.00     0.279 HD
HETATM   23  C   UNL     1      41.064 -10.969  11.033  1.00  0.00     0.236 C 
HETATM   24  C   UNL     1      41.436 -10.227   9.753  1.00  0.00     0.048 C 
HETATM   25  O   UNL     1      45.639 -11.868  11.010  1.00  0.00    -0.266 OA
ENDBRANCH  13  15
ENDBRANCH   1  10
BRANCH   8  26
HETATM   26  C   UNL     1      43.685 -18.542   5.753  1.00  0.00     0.183 C 
BRANCH  26  27
HETATM   27  N   UNL     1      44.718 -19.292   5.044  1.00  0.00    -0.371 N 
HETATM   28  H   UNL     1      45.585 -18.773   4.916  1.00  0.00     0.161 HD
BRANCH  27  29
HETATM   29  C   UNL     1      44.450 -20.179   4.020  1.00  0.00     0.101 A 
HETATM   30  N   UNL     1      44.738 -21.488   4.114  1.00  0.00    -0.353 N 
HETATM   31  H   UNL     1      45.066 -21.835   5.019  1.00  0.00     0.166 HD
HETATM   32  C   UNL     1      44.548 -22.361   3.116  1.00  0.00     0.089 A 
HETATM   33  C   UNL     1      44.031 -21.934   1.903  1.00  0.00     0.017 A 
HETATM   34  C   UNL     1      43.706 -20.594   1.752  1.00  0.00     0.005 A 
HETATM   35  C   UNL     1      43.916 -19.714   2.812  1.00  0.00     0.048 A 
ENDBRANCH  27  29
ENDBRANCH  26  27
ENDBRANCH   8  26
TORSDOF 5
ENDMDL
MODEL 2
REMARK VINA RESULT:      -9.1      4.563      8.808
REMARK  5 active torsions:
REMARK  status: ('A' for Active; 'I' for Inactive)
REMARK       I    between atoms: N_6  and  C_7 
REMARK    1  A    between atoms: C_7  and  C_8 
REMARK    2  A    between atoms: N_11  and  C_12 
REMARK    3  A    between atoms: C_19  and  C_20 
REMARK    4  A    between atoms: C_20  and  N_21 
REMARK    5  A    between atoms: N_21  and  C_22 
ROOT
HETATM    1  C   UNL     1      42.324 -16.712   4.132  1.00  0.00     0.719 A 
HETATM    2  N   UNL     1      42.911 -15.789   4.990  1.00  0.00    -0.154 N 
HETATM    3  C   UNL     1      43.511 -16.547   6.000  1.00  0.00     0.083 A 
HETATM    4  C   UNL     1      44.230 -15.862   7.022  1.00  0.00     0.033 A 
HETATM    5  C   UNL     1      44.270 -14.517   7.016  1.00  0.00     0.004 A 
HETATM    6  C   UNL     1      43.584 -13.746   5.998  1.00  0.00     0.018 A 
HETATM    7  C   UNL     1      42.927 -14.390   5.019  1.00  0.00     0.115 A 
HETATM    8  C   UNL     1      43.178 -17.860   5.754  1.00  0.00     0.099 A 
HETATM    9  N   UNL     1      42.440 -17.960   4.582  1.00  0.00    -0.064 NA
ENDROOT
BRANCH   1  10
HETATM   10  N   UNL     1      41.651 -16.433   2.935  1.00  0.00    -0.147 N 
HETATM   11  C   UNL     1      41.608 -17.286   1.850  1.00  0.00     0.233 A 
HETATM   12  N   UNL     1      40.899 -16.816   0.851  1.00  0.00    -0.236 NA
HETATM   13  C   UNL     1      40.449 -15.583   1.269  1.00  0.00     0.142 A 
HETATM   14  C   UNL     1      40.948 -15.324   2.536  1.00  0.00     0.153 A 
BRANCH  13  15
HETATM   15  C   UNL     1      39.619 -14.648   0.491  1.00  0.00     0.273 C 
HETATM   16  N   UNL     1      40.018 -14.258  -0.800  1.00  0.00    -0.345 N 
HETATM   17  C   UNL     1      39.288 -13.143  -1.407  1.00  0.00     0.154 C 
HETATM   18  C   UNL     1      41.036 -14.950  -1.584  1.00  0.00     0.128 C 
HETATM   19  C   UNL     1      38.059 -13.623  -2.191  1.00  0.00     0.254 C 
HETATM   20  N   UNL     1      38.432 -14.238  -3.537  1.00  0.00    -0.073 N 
HETATM   21  C   UNL     1      37.179 -14.633  -4.288  1.00  0.00     0.269 C 
HETATM   22  H   UNL     1      38.869 -13.495  -4.101  1.00  0.00     0.279 HD
HETATM   23  C   UNL     1      39.406 -15.398  -3.477  1.00  0.00     0.236 C 
HETATM   24  C   UNL     1      40.805 -14.927  -3.094  1.00  0.00     0.048 C 
HETATM   25  O   UNL     1      38.558 -14.224   0.955  1.00  0.00    -0.266 OA
ENDBRANCH  13  15
ENDBRANCH   1  10
BRANCH   8  26
HETATM   26  C   UNL     1      43.491 -19.086   6.563  1.00  0.00     0.183 C 
BRANCH  26  27
HETATM   27  N   UNL     1      44.616 -19.908   6.128  1.00  0.00    -0.371 N 
HETATM   28  H   UNL     1      45.525 -19.521   6.375  1.00  0.00     0.161 HD
BRANCH  27  29
HETATM   29  C   UNL     1      44.625 -20.627   4.948  1.00  0.00     0.101 A 
HETATM   30  N   UNL     1      44.510 -20.034   3.749  1.00  0.00    -0.353 N 
HETATM   31  H   UNL     1      44.525 -19.010   3.725  1.00  0.00     0.166 HD
HETATM   32  C   UNL     1      44.453 -20.708   2.592  1.00  0.00     0.089 A 
HETATM   33  C   UNL     1      44.510 -22.092   2.587  1.00  0.00     0.017 A 
HETATM   34  C   UNL     1      44.638 -22.759   3.797  1.00  0.00     0.005 A 
HETATM   35  C   UNL     1      44.696 -22.025   4.981  1.00  0.00     0.048 A 
ENDBRANCH  27  29
ENDBRANCH  26  27
ENDBRANCH   8  26
TORSDOF 5
ENDMDL
MODEL 3
REMARK VINA RESULT:      -9.1      4.344     10.099
REMARK  5 active torsions:
REMARK  status: ('A' for Active; 'I' for Inactive)
REMARK       I    between atoms: N_6  and  C_7 
REMARK    1  A    between atoms: C_7  and  C_8 
REMARK    2  A    between atoms: N_11  and  C_12 
REMARK    3  A    between atoms: C_19  and  C_20 
REMARK    4  A    between atoms: C_20  and  N_21 
REMARK    5  A    between atoms: N_21  and  C_22 
ROOT
HETATM    1  C   UNL     1      42.575 -16.109   4.482  1.00  0.00     0.719 A 
HETATM    2  N   UNL     1      43.364 -17.218   4.764  1.00  0.00    -0.154 N 
HETATM    3  C   UNL     1      44.090 -16.879   5.909  1.00  0.00     0.083 A 
HETATM    4  C   UNL     1      44.974 -17.850   6.461  1.00  0.00     0.033 A 
HETATM    5  C   UNL     1      45.123 -19.037   5.844  1.00  0.00     0.004 A 
HETATM    6  C   UNL     1      44.413 -19.344   4.619  1.00  0.00     0.018 A 
HETATM    7  C   UNL     1      43.560 -18.440   4.110  1.00  0.00     0.115 A 
HETATM    8  C   UNL     1      43.777 -15.569   6.197  1.00  0.00     0.099 A 
HETATM    9  N   UNL     1      42.825 -15.093   5.305  1.00  0.00    -0.064 NA
ENDROOT
BRANCH   1  10
HETATM   10  N   UNL     1      41.629 -15.993   3.455  1.00  0.00    -0.147 N 
HETATM   11  C   UNL     1      40.927 -17.054   2.920  1.00  0.00     0.233 A 
HETATM   12  N   UNL     1      40.081 -16.696   1.983  1.00  0.00    -0.236 NA
HETATM   13  C   UNL     1      40.221 -15.330   1.867  1.00  0.00     0.142 A 
HETATM   14  C   UNL     1      41.206 -14.899   2.741  1.00  0.00     0.153 A 
BRANCH  13  15
HETATM   15  C   UNL     1      39.493 -14.456   0.931  1.00  0.00     0.273 C 
HETATM   16  N   UNL     1      40.025 -14.189  -0.343  1.00  0.00    -0.345 N 
HETATM   17  C   UNL     1      39.385 -13.122  -1.115  1.00  0.00     0.154 C 
HETATM   18  C   UNL     1      41.097 -14.964  -0.959  1.00  0.00     0.128 C 
HETATM   19  C   UNL     1      38.226 -13.650  -1.971  1.00  0.00     0.254 C 
HETATM   20  N   UNL     1      38.713 -14.389  -3.215  1.00  0.00    -0.073 N 
HETATM   21  C   UNL     1      37.529 -14.831  -4.048  1.00  0.00     0.269 C 
HETATM   22  H   UNL     1      39.220 -13.708  -3.795  1.00  0.00     0.279 HD
HETATM   23  C   UNL     1      39.648 -15.554  -2.957  1.00  0.00     0.236 C 
HETATM   24  C   UNL     1      41.014 -15.074  -2.481  1.00  0.00     0.048 C 
HETATM   25  O   UNL     1      38.404 -13.975   1.249  1.00  0.00    -0.266 OA
ENDBRANCH  13  15
ENDBRANCH   1  10
BRANCH   8  26
HETATM   26  C   UNL     1      44.325 -14.677   7.274  1.00  0.00     0.183 C 
BRANCH  26  27
HETATM   27  N   UNL     1      43.875 -13.288   7.288  1.00  0.00    -0.371 N 
HETATM   28  H   UNL     1      43.876 -12.849   6.369  1.00  0.00     0.161 HD
BRANCH  27  29
HETATM   29  C   UNL     1      44.142 -12.409   8.320  1.00  0.00     0.101 A 
HETATM   30  N   UNL     1      43.175 -11.695   8.918  1.00  0.00    -0.353 N 
HETATM   31  H   UNL     1      42.206 -11.903   8.661  1.00  0.00     0.166 HD
HETATM   32  C   UNL     1      43.409 -10.790   9.878  1.00  0.00     0.089 A 
HETATM   33  C   UNL     1      44.705 -10.544  10.304  1.00  0.00     0.017 A 
HETATM   34  C   UNL     1      45.744 -11.259   9.727  1.00  0.00     0.005 A 
HETATM   35  C   UNL     1      45.463 -12.194   8.732  1.00  0.00     0.048 A 
ENDBRANCH  27  29
ENDBRANCH  26  27
ENDBRANCH   8  26
TORSDOF 5
ENDMDL
MODEL 4
REMARK VINA RESULT:      -9.0      4.439      9.555
REMARK  5 active torsions:
REMARK  status: ('A' for Active; 'I' for Inactive)
REMARK       I    between atoms: N_6  and  C_7 
REMARK    1  A    between atoms: C_7  and  C_8 
REMARK    2  A    between atoms: N_11  and  C_12 
REMARK    3  A    between atoms: C_19  and  C_20 
REMARK    4  A    between atoms: C_20  and  N_21 
REMARK    5  A    between atoms: N_21  and  C_22 
ROOT
HETATM    1  C   UNL     1      43.033 -17.840   3.147  1.00  0.00     0.719 A 
HETATM    2  N   UNL     1      43.450 -19.142   2.896  1.00  0.00    -0.154 N 
HETATM    3  C   UNL     1      44.079 -19.566   4.071  1.00  0.00     0.083 A 
HETATM    4  C   UNL     1      44.587 -20.896   4.123  1.00  0.00     0.033 A 
HETATM    5  C   UNL     1      44.494 -21.684   3.036  1.00  0.00     0.004 A 
HETATM    6  C   UNL     1      43.900 -21.203   1.805  1.00  0.00     0.018 A 
HETATM    7  C   UNL     1      43.398 -19.959   1.761  1.00  0.00     0.115 A 
HETATM    8  C   UNL     1      44.092 -18.483   4.920  1.00  0.00     0.099 A 
HETATM    9  N   UNL     1      43.432 -17.406   4.341  1.00  0.00    -0.064 NA
ENDROOT
BRANCH   1  10
HETATM   10  N   UNL     1      42.301 -17.014   2.284  1.00  0.00    -0.147 N 
HETATM   11  C   UNL     1      40.942 -17.122   2.071  1.00  0.00     0.233 A 
HETATM   12  N   UNL     1      40.475 -16.224   1.235  1.00  0.00    -0.236 NA
HETATM   13  C   UNL     1      41.569 -15.478   0.853  1.00  0.00     0.142 A 
HETATM   14  C   UNL     1      42.703 -15.990   1.462  1.00  0.00     0.153 A 
BRANCH  13  15
HETATM   15  C   UNL     1      41.566 -14.350  -0.094  1.00  0.00     0.273 C 
HETATM   16  N   UNL     1      41.402 -14.585  -1.470  1.00  0.00    -0.345 N 
HETATM   17  C   UNL     1      41.663 -13.458  -2.368  1.00  0.00     0.154 C 
HETATM   18  C   UNL     1      40.908 -15.839  -2.031  1.00  0.00     0.128 C 
HETATM   19  C   UNL     1      40.405 -12.613  -2.606  1.00  0.00     0.254 C 
HETATM   20  N   UNL     1      39.429 -13.280  -3.571  1.00  0.00    -0.073 N 
HETATM   21  C   UNL     1      38.242 -12.374  -3.813  1.00  0.00     0.269 C 
HETATM   22  H   UNL     1      39.906 -13.360  -4.480  1.00  0.00     0.279 HD
HETATM   23  C   UNL     1      38.968 -14.669  -3.176  1.00  0.00     0.236 C 
HETATM   24  C   UNL     1      40.094 -15.688  -3.315  1.00  0.00     0.048 C 
HETATM   25  O   UNL     1      41.681 -13.193   0.316  1.00  0.00    -0.266 OA
ENDBRANCH  13  15
ENDBRANCH   1  10
BRANCH   8  26
HETATM   26  C   UNL     1      44.708 -18.353   6.284  1.00  0.00     0.183 C 
BRANCH  26  27
HETATM   27  N   UNL     1      44.068 -17.438   7.224  1.00  0.00    -0.371 N 
HETATM   28  H   UNL     1      43.417 -17.895   7.860  1.00  0.00     0.161 HD
BRANCH  27  29
HETATM   29  C   UNL     1      43.711 -16.142   6.906  1.00  0.00     0.101 A 
HETATM   30  N   UNL     1      42.451 -15.806   6.583  1.00  0.00    -0.353 N 
HETATM   31  H   UNL     1      41.730 -16.526   6.687  1.00  0.00     0.166 HD
HETATM   32  C   UNL     1      42.086 -14.572   6.210  1.00  0.00     0.089 A 
HETATM   33  C   UNL     1      43.027 -13.558   6.137  1.00  0.00     0.017 A 
HETATM   34  C   UNL     1      44.344 -13.845   6.468  1.00  0.00     0.005 A 
HETATM   35  C   UNL     1      44.687 -15.139   6.854  1.00  0.00     0.048 A 
ENDBRANCH  27  29
ENDBRANCH  26  27
ENDBRANCH   8  26
TORSDOF 5
ENDMDL
MODEL 5
REMARK VINA RESULT:      -8.9      4.544      8.509
REMARK  5 active torsions:
REMARK  status: ('A' for Active; 'I' for Inactive)
REMARK       I    between atoms: N_6  and  C_7 
REMARK    1  A    between atoms: C_7  and  C_8 
REMARK    2  A    between atoms: N_11  and  C_12 
REMARK    3  A    between atoms: C_19  and  C_20 
REMARK    4  A    between atoms: C_20  and  N_21 
REMARK    5  A    between atoms: N_21  and  C_22 
ROOT
HETATM    1  C   UNL     1      42.269 -16.386   4.038  1.00  0.00     0.719 A 
HETATM    2  N   UNL     1      42.913 -15.539   4.933  1.00  0.00    -0.154 N 
HETATM    3  C   UNL     1      43.574 -16.379   5.833  1.00  0.00     0.083 A 
HETATM    4  C   UNL     1      44.359 -15.783   6.862  1.00  0.00     0.033 A 
HETATM    5  C   UNL     1      44.402 -14.442   6.970  1.00  0.00     0.004 A 
HETATM    6  C   UNL     1      43.654 -13.589   6.069  1.00  0.00     0.018 A 
HETATM    7  C   UNL     1      42.933 -14.147   5.083  1.00  0.00     0.115 A 
HETATM    8  C   UNL     1      43.223 -17.667   5.496  1.00  0.00     0.099 A 
HETATM    9  N   UNL     1      42.410 -17.668   4.370  1.00  0.00    -0.064 NA
ENDROOT
BRANCH   1  10
HETATM   10  N   UNL     1      41.521 -16.006   2.915  1.00  0.00    -0.147 N 
HETATM   11  C   UNL     1      40.194 -15.630   2.955  1.00  0.00     0.233 A 
HETATM   12  N   UNL     1      39.714 -15.298   1.780  1.00  0.00    -0.236 NA
HETATM   13  C   UNL     1      40.760 -15.466   0.898  1.00  0.00     0.142 A 
HETATM   14  C   UNL     1      41.862 -15.946   1.587  1.00  0.00     0.153 A 
BRANCH  13  15
HETATM   15  C   UNL     1      40.719 -15.235  -0.556  1.00  0.00     0.273 C 
HETATM   16  N   UNL     1      40.162 -14.049  -1.066  1.00  0.00    -0.345 N 
HETATM   17  C   UNL     1      39.924 -13.999  -2.510  1.00  0.00     0.154 C 
HETATM   18  C   UNL     1      39.900 -12.859  -0.263  1.00  0.00     0.128 C 
HETATM   19  C   UNL     1      41.146 -13.472  -3.274  1.00  0.00     0.254 C 
HETATM   20  N   UNL     1      41.300 -11.958  -3.150  1.00  0.00    -0.073 N 
HETATM   21  C   UNL     1      42.481 -11.492  -3.973  1.00  0.00     0.269 C 
HETATM   22  H   UNL     1      40.472 -11.530  -3.588  1.00  0.00     0.279 HD
HETATM   23  C   UNL     1      41.392 -11.425  -1.734  1.00  0.00     0.236 C 
HETATM   24  C   UNL     1      40.053 -11.535  -1.012  1.00  0.00     0.048 C 
HETATM   25  O   UNL     1      41.195 -16.066  -1.332  1.00  0.00    -0.266 OA
ENDBRANCH  13  15
ENDBRANCH   1  10
BRANCH   8  26
HETATM   26  C   UNL     1      43.584 -18.957   6.175  1.00  0.00     0.183 C 
BRANCH  26  27
HETATM   27  N   UNL     1      44.696 -19.720   5.617  1.00  0.00    -0.371 N 
HETATM   28  H   UNL     1      45.602 -19.270   5.738  1.00  0.00     0.161 HD
BRANCH  27  29
HETATM   29  C   UNL     1      44.604 -20.471   4.460  1.00  0.00     0.101 A 
HETATM   30  N   UNL     1      44.270 -19.926   3.279  1.00  0.00    -0.353 N 
HETATM   31  H   UNL     1      44.192 -18.906   3.235  1.00  0.00     0.166 HD
HETATM   32  C   UNL     1      44.113 -20.636   2.154  1.00  0.00     0.089 A 
HETATM   33  C   UNL     1      44.291 -22.010   2.165  1.00  0.00     0.017 A 
HETATM   34  C   UNL     1      44.645 -22.627   3.357  1.00  0.00     0.005 A 
HETATM   35  C   UNL     1      44.802 -21.856   4.507  1.00  0.00     0.048 A 
ENDBRANCH  27  29
ENDBRANCH  26  27
ENDBRANCH   8  26
TORSDOF 5
ENDMDL
MODEL 6
REMARK VINA RESULT:      -8.9      4.308      9.923
REMARK  5 active torsions:
REMARK  status: ('A' for Active; 'I' for Inactive)
REMARK       I    between atoms: N_6  and  C_7 
REMARK    1  A    between atoms: C_7  and  C_8 
REMARK    2  A    between atoms: N_11  and  C_12 
REMARK    3  A    between atoms: C_19  and  C_20 
REMARK    4  A    between atoms: C_20  and  N_21 
REMARK    5  A    between atoms: N_21  and  C_22 
ROOT
HETATM    1  C   UNL     1      42.830 -15.808   4.209  1.00  0.00     0.719 A 
HETATM    2  N   UNL     1      43.346 -16.950   4.809  1.00  0.00    -0.154 N 
HETATM    3  C   UNL     1      44.074 -16.496   5.913  1.00  0.00     0.083 A 
HETATM    4  C   UNL     1      44.699 -17.461   6.753  1.00  0.00     0.033 A 
HETATM    5  C   UNL     1      44.617 -18.767   6.438  1.00  0.00     0.004 A 
HETATM    6  C   UNL     1      43.916 -19.213   5.251  1.00  0.00     0.018 A 
HETATM    7  C   UNL     1      43.303 -18.308   4.471  1.00  0.00     0.115 A 
HETATM    8  C   UNL     1      44.037 -15.121   5.866  1.00  0.00     0.099 A 
HETATM    9  N   UNL     1      43.254 -14.694   4.802  1.00  0.00    -0.064 NA
ENDROOT
BRANCH   1  10
HETATM   10  N   UNL     1      41.980 -15.757   3.095  1.00  0.00    -0.147 N 
HETATM   11  C   UNL     1      40.621 -15.988   3.143  1.00  0.00     0.233 A 
HETATM   12  N   UNL     1      40.033 -15.864   1.976  1.00  0.00    -0.236 NA
HETATM   13  C   UNL     1      41.040 -15.545   1.092  1.00  0.00     0.142 A 
HETATM   14  C   UNL     1      42.249 -15.522   1.769  1.00  0.00     0.153 A 
BRANCH  13  15
HETATM   15  C   UNL     1      40.890 -15.316  -0.356  1.00  0.00     0.273 C 
HETATM   16  N   UNL     1      40.296 -14.131  -0.824  1.00  0.00    -0.345 N 
HETATM   17  C   UNL     1      39.949 -14.084  -2.246  1.00  0.00     0.154 C 
HETATM   18  C   UNL     1      40.096 -12.939  -0.006  1.00  0.00     0.128 C 
HETATM   19  C   UNL     1      41.110 -13.558  -3.101  1.00  0.00     0.254 C 
HETATM   20  N   UNL     1      41.272 -12.044  -2.992  1.00  0.00    -0.073 N 
HETATM   21  C   UNL     1      42.388 -11.580  -3.903  1.00  0.00     0.269 C 
HETATM   22  H   UNL     1      40.414 -11.618  -3.367  1.00  0.00     0.279 HD
HETATM   23  C   UNL     1      41.472 -11.509  -1.588  1.00  0.00     0.236 C 
HETATM   24  C   UNL     1      40.191 -11.618  -0.767  1.00  0.00     0.048 C 
HETATM   25  O   UNL     1      41.306 -16.149  -1.163  1.00  0.00    -0.266 OA
ENDBRANCH  13  15
ENDBRANCH   1  10
BRANCH   8  26
HETATM   26  C   UNL     1      44.714 -14.122   6.761  1.00  0.00     0.183 C 
BRANCH  26  27
HETATM   27  N   UNL     1      44.104 -13.866   8.062  1.00  0.00    -0.371 N 
HETATM   28  H   UNL     1      43.090 -13.964   8.065  1.00  0.00     0.161 HD
BRANCH  27  29
HETATM   29  C   UNL     1      44.569 -12.915   8.950  1.00  0.00     0.101 A 
HETATM   30  N   UNL     1      43.995 -12.713  10.147  1.00  0.00    -0.353 N 
HETATM   31  H   UNL     1      43.261 -13.367  10.435  1.00  0.00     0.166 HD
HETATM   32  C   UNL     1      44.383 -11.758  11.003  1.00  0.00     0.089 A 
HETATM   33  C   UNL     1      45.427 -10.909  10.675  1.00  0.00     0.017 A 
HETATM   34  C   UNL     1      46.063 -11.076   9.453  1.00  0.00     0.005 A 
HETATM   35  C   UNL     1      45.634 -12.081   8.589  1.00  0.00     0.048 A 
ENDBRANCH  27  29
ENDBRANCH  26  27
ENDBRANCH   8  26
TORSDOF 5
ENDMDL
MODEL 7
REMARK VINA RESULT:      -8.8      2.280      4.618
REMARK  5 active torsions:
REMARK  status: ('A' for Active; 'I' for Inactive)
REMARK       I    between atoms: N_6  and  C_7 
REMARK    1  A    between atoms: C_7  and  C_8 
REMARK    2  A    between atoms: N_11  and  C_12 
REMARK    3  A    between atoms: C_19  and  C_20 
REMARK    4  A    between atoms: C_20  and  N_21 
REMARK    5  A    between atoms: N_21  and  C_22 
ROOT
HETATM    1  C   UNL     1      43.869 -15.210   5.850  1.00  0.00     0.719 A 
HETATM    2  N   UNL     1      44.072 -16.583   5.780  1.00  0.00    -0.154 N 
HETATM    3  C   UNL     1      43.346 -17.012   4.665  1.00  0.00     0.083 A 
HETATM    4  C   UNL     1      43.393 -18.392   4.318  1.00  0.00     0.033 A 
HETATM    5  C   UNL     1      44.085 -19.247   5.094  1.00  0.00     0.004 A 
HETATM    6  C   UNL     1      44.775 -18.795   6.285  1.00  0.00     0.018 A 
HETATM    7  C   UNL     1      44.753 -17.490   6.600  1.00  0.00     0.115 A 
HETATM    8  C   UNL     1      42.678 -15.907   4.185  1.00  0.00     0.099 A 
HETATM    9  N   UNL     1      43.012 -14.781   4.926  1.00  0.00    -0.064 NA
ENDROOT
BRANCH   1  10
HETATM   10  N   UNL     1      44.443 -14.324   6.772  1.00  0.00    -0.147 N 
HETATM   11  C   UNL     1      45.651 -13.683   6.586  1.00  0.00     0.233 A 
HETATM   12  N   UNL     1      45.972 -12.886   7.578  1.00  0.00    -0.236 NA
HETATM   13  C   UNL     1      44.941 -12.997   8.485  1.00  0.00     0.142 A 
HETATM   14  C   UNL     1      44.018 -13.917   8.013  1.00  0.00     0.153 A 
BRANCH  13  15
HETATM   15  C   UNL     1      44.841 -12.304   9.781  1.00  0.00     0.273 C 
HETATM   16  N   UNL     1      44.013 -11.176   9.915  1.00  0.00    -0.345 N 
HETATM   17  C   UNL     1      44.157 -10.394  11.145  1.00  0.00     0.154 C 
HETATM   18  C   UNL     1      42.976 -10.806   8.957  1.00  0.00     0.128 C 
HETATM   19  C   UNL     1      43.237 -10.907  12.261  1.00  0.00     0.254 C 
HETATM   20  N   UNL     1      41.783 -10.490  12.053  1.00  0.00    -0.073 N 
HETATM   21  C   UNL     1      40.939 -10.970  13.213  1.00  0.00     0.269 C 
HETATM   22  H   UNL     1      41.752  -9.462  12.095  1.00  0.00     0.279 HD
HETATM   23  C   UNL     1      41.166 -10.912  10.734  1.00  0.00     0.236 C 
HETATM   24  C   UNL     1      41.754 -10.122   9.570  1.00  0.00     0.048 C 
HETATM   25  O   UNL     1      45.462 -12.724  10.760  1.00  0.00    -0.266 OA
ENDBRANCH  13  15
ENDBRANCH   1  10
BRANCH   8  26
HETATM   26  C   UNL     1      41.698 -15.809   3.051  1.00  0.00     0.183 C 
BRANCH  26  27
HETATM   27  N   UNL     1      40.299 -15.572   3.393  1.00  0.00    -0.371 N 
HETATM   28  H   UNL     1      39.825 -16.391   3.768  1.00  0.00     0.161 HD
BRANCH  27  29
HETATM   29  C   UNL     1      39.468 -14.736   2.671  1.00  0.00     0.101 A 
HETATM   30  N   UNL     1      38.617 -15.203   1.742  1.00  0.00    -0.353 N 
HETATM   31  H   UNL     1      38.520 -16.218   1.658  1.00  0.00     0.166 HD
HETATM   32  C   UNL     1      37.844 -14.414   0.984  1.00  0.00     0.089 A 
HETATM   33  C   UNL     1      37.896 -13.037   1.130  1.00  0.00     0.017 A 
HETATM   34  C   UNL     1      38.751 -12.499   2.081  1.00  0.00     0.005 A 
HETATM   35  C   UNL     1      39.539 -13.350   2.853  1.00  0.00     0.048 A 
ENDBRANCH  27  29
ENDBRANCH  26  27
ENDBRANCH   8  26
TORSDOF 5
ENDMDL
MODEL 8
REMARK VINA RESULT:      -8.7      5.890      9.845
REMARK  5 active torsions:
REMARK  status: ('A' for Active; 'I' for Inactive)
REMARK       I    between atoms: N_6  and  C_7 
REMARK    1  A    between atoms: C_7  and  C_8 
REMARK    2  A    between atoms: N_11  and  C_12 
REMARK    3  A    between atoms: C_19  and  C_20 
REMARK    4  A    between atoms: C_20  and  N_21 
REMARK    5  A    between atoms: N_21  and  C_22 
ROOT
HETATM    1  C   UNL     1      41.251 -15.692   2.102  1.00  0.00     0.719 A 
HETATM    2  N   UNL     1      41.474 -15.691   3.474  1.00  0.00    -0.154 N 
HETATM    3  C   UNL     1      42.645 -16.431   3.663  1.00  0.00     0.083 A 
HETATM    4  C   UNL     1      43.147 -16.575   4.988  1.00  0.00     0.033 A 
HETATM    5  C   UNL     1      42.461 -16.045   6.017  1.00  0.00     0.004 A 
HETATM    6  C   UNL     1      41.212 -15.341   5.809  1.00  0.00     0.018 A 
HETATM    7  C   UNL     1      40.750 -15.181   4.558  1.00  0.00     0.115 A 
HETATM    8  C   UNL     1      43.009 -16.910   2.424  1.00  0.00     0.099 A 
HETATM    9  N   UNL     1      42.137 -16.442   1.450  1.00  0.00    -0.064 NA
ENDROOT
BRANCH   1  10
HETATM   10  N   UNL     1      40.222 -15.028   1.420  1.00  0.00    -0.147 N 
HETATM   11  C   UNL     1      38.889 -15.090   1.771  1.00  0.00     0.233 A 
HETATM   12  N   UNL     1      38.115 -14.368   0.996  1.00  0.00    -0.236 NA
HETATM   13  C   UNL     1      38.958 -13.797   0.068  1.00  0.00     0.142 A 
HETATM   14  C   UNL     1      40.252 -14.237   0.298  1.00  0.00     0.153 A 
BRANCH  13  15
HETATM   15  C   UNL     1      38.563 -12.905  -1.036  1.00  0.00     0.273 C 
HETATM   16  N   UNL     1      38.665 -13.345  -2.368  1.00  0.00    -0.345 N 
HETATM   17  C   UNL     1      38.500 -12.331  -3.411  1.00  0.00     0.154 C 
HETATM   18  C   UNL     1      38.830 -14.742  -2.756  1.00  0.00     0.128 C 
HETATM   19  C   UNL     1      37.032 -12.170  -3.827  1.00  0.00     0.254 C 
HETATM   20  N   UNL     1      36.554 -13.308  -4.725  1.00  0.00    -0.073 N 
HETATM   21  C   UNL     1      35.123 -13.062  -5.151  1.00  0.00     0.269 C 
HETATM   22  H   UNL     1      37.111 -13.270  -5.590  1.00  0.00     0.279 HD
HETATM   23  C   UNL     1      36.706 -14.702  -4.147  1.00  0.00     0.236 C 
HETATM   24  C   UNL     1      38.172 -15.118  -4.083  1.00  0.00     0.048 C 
HETATM   25  O   UNL     1      38.118 -11.781  -0.798  1.00  0.00    -0.266 OA
ENDBRANCH  13  15
ENDBRANCH   1  10
BRANCH   8  26
HETATM   26  C   UNL     1      44.143 -17.823   2.055  1.00  0.00     0.183 C 
BRANCH  26  27
HETATM   27  N   UNL     1      43.836 -19.240   1.888  1.00  0.00    -0.371 N 
HETATM   28  H   UNL     1      42.968 -19.414   1.385  1.00  0.00     0.161 HD
BRANCH  27  29
HETATM   29  C   UNL     1      44.126 -20.202   2.838  1.00  0.00     0.101 A 
HETATM   30  N   UNL     1      44.358 -19.890   4.123  1.00  0.00    -0.353 N 
HETATM   31  H   UNL     1      44.205 -18.918   4.408  1.00  0.00     0.166 HD
HETATM   32  C   UNL     1      44.701 -20.791   5.053  1.00  0.00     0.089 A 
HETATM   33  C   UNL     1      44.838 -22.127   4.714  1.00  0.00     0.017 A 
HETATM   34  C   UNL     1      44.603 -22.509   3.401  1.00  0.00     0.005 A 
HETATM   35  C   UNL     1      44.245 -21.544   2.460  1.00  0.00     0.048 A 
ENDBRANCH  27  29
ENDBRANCH  26  27
ENDBRANCH   8  26
TORSDOF 5
ENDMDL
MODEL 9
REMARK VINA RESULT:      -8.7      2.646      3.348
REMARK  5 active torsions:
REMARK  status: ('A' for Active; 'I' for Inactive)
REMARK       I    between atoms: N_6  and  C_7 
REMARK    1  A    between atoms: C_7  and  C_8 
REMARK    2  A    between atoms: N_11  and  C_12 
REMARK    3  A    between atoms: C_19  and  C_20 
REMARK    4  A    between atoms: C_20  and  N_21 
REMARK    5  A    between atoms: N_21  and  C_22 
ROOT
HETATM    1  C   UNL     1      40.951 -14.297   5.230  1.00  0.00     0.719 A 
HETATM    2  N   UNL     1      40.490 -14.647   3.966  1.00  0.00    -0.154 N 
HETATM    3  C   UNL     1      41.006 -15.923   3.721  1.00  0.00     0.083 A 
HETATM    4  C   UNL     1      40.669 -16.564   2.494  1.00  0.00     0.033 A 
HETATM    5  C   UNL     1      39.913 -15.911   1.592  1.00  0.00     0.004 A 
HETATM    6  C   UNL     1      39.445 -14.562   1.835  1.00  0.00     0.018 A 
HETATM    7  C   UNL     1      39.740 -13.965   3.002  1.00  0.00     0.115 A 
HETATM    8  C   UNL     1      41.815 -16.231   4.792  1.00  0.00     0.099 A 
HETATM    9  N   UNL     1      41.773 -15.213   5.737  1.00  0.00    -0.064 NA
ENDROOT
BRANCH   1  10
HETATM   10  N   UNL     1      40.648 -13.125   5.938  1.00  0.00    -0.147 N 
HETATM   11  C   UNL     1      39.392 -12.557   6.000  1.00  0.00     0.233 A 
HETATM   12  N   UNL     1      39.350 -11.474   6.740  1.00  0.00    -0.236 NA
HETATM   13  C   UNL     1      40.639 -11.291   7.193  1.00  0.00     0.142 A 
HETATM   14  C   UNL     1      41.451 -12.281   6.664  1.00  0.00     0.153 A 
BRANCH  13  15
HETATM   15  C   UNL     1      41.112 -10.194   8.054  1.00  0.00     0.273 C 
HETATM   16  N   UNL     1      40.624 -10.068   9.368  1.00  0.00    -0.345 N 
HETATM   17  C   UNL     1      40.939  -8.823  10.072  1.00  0.00     0.154 C 
HETATM   18  C   UNL     1      39.918 -11.127  10.081  1.00  0.00     0.128 C 
HETATM   19  C   UNL     1      42.270  -8.914  10.829  1.00  0.00     0.254 C 
HETATM   20  N   UNL     1      42.152  -9.725  12.117  1.00  0.00    -0.073 N 
HETATM   21  C   UNL     1      43.477  -9.726  12.847  1.00  0.00     0.269 C 
HETATM   22  H   UNL     1      41.497  -9.225  12.733  1.00  0.00     0.279 HD
HETATM   23  C   UNL     1      41.633 -11.140  11.951  1.00  0.00     0.236 C 
HETATM   24  C   UNL     1      40.152 -11.148  11.591  1.00  0.00     0.048 C 
HETATM   25  O   UNL     1      41.955  -9.397   7.639  1.00  0.00    -0.266 OA
ENDBRANCH  13  15
ENDBRANCH   1  10
BRANCH   8  26
HETATM   26  C   UNL     1      42.675 -17.442   5.015  1.00  0.00     0.183 C 
BRANCH  26  27
HETATM   27  N   UNL     1      43.614 -17.801   3.957  1.00  0.00    -0.371 N 
HETATM   28  H   UNL     1      43.669 -17.113   3.208  1.00  0.00     0.161 HD
BRANCH  27  29
HETATM   29  C   UNL     1      43.824 -19.099   3.531  1.00  0.00     0.101 A 
HETATM   30  N   UNL     1      44.548 -19.977   4.244  1.00  0.00    -0.353 N 
HETATM   31  H   UNL     1      44.853 -19.689   5.178  1.00  0.00     0.166 HD
HETATM   32  C   UNL     1      44.821 -21.221   3.829  1.00  0.00     0.089 A 
HETATM   33  C   UNL     1      44.355 -21.666   2.602  1.00  0.00     0.017 A 
HETATM   34  C   UNL     1      43.594 -20.804   1.826  1.00  0.00     0.005 A 
HETATM   35  C   UNL     1      43.328 -19.517   2.291  1.00  0.00     0.048 A 
ENDBRANCH  27  29
ENDBRANCH  26  27
ENDBRANCH   8  26
TORSDOF 5
ENDMDL
MODEL 10
REMARK VINA RESULT:      -8.5      3.415      9.533
REMARK  5 active torsions:
REMARK  status: ('A' for Active; 'I' for Inactive)
REMARK       I    between atoms: N_6  and  C_7 
REMARK    1  A    between atoms: C_7  and  C_8 
REMARK    2  A    between atoms: N_11  and  C_12 
REMARK    3  A    between atoms: C_19  and  C_20 
REMARK    4  A    between atoms: C_20  and  N_21 
REMARK    5  A    between atoms: N_21  and  C_22 
ROOT
HETATM    1  C   UNL     1      40.787 -13.131   5.375  1.00  0.00     0.719 A 
HETATM    2  N   UNL     1      39.989 -12.258   4.645  1.00  0.00    -0.154 N 
HETATM    3  C   UNL     1      40.086 -11.027   5.299  1.00  0.00     0.083 A 
HETATM    4  C   UNL     1      39.389  -9.913   4.750  1.00  0.00     0.033 A 
HETATM    5  C   UNL     1      38.622 -10.084   3.658  1.00  0.00     0.004 A 
HETATM    6  C   UNL     1      38.479 -11.384   3.033  1.00  0.00     0.018 A 
HETATM    7  C   UNL     1      39.156 -12.431   3.533  1.00  0.00     0.115 A 
HETATM    8  C   UNL     1      40.850 -11.242   6.425  1.00  0.00     0.099 A 
HETATM    9  N   UNL     1      41.291 -12.558   6.466  1.00  0.00    -0.064 NA
ENDROOT
BRANCH   1  10
HETATM   10  N   UNL     1      41.055 -14.473   5.073  1.00  0.00    -0.147 N 
HETATM   11  C   UNL     1      40.573 -15.544   5.798  1.00  0.00     0.233 A 
HETATM   12  N   UNL     1      40.941 -16.707   5.310  1.00  0.00    -0.236 NA
HETATM   13  C   UNL     1      41.717 -16.413   4.210  1.00  0.00     0.142 A 
HETATM   14  C   UNL     1      41.827 -15.037   4.087  1.00  0.00     0.153 A 
BRANCH  13  15
HETATM   15  C   UNL     1      42.381 -17.386   3.327  1.00  0.00     0.273 C 
HETATM   16  N   UNL     1      43.653 -17.885   3.658  1.00  0.00    -0.345 N 
HETATM   17  C   UNL     1      44.355 -18.643   2.620  1.00  0.00     0.154 C 
HETATM   18  C   UNL     1      44.257 -17.767   4.981  1.00  0.00     0.128 C 
HETATM   19  C   UNL     1      44.017 -20.139   2.677  1.00  0.00     0.254 C 
HETATM   20  N   UNL     1      44.734 -20.854   3.819  1.00  0.00    -0.073 N 
HETATM   21  C   UNL     1      44.411 -22.332   3.784  1.00  0.00     0.269 C 
HETATM   22  H   UNL     1      45.744 -20.788   3.634  1.00  0.00     0.279 HD
HETATM   23  C   UNL     1      44.486 -20.286   5.202  1.00  0.00     0.236 C 
HETATM   24  C   UNL     1      45.165 -18.932   5.375  1.00  0.00     0.048 C 
HETATM   25  O   UNL     1      41.815 -17.789   2.309  1.00  0.00    -0.266 OA
ENDBRANCH  13  15
ENDBRANCH   1  10
BRANCH   8  26
HETATM   26  C   UNL     1      41.208 -10.285   7.526  1.00  0.00     0.183 C 
BRANCH  26  27
HETATM   27  N   UNL     1      41.557 -10.855   8.823  1.00  0.00    -0.371 N 
HETATM   28  H   UNL     1      40.912 -10.600   9.569  1.00  0.00     0.161 HD
BRANCH  27  29
HETATM   29  C   UNL     1      42.858 -11.030   9.256  1.00  0.00     0.101 A 
HETATM   30  N   UNL     1      43.714 -11.853   8.630  1.00  0.00    -0.353 N 
HETATM   31  H   UNL     1      43.408 -12.271   7.746  1.00  0.00     0.166 HD
HETATM   32  C   UNL     1      44.961 -12.091   9.060  1.00  0.00     0.089 A 
HETATM   33  C   UNL     1      45.431 -11.479  10.210  1.00  0.00     0.017 A 
HETATM   34  C   UNL     1      44.592 -10.611  10.894  1.00  0.00     0.005 A 
HETATM   35  C   UNL     1      43.302 -10.386  10.416  1.00  0.00     0.048 A 
ENDBRANCH  27  29
ENDBRANCH  26  27
ENDBRANCH   8  26
TORSDOF 5
ENDMDL
