MODEL 1
REMARK VINA RESULT:      -8.8      0.000      0.000
REMARK  8 active torsions:
REMARK  status: ('A' for Active; 'I' for Inactive)
REMARK    1  A    between atoms: C_2  and  C_3 
REMARK    2  A    between atoms: C_7  and  C_8 
REMARK       I    between atoms: C_8  and  N_9 
REMARK    3  A    between atoms: N_9  and  C_10 
REMARK    4  A    between atoms: C_10  and  C_11 
REMARK    5  A    between atoms: C_11  and  O_12 
REMARK    6  A    between atoms: C_11  and  C_13 
REMARK    7  A    between atoms: C_13  and  O_14 
REMARK    8  A    between atoms: O_14  and  C_15 
ROOT
HETATM    1  C   UNL     1      43.506 -13.948   6.530  1.00  0.00     0.269 C 
HETATM    2  N   UNL     1      44.209 -13.576   7.651  1.00  0.00    -0.353 N 
HETATM    3  O   UNL     1      42.747 -13.183   5.946  1.00  0.00    -0.266 OA
HETATM    4  H   UNL     1      44.823 -14.238   8.102  1.00  0.00     0.162 HD
ENDROOT
BRANCH   1   5
HETATM    5  C   UNL     1      43.694 -15.312   6.117  1.00  0.00     0.120 A 
HETATM    6  N   UNL     1      44.138 -16.270   6.985  1.00  0.00    -0.272 N 
HETATM    7  N   UNL     1      44.302 -17.481   6.434  1.00  0.00    -0.174 NA
HETATM    8  H   UNL     1      44.363 -16.143   7.968  1.00  0.00     0.189 HD
HETATM    9  C   UNL     1      43.906 -17.331   5.162  1.00  0.00     0.089 A 
HETATM   10  C   UNL     1      43.521 -15.981   4.922  1.00  0.00     0.071 A 
BRANCH   9  11
HETATM   11  C   UNL     1      43.911 -18.449   4.215  1.00  0.00    -0.005 A 
HETATM   12  C   UNL     1      43.188 -18.384   3.013  1.00  0.00     0.017 A 
HETATM   13  C   UNL     1      43.206 -19.455   2.115  1.00  0.00     0.043 A 
HETATM   14  C   UNL     1      43.947 -20.591   2.413  1.00  0.00     0.116 A 
HETATM   15  C   UNL     1      44.669 -20.681   3.597  1.00  0.00     0.043 A 
HETATM   16  F   UNL     1      43.964 -21.615   1.550  1.00  0.00    -0.206 F 
HETATM   17  C   UNL     1      44.648 -19.612   4.498  1.00  0.00     0.017 A 
ENDBRANCH   9  11
ENDBRANCH   1   5
BRANCH   2  18
HETATM   18  C   UNL     1      44.153 -12.225   8.197  1.00  0.00     0.156 C 
BRANCH  18  19
HETATM   19  C   UNL     1      45.145 -12.011   9.353  1.00  0.00     0.159 C 
BRANCH  19  20
HETATM   20  O   UNL     1      45.825 -10.759   9.180  1.00  0.00    -0.392 OA
HETATM   21  H   UNL     1      46.591 -10.952   8.608  1.00  0.00     0.210 HD
ENDBRANCH  19  20
BRANCH  19  22
HETATM   22  C   UNL     1      44.431 -11.993  10.710  1.00  0.00     0.201 C 
BRANCH  22  23
HETATM   23  O   UNL     1      43.050 -11.646  10.652  1.00  0.00    -0.383 OA
BRANCH  23  24
HETATM   24  C   UNL     1      42.573 -10.738  11.651  1.00  0.00     0.121 C 
HETATM   25  C   UNL     1      43.815 -10.263  12.418  1.00  0.00     0.032 C 
HETATM   26  C   UNL     1      43.465  -9.360  13.593  1.00  0.00     0.002 C 
HETATM   27  C   UNL     1      42.468 -10.029  14.533  1.00  0.00     0.000 C 
HETATM   28  C   UNL     1      41.220 -10.485  13.784  1.00  0.00     0.002 C 
HETATM   29  C   UNL     1      41.567 -11.391  12.605  1.00  0.00     0.032 C 
ENDBRANCH  23  24
ENDBRANCH  22  23
ENDBRANCH  19  22
ENDBRANCH  18  19
ENDBRANCH   2  18
TORSDOF 8
ENDMDL
MODEL 2
REMARK VINA RESULT:      -8.6      4.185     11.147
REMARK  8 active torsions:
REMARK  status: ('A' for Active; 'I' for Inactive)
REMARK    1  A    between atoms: C_2  and  C_3 
REMARK    2  A    between atoms: C_7  and  C_8 
REMARK       I    between atoms: C_8  and  N_9 
REMARK    3  A    between atoms: N_9  and  C_10 
REMARK    4  A    between atoms: C_10  and  C_11 
REMARK    5  A    between atoms: C_11  and  O_12 
REMARK    6  A    between atoms: C_11  and  C_13 
REMARK    7  A    between atoms: C_13  and  O_14 
REMARK    8  A    between atoms: O_14  and  C_15 
ROOT
HETATM    1  C   UNL     1      44.850 -12.858   8.385  1.00  0.00     0.269 C 
HETATM    2  N   UNL     1      44.131 -13.820   7.717  1.00  0.00    -0.353 N 
HETATM    3  O   UNL     1      46.051 -12.690   8.204  1.00  0.00    -0.266 OA
HETATM    4  H   UNL     1      43.143 -13.924   7.897  1.00  0.00     0.162 HD
ENDROOT
BRANCH   1   5
HETATM    5  C   UNL     1      44.101 -12.089   9.341  1.00  0.00     0.120 A 
HETATM    6  N   UNL     1      43.028 -11.328   8.966  1.00  0.00    -0.272 N 
HETATM    7  N   UNL     1      42.464 -10.639   9.968  1.00  0.00    -0.174 NA
HETATM    8  H   UNL     1      42.649 -11.230   8.028  1.00  0.00     0.189 HD
HETATM    9  C   UNL     1      43.160 -10.994  11.058  1.00  0.00     0.089 A 
HETATM   10  C   UNL     1      44.200 -11.900  10.705  1.00  0.00     0.071 A 
BRANCH   9  11
HETATM   11  C   UNL     1      42.836 -10.466  12.387  1.00  0.00    -0.005 A 
HETATM   12  C   UNL     1      41.704 -10.913  13.086  1.00  0.00     0.017 A 
HETATM   13  C   UNL     1      41.408 -10.406  14.355  1.00  0.00     0.043 A 
HETATM   14  C   UNL     1      42.243  -9.455  14.928  1.00  0.00     0.116 A 
HETATM   15  C   UNL     1      43.368  -8.996  14.255  1.00  0.00     0.043 A 
HETATM   16  F   UNL     1      41.959  -8.973  16.144  1.00  0.00    -0.206 F 
HETATM   17  C   UNL     1      43.662  -9.498  12.984  1.00  0.00     0.017 A 
ENDBRANCH   9  11
ENDBRANCH   1   5
BRANCH   2  18
HETATM   18  C   UNL     1      44.727 -14.676   6.698  1.00  0.00     0.156 C 
BRANCH  18  19
HETATM   19  C   UNL     1      44.241 -16.133   6.790  1.00  0.00     0.159 C 
BRANCH  19  20
HETATM   20  O   UNL     1      43.303 -16.261   7.869  1.00  0.00    -0.392 OA
HETATM   21  H   UNL     1      42.433 -16.386   7.448  1.00  0.00     0.210 HD
ENDBRANCH  19  20
BRANCH  19  22
HETATM   22  C   UNL     1      43.555 -16.579   5.493  1.00  0.00     0.201 C 
BRANCH  22  23
HETATM   23  O   UNL     1      43.453 -17.991   5.329  1.00  0.00    -0.383 OA
BRANCH  23  24
HETATM   24  C   UNL     1      43.975 -18.535   4.111  1.00  0.00     0.121 C 
HETATM   25  C   UNL     1      42.816 -18.509   3.106  1.00  0.00     0.032 C 
HETATM   26  C   UNL     1      43.182 -19.155   1.776  1.00  0.00     0.002 C 
HETATM   27  C   UNL     1      43.700 -20.575   1.971  1.00  0.00     0.000 C 
HETATM   28  C   UNL     1      44.867 -20.611   2.952  1.00  0.00     0.002 C 
HETATM   29  C   UNL     1      44.504 -19.963   4.287  1.00  0.00     0.032 C 
ENDBRANCH  23  24
ENDBRANCH  22  23
ENDBRANCH  19  22
ENDBRANCH  18  19
ENDBRANCH   2  18
TORSDOF 8
ENDMDL
MODEL 3
REMARK VINA RESULT:      -8.5      5.846      6.918
REMARK  8 active torsions:
REMARK  status: ('A' for Active; 'I' for Inactive)
REMARK    1  A    between atoms: C_2  and  C_3 
REMARK    2  A    between atoms: C_7  and  C_8 
REMARK       I    between atoms: C_8  and  N_9 
REMARK    3  A    between atoms: N_9  and  C_10 
REMARK    4  A    between atoms: C_10  and  C_11 
REMARK    5  A    between atoms: C_11  and  O_12 
REMARK    6  A    between atoms: C_11  and  C_13 
REMARK    7  A    between atoms: C_13  and  O_14 
REMARK    8  A    between atoms: O_14  and  C_15 
ROOT
HETATM    1  C   UNL     1      40.994 -15.728   0.898  1.00  0.00     0.269 C 
HETATM    2  N   UNL     1      40.022 -15.545   1.852  1.00  0.00    -0.353 N 
HETATM    3  O   UNL     1      41.029 -15.074  -0.138  1.00  0.00    -0.266 OA
HETATM    4  H   UNL     1      40.030 -16.106   2.691  1.00  0.00     0.162 HD
ENDROOT
BRANCH   1   5
HETATM    5  C   UNL     1      41.943 -16.768   1.185  1.00  0.00     0.120 A 
HETATM    6  N   UNL     1      43.074 -16.934   0.435  1.00  0.00    -0.272 N 
HETATM    7  N   UNL     1      43.833 -17.976   0.805  1.00  0.00    -0.174 NA
HETATM    8  H   UNL     1      43.367 -16.370  -0.358  1.00  0.00     0.189 HD
HETATM    9  C   UNL     1      43.205 -18.491   1.872  1.00  0.00     0.089 A 
HETATM   10  C   UNL     1      42.011 -17.764   2.139  1.00  0.00     0.071 A 
BRANCH   9  11
HETATM   11  C   UNL     1      43.737 -19.650   2.595  1.00  0.00    -0.005 A 
HETATM   12  C   UNL     1      43.786 -20.917   1.993  1.00  0.00     0.017 A 
HETATM   13  C   UNL     1      44.301 -22.014   2.690  1.00  0.00     0.043 A 
HETATM   14  C   UNL     1      44.769 -21.847   3.988  1.00  0.00     0.116 A 
HETATM   15  C   UNL     1      44.727 -20.605   4.606  1.00  0.00     0.043 A 
HETATM   16  F   UNL     1      45.263 -22.899   4.652  1.00  0.00    -0.206 F 
HETATM   17  C   UNL     1      44.208 -19.508   3.911  1.00  0.00     0.017 A 
ENDBRANCH   9  11
ENDBRANCH   1   5
BRANCH   2  18
HETATM   18  C   UNL     1      38.992 -14.519   1.734  1.00  0.00     0.156 C 
BRANCH  18  19
HETATM   19  C   UNL     1      39.440 -13.162   2.303  1.00  0.00     0.159 C 
BRANCH  19  20
HETATM   20  O   UNL     1      38.330 -12.252   2.310  1.00  0.00    -0.392 OA
HETATM   21  H   UNL     1      38.643 -11.459   2.782  1.00  0.00     0.210 HD
ENDBRANCH  19  20
BRANCH  19  22
HETATM   22  C   UNL     1      39.966 -13.300   3.737  1.00  0.00     0.201 C 
BRANCH  22  23
HETATM   23  O   UNL     1      41.318 -13.738   3.836  1.00  0.00    -0.383 OA
BRANCH  23  24
HETATM   24  C   UNL     1      41.648 -14.552   4.968  1.00  0.00     0.121 C 
HETATM   25  C   UNL     1      42.963 -15.257   4.613  1.00  0.00     0.032 C 
HETATM   26  C   UNL     1      43.402 -16.248   5.682  1.00  0.00     0.002 C 
HETATM   27  C   UNL     1      42.305 -17.263   5.983  1.00  0.00     0.000 C 
HETATM   28  C   UNL     1      40.998 -16.574   6.359  1.00  0.00     0.002 C 
HETATM   29  C   UNL     1      40.556 -15.579   5.289  1.00  0.00     0.032 C 
ENDBRANCH  23  24
ENDBRANCH  22  23
ENDBRANCH  19  22
ENDBRANCH  18  19
ENDBRANCH   2  18
TORSDOF 8
ENDMDL
MODEL 4
REMARK VINA RESULT:      -8.4      2.781      3.463
REMARK  8 active torsions:
REMARK  status: ('A' for Active; 'I' for Inactive)
REMARK    1  A    between atoms: C_2  and  C_3 
REMARK    2  A    between atoms: C_7  and  C_8 
REMARK       I    between atoms: C_8  and  N_9 
REMARK    3  A    between atoms: N_9  and  C_10 
REMARK    4  A    between atoms: C_10  and  C_11 
REMARK    5  A    between atoms: C_11  and  O_12 
REMARK    6  A    between atoms: C_11  and  C_13 
REMARK    7  A    between atoms: C_13  and  O_14 
REMARK    8  A    between atoms: O_14  and  C_15 
ROOT
HETATM    1  C   UNL     1      39.687 -12.873   6.077  1.00  0.00     0.269 C 
HETATM    2  N   UNL     1      40.347 -12.275   7.124  1.00  0.00    -0.353 N 
HETATM    3  O   UNL     1      38.717 -12.359   5.531  1.00  0.00    -0.266 OA
HETATM    4  H   UNL     1      41.141 -12.733   7.545  1.00  0.00     0.162 HD
ENDROOT
BRANCH   1   5
HETATM    5  C   UNL     1      40.192 -14.163   5.695  1.00  0.00     0.120 A 
HETATM    6  N   UNL     1      40.150 -15.231   6.548  1.00  0.00    -0.272 N 
HETATM    7  N   UNL     1      40.700 -16.351   6.057  1.00  0.00    -0.174 NA
HETATM    8  H   UNL     1      39.771 -15.243   7.491  1.00  0.00     0.189 HD
HETATM    9  C   UNL     1      41.077 -16.026   4.812  1.00  0.00     0.089 A 
HETATM   10  C   UNL     1      40.779 -14.659   4.548  1.00  0.00     0.071 A 
BRANCH   9  11
HETATM   11  C   UNL     1      41.711 -17.000   3.919  1.00  0.00    -0.005 A 
HETATM   12  C   UNL     1      41.413 -17.024   2.547  1.00  0.00     0.017 A 
HETATM   13  C   UNL     1      42.029 -17.955   1.704  1.00  0.00     0.043 A 
HETATM   14  C   UNL     1      42.944 -18.859   2.228  1.00  0.00     0.116 A 
HETATM   15  C   UNL     1      43.253 -18.856   3.582  1.00  0.00     0.043 A 
HETATM   16  F   UNL     1      43.534 -19.747   1.418  1.00  0.00    -0.206 F 
HETATM   17  C   UNL     1      42.635 -17.929   4.427  1.00  0.00     0.017 A 
ENDBRANCH   9  11
ENDBRANCH   1   5
BRANCH   2  18
HETATM   18  C   UNL     1      39.982 -10.956   7.627  1.00  0.00     0.156 C 
BRANCH  18  19
HETATM   19  C   UNL     1      39.267 -11.018   8.988  1.00  0.00     0.159 C 
BRANCH  19  20
HETATM   20  O   UNL     1      38.900 -12.375   9.278  1.00  0.00    -0.392 OA
HETATM   21  H   UNL     1      38.231 -12.615   8.611  1.00  0.00     0.210 HD
ENDBRANCH  19  20
BRANCH  19  22
HETATM   22  C   UNL     1      40.167 -10.505  10.119  1.00  0.00     0.201 C 
BRANCH  22  23
HETATM   23  O   UNL     1      40.374 -11.431  11.182  1.00  0.00    -0.383 OA
BRANCH  23  24
HETATM   24  C   UNL     1      41.572 -11.270  11.950  1.00  0.00     0.121 C 
HETATM   25  C   UNL     1      41.132 -10.695  13.304  1.00  0.00     0.032 C 
HETATM   26  C   UNL     1      42.312 -10.367  14.210  1.00  0.00     0.002 C 
HETATM   27  C   UNL     1      43.301  -9.436  13.519  1.00  0.00     0.000 C 
HETATM   28  C   UNL     1      43.762 -10.007  12.183  1.00  0.00     0.002 C 
HETATM   29  C   UNL     1      42.583 -10.338  11.272  1.00  0.00     0.032 C 
ENDBRANCH  23  24
ENDBRANCH  22  23
ENDBRANCH  19  22
ENDBRANCH  18  19
ENDBRANCH   2  18
TORSDOF 8
ENDMDL
MODEL 5
REMARK VINA RESULT:      -8.4      2.758      3.546
REMARK  8 active torsions:
REMARK  status: ('A' for Active; 'I' for Inactive)
REMARK    1  A    between atoms: C_2  and  C_3 
REMARK    2  A    between atoms: C_7  and  C_8 
REMARK       I    between atoms: C_8  and  N_9 
REMARK    3  A    between atoms: N_9  and  C_10 
REMARK    4  A    between atoms: C_10  and  C_11 
REMARK    5  A    between atoms: C_11  and  O_12 
REMARK    6  A    between atoms: C_11  and  C_13 
REMARK    7  A    between atoms: C_13  and  O_14 
REMARK    8  A    between atoms: O_14  and  C_15 
ROOT
HETATM    1  C   UNL     1      39.936 -13.536   5.486  1.00  0.00     0.269 C 
HETATM    2  N   UNL     1      40.058 -12.963   6.729  1.00  0.00    -0.353 N 
HETATM    3  O   UNL     1      39.353 -12.982   4.561  1.00  0.00    -0.266 OA
HETATM    4  H   UNL     1      40.546 -13.455   7.463  1.00  0.00     0.162 HD
ENDROOT
BRANCH   1   5
HETATM    5  C   UNL     1      40.505 -14.850   5.361  1.00  0.00     0.120 A 
HETATM    6  N   UNL     1      40.089 -15.890   6.146  1.00  0.00    -0.272 N 
HETATM    7  N   UNL     1      40.749 -17.038   5.935  1.00  0.00    -0.174 NA
HETATM    8  H   UNL     1      39.366 -15.862   6.859  1.00  0.00     0.189 HD
HETATM    9  C   UNL     1      41.603 -16.760   4.938  1.00  0.00     0.089 A 
HETATM   10  C   UNL     1      41.483 -15.395   4.553  1.00  0.00     0.071 A 
BRANCH   9  11
HETATM   11  C   UNL     1      42.505 -17.777   4.391  1.00  0.00    -0.005 A 
HETATM   12  C   UNL     1      42.542 -18.044   3.013  1.00  0.00     0.017 A 
HETATM   13  C   UNL     1      43.411 -19.013   2.501  1.00  0.00     0.043 A 
HETATM   14  C   UNL     1      44.246 -19.712   3.363  1.00  0.00     0.116 A 
HETATM   15  C   UNL     1      44.226 -19.468   4.730  1.00  0.00     0.043 A 
HETATM   16  F   UNL     1      45.079 -20.637   2.870  1.00  0.00    -0.206 F 
HETATM   17  C   UNL     1      43.354 -18.503   5.243  1.00  0.00     0.017 A 
ENDBRANCH   9  11
ENDBRANCH   1   5
BRANCH   2  18
HETATM   18  C   UNL     1      39.558 -11.626   7.028  1.00  0.00     0.156 C 
BRANCH  18  19
HETATM   19  C   UNL     1      39.203 -11.444   8.513  1.00  0.00     0.159 C 
BRANCH  19  20
HETATM   20  O   UNL     1      38.815 -12.707   9.074  1.00  0.00    -0.392 OA
HETATM   21  H   UNL     1      39.491 -12.917   9.744  1.00  0.00     0.210 HD
ENDBRANCH  19  20
BRANCH  19  22
HETATM   22  C   UNL     1      40.395 -10.903   9.313  1.00  0.00     0.201 C 
BRANCH  22  23
HETATM   23  O   UNL     1      41.615 -10.821   8.582  1.00  0.00    -0.383 OA
BRANCH  23  24
HETATM   24  C   UNL     1      42.780 -10.428   9.317  1.00  0.00     0.121 C 
HETATM   25  C   UNL     1      43.878 -11.429   8.937  1.00  0.00     0.032 C 
HETATM   26  C   UNL     1      45.166 -11.208   9.719  1.00  0.00     0.002 C 
HETATM   27  C   UNL     1      44.913 -11.223  11.223  1.00  0.00     0.000 C 
HETATM   28  C   UNL     1      43.838 -10.216  11.615  1.00  0.00     0.002 C 
HETATM   29  C   UNL     1      42.545 -10.434  10.832  1.00  0.00     0.032 C 
ENDBRANCH  23  24
ENDBRANCH  22  23
ENDBRANCH  19  22
ENDBRANCH  18  19
ENDBRANCH   2  18
TORSDOF 8
ENDMDL
MODEL 6
REMARK VINA RESULT:      -8.4      5.112      6.115
REMARK  8 active torsions:
REMARK  status: ('A' for Active; 'I' for Inactive)
REMARK    1  A    between atoms: C_2  and  C_3 
REMARK    2  A    between atoms: C_7  and  C_8 
REMARK       I    between atoms: C_8  and  N_9 
REMARK    3  A    between atoms: N_9  and  C_10 
REMARK    4  A    between atoms: C_10  and  C_11 
REMARK    5  A    between atoms: C_11  and  O_12 
REMARK    6  A    between atoms: C_11  and  C_13 
REMARK    7  A    between atoms: C_13  and  O_14 
REMARK    8  A    between atoms: O_14  and  C_15 
ROOT
HETATM    1  C   UNL     1      42.036 -14.965   1.422  1.00  0.00     0.269 C 
HETATM    2  N   UNL     1      42.560 -13.940   2.173  1.00  0.00    -0.353 N 
HETATM    3  O   UNL     1      41.092 -14.804   0.657  1.00  0.00    -0.266 OA
HETATM    4  H   UNL     1      43.338 -14.116   2.791  1.00  0.00     0.162 HD
ENDROOT
BRANCH   1   5
HETATM    5  C   UNL     1      42.650 -16.248   1.629  1.00  0.00     0.120 A 
HETATM    6  N   UNL     1      43.145 -16.983   0.587  1.00  0.00    -0.272 N 
HETATM    7  N   UNL     1      43.646 -18.175   0.942  1.00  0.00    -0.174 NA
HETATM    8  H   UNL     1      43.149 -16.721  -0.395  1.00  0.00     0.189 HD
HETATM    9  C   UNL     1      43.522 -18.211   2.277  1.00  0.00     0.089 A 
HETATM   10  C   UNL     1      42.896 -17.022   2.746  1.00  0.00     0.071 A 
BRANCH   9  11
HETATM   11  C   UNL     1      43.981 -19.360   3.063  1.00  0.00    -0.005 A 
HETATM   12  C   UNL     1      44.252 -19.235   4.435  1.00  0.00     0.017 A 
HETATM   13  C   UNL     1      44.684 -20.339   5.176  1.00  0.00     0.043 A 
HETATM   14  C   UNL     1      44.843 -21.569   4.549  1.00  0.00     0.116 A 
HETATM   15  C   UNL     1      44.584 -21.717   3.193  1.00  0.00     0.043 A 
HETATM   16  F   UNL     1      45.255 -22.625   5.262  1.00  0.00    -0.206 F 
HETATM   17  C   UNL     1      44.156 -20.612   2.450  1.00  0.00     0.017 A 
ENDBRANCH   9  11
ENDBRANCH   1   5
BRANCH   2  18
HETATM   18  C   UNL     1      42.073 -12.569   2.074  1.00  0.00     0.156 C 
BRANCH  18  19
HETATM   19  C   UNL     1      41.032 -12.231   3.155  1.00  0.00     0.159 C 
BRANCH  19  20
HETATM   20  O   UNL     1      39.782 -12.858   2.833  1.00  0.00    -0.392 OA
HETATM   21  H   UNL     1      39.677 -13.583   3.476  1.00  0.00     0.210 HD
ENDBRANCH  19  20
BRANCH  19  22
HETATM   22  C   UNL     1      41.479 -12.720   4.538  1.00  0.00     0.201 C 
BRANCH  22  23
HETATM   23  O   UNL     1      41.265 -14.108   4.777  1.00  0.00    -0.383 OA
BRANCH  23  24
HETATM   24  C   UNL     1      41.948 -14.679   5.899  1.00  0.00     0.121 C 
HETATM   25  C   UNL     1      43.438 -14.386   5.682  1.00  0.00     0.032 C 
HETATM   26  C   UNL     1      44.320 -15.022   6.748  1.00  0.00     0.002 C 
HETATM   27  C   UNL     1      44.071 -16.522   6.853  1.00  0.00     0.000 C 
HETATM   28  C   UNL     1      42.595 -16.825   7.092  1.00  0.00     0.002 C 
HETATM   29  C   UNL     1      41.708 -16.188   6.025  1.00  0.00     0.032 C 
ENDBRANCH  23  24
ENDBRANCH  22  23
ENDBRANCH  19  22
ENDBRANCH  18  19
ENDBRANCH   2  18
TORSDOF 8
ENDMDL
MODEL 7
REMARK VINA RESULT:      -8.3      4.772      5.954
REMARK  8 active torsions:
REMARK  status: ('A' for Active; 'I' for Inactive)
REMARK    1  A    between atoms: C_2  and  C_3 
REMARK    2  A    between atoms: C_7  and  C_8 
REMARK       I    between atoms: C_8  and  N_9 
REMARK    3  A    between atoms: N_9  and  C_10 
REMARK    4  A    between atoms: C_10  and  C_11 
REMARK    5  A    between atoms: C_11  and  O_12 
REMARK    6  A    between atoms: C_11  and  C_13 
REMARK    7  A    between atoms: C_13  and  O_14 
REMARK    8  A    between atoms: O_14  and  C_15 
ROOT
HETATM    1  C   UNL     1      42.387 -14.680   2.482  1.00  0.00     0.269 C 
HETATM    2  N   UNL     1      41.762 -14.486   3.691  1.00  0.00    -0.353 N 
HETATM    3  O   UNL     1      42.524 -13.780   1.661  1.00  0.00    -0.266 OA
HETATM    4  H   UNL     1      41.670 -15.254   4.338  1.00  0.00     0.162 HD
ENDROOT
BRANCH   1   5
HETATM    5  C   UNL     1      42.832 -16.024   2.234  1.00  0.00     0.120 A 
HETATM    6  N   UNL     1      43.096 -16.470   0.969  1.00  0.00    -0.272 N 
HETATM    7  N   UNL     1      43.460 -17.758   0.903  1.00  0.00    -0.174 NA
HETATM    8  H   UNL     1      43.025 -15.935   0.108  1.00  0.00     0.189 HD
HETATM    9  C   UNL     1      43.484 -18.170   2.179  1.00  0.00     0.089 A 
HETATM   10  C   UNL     1      43.091 -17.110   3.045  1.00  0.00     0.071 A 
BRANCH   9  11
HETATM   11  C   UNL     1      43.861 -19.539   2.542  1.00  0.00    -0.005 A 
HETATM   12  C   UNL     1      44.485 -19.816   3.769  1.00  0.00     0.017 A 
HETATM   13  C   UNL     1      44.835 -21.127   4.106  1.00  0.00     0.043 A 
HETATM   14  C   UNL     1      44.562 -22.162   3.221  1.00  0.00     0.116 A 
HETATM   15  C   UNL     1      43.949 -21.912   2.000  1.00  0.00     0.043 A 
HETATM   16  F   UNL     1      44.897 -23.416   3.547  1.00  0.00    -0.206 F 
HETATM   17  C   UNL     1      43.602 -20.601   1.660  1.00  0.00     0.017 A 
ENDBRANCH   9  11
ENDBRANCH   1   5
BRANCH   2  18
HETATM   18  C   UNL     1      41.268 -13.181   4.116  1.00  0.00     0.156 C 
BRANCH  18  19
HETATM   19  C   UNL     1      41.927 -12.693   5.417  1.00  0.00     0.159 C 
BRANCH  19  20
HETATM   20  O   UNL     1      40.952 -12.660   6.469  1.00  0.00    -0.392 OA
HETATM   21  H   UNL     1      41.285 -13.265   7.157  1.00  0.00     0.210 HD
ENDBRANCH  19  20
BRANCH  19  22
HETATM   22  C   UNL     1      43.074 -13.617   5.847  1.00  0.00     0.201 C 
BRANCH  22  23
HETATM   23  O   UNL     1      42.678 -14.722   6.654  1.00  0.00    -0.383 OA
BRANCH  23  24
HETATM   24  C   UNL     1      43.230 -15.998   6.311  1.00  0.00     0.121 C 
HETATM   25  C   UNL     1      42.314 -17.044   6.960  1.00  0.00     0.032 C 
HETATM   26  C   UNL     1      42.826 -18.466   6.772  1.00  0.00     0.002 C 
HETATM   27  C   UNL     1      44.258 -18.612   7.273  1.00  0.00     0.000 C 
HETATM   28  C   UNL     1      45.183 -17.592   6.618  1.00  0.00     0.002 C 
HETATM   29  C   UNL     1      44.672 -16.165   6.803  1.00  0.00     0.032 C 
ENDBRANCH  23  24
ENDBRANCH  22  23
ENDBRANCH  19  22
ENDBRANCH  18  19
ENDBRANCH   2  18
TORSDOF 8
ENDMDL
MODEL 8
REMARK VINA RESULT:      -8.2      4.398      7.047
REMARK  8 active torsions:
REMARK  status: ('A' for Active; 'I' for Inactive)
REMARK    1  A    between atoms: C_2  and  C_3 
REMARK    2  A    between atoms: C_7  and  C_8 
REMARK       I    between atoms: C_8  and  N_9 
REMARK    3  A    between atoms: N_9  and  C_10 
REMARK    4  A    between atoms: C_10  and  C_11 
REMARK    5  A    between atoms: C_11  and  O_12 
REMARK    6  A    between atoms: C_11  and  C_13 
REMARK    7  A    between atoms: C_13  and  O_14 
REMARK    8  A    between atoms: O_14  and  C_15 
ROOT
HETATM    1  C   UNL     1      42.837 -14.340   5.865  1.00  0.00     0.269 C 
HETATM    2  N   UNL     1      41.514 -14.071   5.605  1.00  0.00    -0.353 N 
HETATM    3  O   UNL     1      43.612 -13.487   6.284  1.00  0.00    -0.266 OA
HETATM    4  H   UNL     1      40.912 -14.803   5.261  1.00  0.00     0.162 HD
ENDROOT
BRANCH   1   5
HETATM    5  C   UNL     1      43.256 -15.683   5.572  1.00  0.00     0.120 A 
HETATM    6  N   UNL     1      43.937 -16.438   6.487  1.00  0.00    -0.272 N 
HETATM    7  N   UNL     1      44.292 -17.653   6.044  1.00  0.00    -0.174 NA
HETATM    8  H   UNL     1      44.202 -16.161   7.428  1.00  0.00     0.189 HD
HETATM    9  C   UNL     1      43.785 -17.724   4.805  1.00  0.00     0.089 A 
HETATM   10  C   UNL     1      43.131 -16.505   4.470  1.00  0.00     0.071 A 
BRANCH   9  11
HETATM   11  C   UNL     1      43.941 -18.922   3.975  1.00  0.00    -0.005 A 
HETATM   12  C   UNL     1      43.406 -18.978   2.678  1.00  0.00     0.017 A 
HETATM   13  C   UNL     1      43.565 -20.125   1.894  1.00  0.00     0.043 A 
HETATM   14  C   UNL     1      44.260 -21.215   2.403  1.00  0.00     0.116 A 
HETATM   15  C   UNL     1      44.795 -21.185   3.684  1.00  0.00     0.043 A 
HETATM   16  F   UNL     1      44.413 -22.311   1.649  1.00  0.00    -0.206 F 
HETATM   17  C   UNL     1      44.633 -20.040   4.470  1.00  0.00     0.017 A 
ENDBRANCH   9  11
ENDBRANCH   1   5
BRANCH   2  18
HETATM   18  C   UNL     1      40.915 -12.767   5.864  1.00  0.00     0.156 C 
BRANCH  18  19
HETATM   19  C   UNL     1      40.638 -11.976   4.574  1.00  0.00     0.159 C 
BRANCH  19  20
HETATM   20  O   UNL     1      41.878 -11.523   4.011  1.00  0.00    -0.392 OA
HETATM   21  H   UNL     1      41.805 -10.552   3.959  1.00  0.00     0.210 HD
ENDBRANCH  19  20
BRANCH  19  22
HETATM   22  C   UNL     1      39.917 -12.838   3.531  1.00  0.00     0.201 C 
BRANCH  22  23
HETATM   23  O   UNL     1      40.713 -13.203   2.407  1.00  0.00    -0.383 OA
BRANCH  23  24
HETATM   24  C   UNL     1      41.101 -14.578   2.314  1.00  0.00     0.121 C 
HETATM   25  C   UNL     1      41.887 -14.708   1.003  1.00  0.00     0.032 C 
HETATM   26  C   UNL     1      42.288 -16.147   0.702  1.00  0.00     0.002 C 
HETATM   27  C   UNL     1      41.078 -17.073   0.704  1.00  0.00     0.000 C 
HETATM   28  C   UNL     1      40.301 -16.969   2.012  1.00  0.00     0.002 C 
HETATM   29  C   UNL     1      39.898 -15.528   2.317  1.00  0.00     0.032 C 
ENDBRANCH  23  24
ENDBRANCH  22  23
ENDBRANCH  19  22
ENDBRANCH  18  19
ENDBRANCH   2  18
TORSDOF 8
ENDMDL
MODEL 9
REMARK VINA RESULT:      -8.1      7.921     11.969
REMARK  8 active torsions:
REMARK  status: ('A' for Active; 'I' for Inactive)
REMARK    1  A    between atoms: C_2  and  C_3 
REMARK    2  A    between atoms: C_7  and  C_8 
REMARK       I    between atoms: C_8  and  N_9 
REMARK    3  A    between atoms: N_9  and  C_10 
REMARK    4  A    between atoms: C_10  and  C_11 
REMARK    5  A    between atoms: C_11  and  O_12 
REMARK    6  A    between atoms: C_11  and  C_13 
REMARK    7  A    between atoms: C_13  and  O_14 
REMARK    8  A    between atoms: O_14  and  C_15 
ROOT
HETATM    1  C   UNL     1      41.278 -15.382  -0.783  1.00  0.00     0.269 C 
HETATM    2  N   UNL     1      40.596 -15.890  -1.863  1.00  0.00    -0.353 N 
HETATM    3  O   UNL     1      41.658 -14.218  -0.733  1.00  0.00    -0.266 OA
HETATM    4  H   UNL     1      40.302 -16.855  -1.863  1.00  0.00     0.162 HD
ENDROOT
BRANCH   1   5
HETATM    5  C   UNL     1      41.548 -16.326   0.267  1.00  0.00     0.120 A 
HETATM    6  N   UNL     1      40.581 -16.706   1.156  1.00  0.00    -0.272 N 
HETATM    7  N   UNL     1      41.004 -17.559   2.100  1.00  0.00    -0.174 NA
HETATM    8  H   UNL     1      39.614 -16.394   1.174  1.00  0.00     0.189 HD
HETATM    9  C   UNL     1      42.290 -17.792   1.795  1.00  0.00     0.089 A 
HETATM   10  C   UNL     1      42.670 -17.032   0.653  1.00  0.00     0.071 A 
BRANCH   9  11
HETATM   11  C   UNL     1      43.118 -18.705   2.588  1.00  0.00    -0.005 A 
HETATM   12  C   UNL     1      43.444 -18.412   3.921  1.00  0.00     0.017 A 
HETATM   13  C   UNL     1      44.230 -19.294   4.669  1.00  0.00     0.043 A 
HETATM   14  C   UNL     1      44.687 -20.470   4.088  1.00  0.00     0.116 A 
HETATM   15  C   UNL     1      44.380 -20.781   2.770  1.00  0.00     0.043 A 
HETATM   16  F   UNL     1      45.438 -21.314   4.808  1.00  0.00    -0.206 F 
HETATM   17  C   UNL     1      43.599 -19.897   2.020  1.00  0.00     0.017 A 
ENDBRANCH   9  11
ENDBRANCH   1   5
BRANCH   2  18
HETATM   18  C   UNL     1      40.220 -15.068  -3.008  1.00  0.00     0.156 C 
BRANCH  18  19
HETATM   19  C   UNL     1      39.122 -15.717  -3.867  1.00  0.00     0.159 C 
BRANCH  19  20
HETATM   20  O   UNL     1      39.104 -17.134  -3.637  1.00  0.00    -0.392 OA
HETATM   21  H   UNL     1      39.001 -17.243  -2.674  1.00  0.00     0.210 HD
ENDBRANCH  19  20
BRANCH  19  22
HETATM   22  C   UNL     1      37.736 -15.152  -3.529  1.00  0.00     0.201 C 
BRANCH  22  23
HETATM   23  O   UNL     1      36.852 -15.041  -4.641  1.00  0.00    -0.383 OA
BRANCH  23  24
HETATM   24  C   UNL     1      36.261 -13.755  -4.864  1.00  0.00     0.121 C 
HETATM   25  C   UNL     1      36.785 -12.848  -3.744  1.00  0.00     0.032 C 
HETATM   26  C   UNL     1      36.164 -11.457  -3.780  1.00  0.00     0.002 C 
HETATM   27  C   UNL     1      34.642 -11.527  -3.755  1.00  0.00     0.000 C 
HETATM   28  C   UNL     1      34.108 -12.409  -4.879  1.00  0.00     0.002 C 
HETATM   29  C   UNL     1      34.729 -13.804  -4.847  1.00  0.00     0.032 C 
ENDBRANCH  23  24
ENDBRANCH  22  23
ENDBRANCH  19  22
ENDBRANCH  18  19
ENDBRANCH   2  18
TORSDOF 8
ENDMDL
MODEL 10
REMARK VINA RESULT:      -8.0      2.013      2.864
REMARK  8 active torsions:
REMARK  status: ('A' for Active; 'I' for Inactive)
REMARK    1  A    between atoms: C_2  and  C_3 
REMARK    2  A    between atoms: C_7  and  C_8 
REMARK       I    between atoms: C_8  and  N_9 
REMARK    3  A    between atoms: N_9  and  C_10 
REMARK    4  A    between atoms: C_10  and  C_11 
REMARK    5  A    between atoms: C_11  and  O_12 
REMARK    6  A    between atoms: C_11  and  C_13 
REMARK    7  A    between atoms: C_13  and  O_14 
REMARK    8  A    between atoms: O_14  and  C_15 
ROOT
HETATM    1  C   UNL     1      42.016 -13.104   5.434  1.00  0.00     0.269 C 
HETATM    2  N   UNL     1      41.405 -12.743   6.611  1.00  0.00    -0.353 N 
HETATM    3  O   UNL     1      42.132 -12.331   4.489  1.00  0.00    -0.266 OA
HETATM    4  H   UNL     1      41.329 -13.412   7.363  1.00  0.00     0.162 HD
ENDROOT
BRANCH   1   5
HETATM    5  C   UNL     1      42.472 -14.466   5.376  1.00  0.00     0.120 A 
HETATM    6  N   UNL     1      42.646 -15.213   6.507  1.00  0.00    -0.272 N 
HETATM    7  N   UNL     1      43.117 -16.449   6.286  1.00  0.00    -0.174 NA
HETATM    8  H   UNL     1      42.473 -14.918   7.464  1.00  0.00     0.189 HD
HETATM    9  C   UNL     1      43.215 -16.540   4.951  1.00  0.00     0.089 A 
HETATM   10  C   UNL     1      42.823 -15.314   4.344  1.00  0.00     0.071 A 
BRANCH   9  11
HETATM   11  C   UNL     1      43.680 -17.765   4.294  1.00  0.00    -0.005 A 
HETATM   12  C   UNL     1      44.299 -18.789   5.028  1.00  0.00     0.017 A 
HETATM   13  C   UNL     1      44.733 -19.955   4.391  1.00  0.00     0.043 A 
HETATM   14  C   UNL     1      44.548 -20.102   3.022  1.00  0.00     0.116 A 
HETATM   15  C   UNL     1      43.941 -19.101   2.274  1.00  0.00     0.043 A 
HETATM   16  F   UNL     1      44.963 -21.221   2.415  1.00  0.00    -0.206 F 
HETATM   17  C   UNL     1      43.511 -17.933   2.909  1.00  0.00     0.017 A 
ENDBRANCH   9  11
ENDBRANCH   1   5
BRANCH   2  18
HETATM   18  C   UNL     1      40.901 -11.396   6.850  1.00  0.00     0.156 C 
BRANCH  18  19
HETATM   19  C   UNL     1      39.698 -11.375   7.808  1.00  0.00     0.159 C 
BRANCH  19  20
HETATM   20  O   UNL     1      39.124 -12.688   7.890  1.00  0.00    -0.392 OA
HETATM   21  H   UNL     1      39.754 -13.218   8.412  1.00  0.00     0.210 HD
ENDBRANCH  19  20
BRANCH  19  22
HETATM   22  C   UNL     1      40.109 -10.935   9.218  1.00  0.00     0.201 C 
BRANCH  22  23
HETATM   23  O   UNL     1      41.500 -10.669   9.377  1.00  0.00    -0.383 OA
BRANCH  23  24
HETATM   24  C   UNL     1      42.071 -10.978  10.654  1.00  0.00     0.121 C 
HETATM   25  C   UNL     1      40.918 -10.893  11.664  1.00  0.00     0.032 C 
HETATM   26  C   UNL     1      41.384 -11.097  13.100  1.00  0.00     0.002 C 
HETATM   27  C   UNL     1      42.501 -10.126  13.466  1.00  0.00     0.000 C 
HETATM   28  C   UNL     1      43.661 -10.217  12.481  1.00  0.00     0.002 C 
HETATM   29  C   UNL     1      43.198 -10.014  11.040  1.00  0.00     0.032 C 
ENDBRANCH  23  24
ENDBRANCH  22  23
ENDBRANCH  19  22
ENDBRANCH  18  19
ENDBRANCH   2  18
TORSDOF 8
ENDMDL
