MODEL 1
REMARK VINA RESULT:      -7.2      0.000      0.000
REMARK  10 active torsions:
REMARK  status: ('A' for Active; 'I' for Inactive)
REMARK    1  A    between atoms: O_2  and  C_3 
REMARK    2  A    between atoms: C_6  and  N_7 
REMARK    3  A    between atoms: N_7  and  C_8 
REMARK    4  A    between atoms: C_8  and  N_9 
REMARK    5  A    between atoms: N_9  and  N_10 
REMARK       I    between atoms: N_10  and  C_11 
REMARK    6  A    between atoms: C_11  and  C_12 
REMARK    7  A    between atoms: C_12  and  S_13 
REMARK    8  A    between atoms: S_13  and  C_14 
REMARK    9  A    between atoms: C_14  and  C_15 
REMARK       I    between atoms: C_15  and  N_16 
REMARK   10  A    between atoms: N_16  and  C_17 
ROOT
HETATM    1  N   UNL     1      39.076 -16.002   1.901  1.00  0.00    -0.267 N 
HETATM    2  C   UNL     1      38.681 -14.695   1.811  1.00  0.00     0.245 C 
HETATM    3  O   UNL     1      37.689 -14.414   1.134  1.00  0.00    -0.271 OA
HETATM    4  H   UNL     1      38.513 -16.694   1.410  1.00  0.00     0.190 HD
ENDROOT
BRANCH   1   5
HETATM    5  N   UNL     1      40.211 -16.458   2.566  1.00  0.00    -0.274 N 
HETATM    6  H   UNL     1      40.120 -16.751   3.537  1.00  0.00     0.189 HD
BRANCH   5   7
HETATM    7  C   UNL     1      41.421 -16.569   1.930  1.00  0.00     0.191 C 
HETATM    8  S   UNL     1      41.658 -16.345   0.288  1.00  0.00    -0.039 SA
BRANCH   7   9
HETATM    9  N   UNL     1      42.494 -16.938   2.693  1.00  0.00    -0.332 N 
HETATM   10  H   UNL     1      42.792 -16.213   3.339  1.00  0.00     0.168 HD
BRANCH   9  11
HETATM   11  C   UNL     1      43.116 -18.192   2.859  1.00  0.00     0.034 A 
HETATM   12  C   UNL     1      43.807 -18.410   4.053  1.00  0.00     0.032 A 
HETATM   13  C   UNL     1      44.414 -19.643   4.307  1.00  0.00     0.039 A 
HETATM   14  C   UNL     1      44.320 -20.687   3.385  1.00  0.00     0.068 A 
HETATM   15  C   UNL     1      43.613 -20.481   2.202  1.00  0.00     0.039 A 
HETATM   16  C   UNL     1      43.007 -19.244   1.946  1.00  0.00     0.032 A 
BRANCH  14  17
HETATM   17  O   UNL     1      44.945 -21.842   3.761  1.00  0.00    -0.356 OA
HETATM   18  C   UNL     1      45.011 -22.115   5.156  1.00  0.00     0.210 C 
ENDBRANCH  14  17
ENDBRANCH   9  11
ENDBRANCH   7   9
ENDBRANCH   5   7
ENDBRANCH   1   5
BRANCH   2  19
HETATM   19  C   UNL     1      39.409 -13.620   2.591  1.00  0.00     0.178 C 
BRANCH  19  20
HETATM   20  S   UNL     1      40.739 -12.736   1.709  1.00  0.00    -0.150 SA
BRANCH  20  21
HETATM   21  C   UNL     1      41.865 -12.291   3.069  1.00  0.00     0.177 C 
BRANCH  21  22
HETATM   22  C   UNL     1      42.562 -13.459   3.746  1.00  0.00     0.231 C 
HETATM   23  N   UNL     1      42.044 -13.790   4.984  1.00  0.00    -0.327 N 
HETATM   24  H   UNL     1      41.339 -13.163   5.356  1.00  0.00     0.169 HD
HETATM   25  O   UNL     1      43.434 -14.070   3.134  1.00  0.00    -0.272 OA
BRANCH  23  26
HETATM   26  C   UNL     1      42.393 -14.896   5.787  1.00  0.00     0.034 A 
HETATM   27  C   UNL     1      41.542 -15.972   6.047  1.00  0.00     0.029 A 
HETATM   28  C   UNL     1      41.951 -17.022   6.874  1.00  0.00     0.002 A 
HETATM   29  C   UNL     1      43.219 -17.008   7.448  1.00  0.00     0.000 A 
HETATM   30  C   UNL     1      44.081 -15.945   7.191  1.00  0.00     0.002 A 
HETATM   31  C   UNL     1      43.670 -14.894   6.364  1.00  0.00     0.029 A 
ENDBRANCH  23  26
ENDBRANCH  21  22
ENDBRANCH  20  21
ENDBRANCH  19  20
ENDBRANCH   2  19
TORSDOF 10
ENDMDL
MODEL 2
REMARK VINA RESULT:      -6.9      2.315      4.362
REMARK  10 active torsions:
REMARK  status: ('A' for Active; 'I' for Inactive)
REMARK    1  A    between atoms: O_2  and  C_3 
REMARK    2  A    between atoms: C_6  and  N_7 
REMARK    3  A    between atoms: N_7  and  C_8 
REMARK    4  A    between atoms: C_8  and  N_9 
REMARK    5  A    between atoms: N_9  and  N_10 
REMARK       I    between atoms: N_10  and  C_11 
REMARK    6  A    between atoms: C_11  and  C_12 
REMARK    7  A    between atoms: C_12  and  S_13 
REMARK    8  A    between atoms: S_13  and  C_14 
REMARK    9  A    between atoms: C_14  and  C_15 
REMARK       I    between atoms: C_15  and  N_16 
REMARK   10  A    between atoms: N_16  and  C_17 
ROOT
HETATM    1  N   UNL     1      41.727 -14.329   6.153  1.00  0.00    -0.267 N 
HETATM    2  C   UNL     1      40.616 -13.845   5.518  1.00  0.00     0.245 C 
HETATM    3  O   UNL     1      39.593 -14.532   5.493  1.00  0.00    -0.271 OA
HETATM    4  H   UNL     1      41.650 -15.243   6.596  1.00  0.00     0.190 HD
ENDROOT
BRANCH   1   5
HETATM    5  N   UNL     1      42.968 -13.700   6.200  1.00  0.00    -0.274 N 
HETATM    6  H   UNL     1      43.090 -12.827   5.690  1.00  0.00     0.189 HD
BRANCH   5   7
HETATM    7  C   UNL     1      44.000 -14.201   6.953  1.00  0.00     0.191 C 
HETATM    8  S   UNL     1      45.525 -13.517   7.053  1.00  0.00    -0.039 SA
BRANCH   7   9
HETATM    9  N   UNL     1      43.770 -15.368   7.626  1.00  0.00    -0.332 N 
HETATM   10  H   UNL     1      43.347 -15.227   8.539  1.00  0.00     0.168 HD
BRANCH   9  11
HETATM   11  C   UNL     1      43.846 -16.709   7.194  1.00  0.00     0.034 A 
HETATM   12  C   UNL     1      44.970 -17.080   6.454  1.00  0.00     0.032 A 
HETATM   13  C   UNL     1      45.134 -18.401   6.028  1.00  0.00     0.039 A 
HETATM   14  C   UNL     1      44.194 -19.378   6.356  1.00  0.00     0.068 A 
HETATM   15  C   UNL     1      43.082 -19.017   7.114  1.00  0.00     0.039 A 
HETATM   16  C   UNL     1      42.914 -17.691   7.538  1.00  0.00     0.032 A 
BRANCH  14  17
HETATM   17  O   UNL     1      44.481 -20.630   5.890  1.00  0.00    -0.356 OA
HETATM   18  C   UNL     1      45.180 -20.712   4.654  1.00  0.00     0.210 C 
ENDBRANCH  14  17
ENDBRANCH   9  11
ENDBRANCH   7   9
ENDBRANCH   5   7
ENDBRANCH   1   5
BRANCH   2  19
HETATM   19  C   UNL     1      40.623 -12.453   4.918  1.00  0.00     0.178 C 
BRANCH  19  20
HETATM   20  S   UNL     1      40.259 -12.336   3.134  1.00  0.00    -0.150 SA
BRANCH  20  21
HETATM   21  C   UNL     1      41.921 -12.468   2.400  1.00  0.00     0.177 C 
BRANCH  21  22
HETATM   22  C   UNL     1      42.651 -13.771   2.673  1.00  0.00     0.231 C 
HETATM   23  N   UNL     1      41.983 -14.900   2.236  1.00  0.00    -0.327 N 
HETATM   24  H   UNL     1      41.043 -14.755   1.886  1.00  0.00     0.169 HD
HETATM   25  O   UNL     1      43.783 -13.733   3.150  1.00  0.00    -0.272 OA
BRANCH  23  26
HETATM   26  C   UNL     1      42.462 -16.227   2.232  1.00  0.00     0.034 A 
HETATM   27  C   UNL     1      43.247 -16.771   1.213  1.00  0.00     0.029 A 
HETATM   28  C   UNL     1      43.663 -18.104   1.268  1.00  0.00     0.002 A 
HETATM   29  C   UNL     1      43.300 -18.907   2.346  1.00  0.00     0.000 A 
HETATM   30  C   UNL     1      42.525 -18.375   3.372  1.00  0.00     0.002 A 
HETATM   31  C   UNL     1      42.107 -17.041   3.316  1.00  0.00     0.029 A 
ENDBRANCH  23  26
ENDBRANCH  21  22
ENDBRANCH  20  21
ENDBRANCH  19  20
ENDBRANCH   2  19
TORSDOF 10
ENDMDL
MODEL 3
REMARK VINA RESULT:      -6.9      5.550      9.622
REMARK  10 active torsions:
REMARK  status: ('A' for Active; 'I' for Inactive)
REMARK    1  A    between atoms: O_2  and  C_3 
REMARK    2  A    between atoms: C_6  and  N_7 
REMARK    3  A    between atoms: N_7  and  C_8 
REMARK    4  A    between atoms: C_8  and  N_9 
REMARK    5  A    between atoms: N_9  and  N_10 
REMARK       I    between atoms: N_10  and  C_11 
REMARK    6  A    between atoms: C_11  and  C_12 
REMARK    7  A    between atoms: C_12  and  S_13 
REMARK    8  A    between atoms: S_13  and  C_14 
REMARK    9  A    between atoms: C_14  and  C_15 
REMARK       I    between atoms: C_15  and  N_16 
REMARK   10  A    between atoms: N_16  and  C_17 
ROOT
HETATM    1  N   UNL     1      44.238 -14.146   7.748  1.00  0.00    -0.267 N 
HETATM    2  C   UNL     1      43.934 -14.817   6.596  1.00  0.00     0.245 C 
HETATM    3  O   UNL     1      44.309 -15.984   6.464  1.00  0.00    -0.271 OA
HETATM    4  H   UNL     1      44.756 -14.656   8.462  1.00  0.00     0.190 HD
ENDROOT
BRANCH   1   5
HETATM    5  N   UNL     1      43.945 -12.810   8.006  1.00  0.00    -0.274 N 
HETATM    6  H   UNL     1      43.347 -12.309   7.351  1.00  0.00     0.189 HD
BRANCH   5   7
HETATM    7  C   UNL     1      44.396 -12.180   9.138  1.00  0.00     0.191 C 
HETATM    8  S   UNL     1      45.873 -11.402   9.270  1.00  0.00    -0.039 SA
BRANCH   7   9
HETATM    9  N   UNL     1      43.596 -12.240  10.244  1.00  0.00    -0.332 N 
HETATM   10  H   UNL     1      43.378 -13.191  10.529  1.00  0.00     0.168 HD
BRANCH   9  11
HETATM   11  C   UNL     1      43.193 -11.231  11.144  1.00  0.00     0.034 A 
HETATM   12  C   UNL     1      42.645 -10.069  10.596  1.00  0.00     0.032 A 
HETATM   13  C   UNL     1      42.184  -9.043  11.427  1.00  0.00     0.039 A 
HETATM   14  C   UNL     1      42.237  -9.172  12.816  1.00  0.00     0.068 A 
HETATM   15  C   UNL     1      42.762 -10.339  13.366  1.00  0.00     0.039 A 
HETATM   16  C   UNL     1      43.228 -11.367  12.534  1.00  0.00     0.032 A 
BRANCH  14  17
HETATM   17  O   UNL     1      41.742  -8.104  13.510  1.00  0.00    -0.356 OA
HETATM   18  C   UNL     1      41.674  -8.232  14.925  1.00  0.00     0.210 C 
ENDBRANCH  14  17
ENDBRANCH   9  11
ENDBRANCH   7   9
ENDBRANCH   5   7
ENDBRANCH   1   5
BRANCH   2  19
HETATM   19  C   UNL     1      43.084 -14.158   5.528  1.00  0.00     0.178 C 
BRANCH  19  20
HETATM   20  S   UNL     1      43.261 -14.810   3.832  1.00  0.00    -0.150 SA
BRANCH  20  21
HETATM   21  C   UNL     1      41.813 -15.905   3.695  1.00  0.00     0.177 C 
BRANCH  21  22
HETATM   22  C   UNL     1      42.092 -17.383   3.907  1.00  0.00     0.231 C 
HETATM   23  N   UNL     1      42.934 -17.944   2.965  1.00  0.00    -0.327 N 
HETATM   24  H   UNL     1      43.185 -17.351   2.181  1.00  0.00     0.169 HD
HETATM   25  O   UNL     1      41.654 -17.936   4.913  1.00  0.00    -0.272 OA
BRANCH  23  26
HETATM   26  C   UNL     1      43.472 -19.247   2.969  1.00  0.00     0.034 A 
HETATM   27  C   UNL     1      44.300 -19.747   3.977  1.00  0.00     0.029 A 
HETATM   28  C   UNL     1      44.815 -21.044   3.899  1.00  0.00     0.002 A 
HETATM   29  C   UNL     1      44.506 -21.856   2.812  1.00  0.00     0.000 A 
HETATM   30  C   UNL     1      43.677 -21.373   1.805  1.00  0.00     0.002 A 
HETATM   31  C   UNL     1      43.162 -20.075   1.882  1.00  0.00     0.029 A 
ENDBRANCH  23  26
ENDBRANCH  21  22
ENDBRANCH  20  21
ENDBRANCH  19  20
ENDBRANCH   2  19
TORSDOF 10
ENDMDL
MODEL 4
REMARK VINA RESULT:      -6.9      5.769      9.948
REMARK  10 active torsions:
REMARK  status: ('A' for Active; 'I' for Inactive)
REMARK    1  A    between atoms: O_2  and  C_3 
REMARK    2  A    between atoms: C_6  and  N_7 
REMARK    3  A    between atoms: N_7  and  C_8 
REMARK    4  A    between atoms: C_8  and  N_9 
REMARK    5  A    between atoms: N_9  and  N_10 
REMARK       I    between atoms: N_10  and  C_11 
REMARK    6  A    between atoms: C_11  and  C_12 
REMARK    7  A    between atoms: C_12  and  S_13 
REMARK    8  A    between atoms: S_13  and  C_14 
REMARK    9  A    between atoms: C_14  and  C_15 
REMARK       I    between atoms: C_15  and  N_16 
REMARK   10  A    between atoms: N_16  and  C_17 
ROOT
HETATM    1  N   UNL     1      43.757 -13.428   7.210  1.00  0.00    -0.267 N 
HETATM    2  C   UNL     1      43.677 -14.553   6.436  1.00  0.00     0.245 C 
HETATM    3  O   UNL     1      43.077 -14.500   5.360  1.00  0.00    -0.271 OA
HETATM    4  H   UNL     1      43.323 -12.581   6.847  1.00  0.00     0.190 HD
ENDROOT
BRANCH   1   5
HETATM    5  N   UNL     1      44.337 -13.357   8.474  1.00  0.00    -0.274 N 
HETATM    6  H   UNL     1      44.757 -14.199   8.863  1.00  0.00     0.189 HD
BRANCH   5   7
HETATM    7  C   UNL     1      44.398 -12.178   9.172  1.00  0.00     0.191 C 
HETATM    8  S   UNL     1      45.789 -11.275   9.396  1.00  0.00    -0.039 SA
BRANCH   7   9
HETATM    9  N   UNL     1      43.245 -11.745   9.764  1.00  0.00    -0.332 N 
HETATM   10  H   UNL     1      42.408 -12.156   9.359  1.00  0.00     0.168 HD
BRANCH   9  11
HETATM   11  C   UNL     1      43.041 -10.989  10.937  1.00  0.00     0.034 A 
HETATM   12  C   UNL     1      42.657  -9.656  10.780  1.00  0.00     0.032 A 
HETATM   13  C   UNL     1      42.396  -8.857  11.897  1.00  0.00     0.039 A 
HETATM   14  C   UNL     1      42.489  -9.382  13.187  1.00  0.00     0.068 A 
HETATM   15  C   UNL     1      42.850 -10.718  13.348  1.00  0.00     0.039 A 
HETATM   16  C   UNL     1      43.115 -11.519  12.228  1.00  0.00     0.032 A 
BRANCH  14  17
HETATM   17  O   UNL     1      42.196  -8.500  14.188  1.00  0.00    -0.356 OA
HETATM   18  C   UNL     1      41.696  -9.047  15.403  1.00  0.00     0.210 C 
ENDBRANCH  14  17
ENDBRANCH   9  11
ENDBRANCH   7   9
ENDBRANCH   5   7
ENDBRANCH   1   5
BRANCH   2  19
HETATM   19  C   UNL     1      44.379 -15.827   6.861  1.00  0.00     0.178 C 
BRANCH  19  20
HETATM   20  S   UNL     1      43.439 -16.946   7.954  1.00  0.00    -0.150 SA
BRANCH  20  21
HETATM   21  C   UNL     1      44.019 -18.583   7.407  1.00  0.00     0.177 C 
BRANCH  21  22
HETATM   22  C   UNL     1      43.640 -18.967   5.987  1.00  0.00     0.231 C 
HETATM   23  N   UNL     1      44.537 -19.819   5.369  1.00  0.00    -0.327 N 
HETATM   24  H   UNL     1      45.395 -20.008   5.876  1.00  0.00     0.169 HD
HETATM   25  O   UNL     1      42.560 -18.595   5.535  1.00  0.00    -0.272 OA
BRANCH  23  26
HETATM   26  C   UNL     1      44.394 -20.445   4.113  1.00  0.00     0.034 A 
HETATM   27  C   UNL     1      43.960 -19.789   2.959  1.00  0.00     0.029 A 
HETATM   28  C   UNL     1      43.820 -20.484   1.754  1.00  0.00     0.002 A 
HETATM   29  C   UNL     1      44.115 -21.842   1.691  1.00  0.00     0.000 A 
HETATM   30  C   UNL     1      44.556 -22.506   2.832  1.00  0.00     0.002 A 
HETATM   31  C   UNL     1      44.695 -21.811   4.038  1.00  0.00     0.029 A 
ENDBRANCH  23  26
ENDBRANCH  21  22
ENDBRANCH  20  21
ENDBRANCH  19  20
ENDBRANCH   2  19
TORSDOF 10
ENDMDL
MODEL 5
REMARK VINA RESULT:      -6.8      2.399      7.020
REMARK  10 active torsions:
REMARK  status: ('A' for Active; 'I' for Inactive)
REMARK    1  A    between atoms: O_2  and  C_3 
REMARK    2  A    between atoms: C_6  and  N_7 
REMARK    3  A    between atoms: N_7  and  C_8 
REMARK    4  A    between atoms: C_8  and  N_9 
REMARK    5  A    between atoms: N_9  and  N_10 
REMARK       I    between atoms: N_10  and  C_11 
REMARK    6  A    between atoms: C_11  and  C_12 
REMARK    7  A    between atoms: C_12  and  S_13 
REMARK    8  A    between atoms: S_13  and  C_14 
REMARK    9  A    between atoms: C_14  and  C_15 
REMARK       I    between atoms: C_15  and  N_16 
REMARK   10  A    between atoms: N_16  and  C_17 
ROOT
HETATM    1  N   UNL     1      40.442 -16.050   4.509  1.00  0.00    -0.267 N 
HETATM    2  C   UNL     1      41.311 -15.254   5.205  1.00  0.00     0.245 C 
HETATM    3  O   UNL     1      40.880 -14.558   6.126  1.00  0.00    -0.271 OA
HETATM    4  H   UNL     1      39.466 -16.042   4.801  1.00  0.00     0.190 HD
ENDROOT
BRANCH   1   5
HETATM    5  N   UNL     1      40.771 -16.832   3.405  1.00  0.00    -0.274 N 
HETATM    6  H   UNL     1      41.267 -17.708   3.561  1.00  0.00     0.189 HD
BRANCH   5   7
HETATM    7  C   UNL     1      40.398 -16.475   2.135  1.00  0.00     0.191 C 
HETATM    8  S   UNL     1      41.398 -16.543   0.794  1.00  0.00    -0.039 SA
BRANCH   7   9
HETATM    9  N   UNL     1      39.134 -15.982   1.972  1.00  0.00    -0.332 N 
HETATM   10  H   UNL     1      38.409 -16.665   2.174  1.00  0.00     0.168 HD
BRANCH   9  11
HETATM   11  C   UNL     1      38.680 -14.663   1.762  1.00  0.00     0.034 A 
HETATM   12  C   UNL     1      39.363 -13.639   2.422  1.00  0.00     0.032 A 
HETATM   13  C   UNL     1      38.998 -12.304   2.230  1.00  0.00     0.039 A 
HETATM   14  C   UNL     1      37.963 -11.967   1.356  1.00  0.00     0.068 A 
HETATM   15  C   UNL     1      37.293 -12.984   0.679  1.00  0.00     0.039 A 
HETATM   16  C   UNL     1      37.657 -14.323   0.874  1.00  0.00     0.032 A 
BRANCH  14  17
HETATM   17  O   UNL     1      37.716 -10.627   1.249  1.00  0.00    -0.356 OA
HETATM   18  C   UNL     1      37.331  -9.946   2.438  1.00  0.00     0.210 C 
ENDBRANCH  14  17
ENDBRANCH   9  11
ENDBRANCH   7   9
ENDBRANCH   5   7
ENDBRANCH   1   5
BRANCH   2  19
HETATM   19  C   UNL     1      42.794 -15.286   4.894  1.00  0.00     0.178 C 
BRANCH  19  20
HETATM   20  S   UNL     1      43.923 -15.326   6.327  1.00  0.00    -0.150 SA
BRANCH  20  21
HETATM   21  C   UNL     1      43.852 -17.079   6.815  1.00  0.00     0.177 C 
BRANCH  21  22
HETATM   22  C   UNL     1      43.359 -18.034   5.741  1.00  0.00     0.231 C 
HETATM   23  N   UNL     1      44.354 -18.527   4.918  1.00  0.00    -0.327 N 
HETATM   24  H   UNL     1      45.276 -18.123   5.040  1.00  0.00     0.169 HD
HETATM   25  O   UNL     1      42.177 -18.370   5.738  1.00  0.00    -0.272 OA
BRANCH  23  26
HETATM   26  C   UNL     1      44.225 -19.519   3.924  1.00  0.00     0.034 A 
HETATM   27  C   UNL     1      43.623 -19.308   2.682  1.00  0.00     0.029 A 
HETATM   28  C   UNL     1      43.512 -20.350   1.757  1.00  0.00     0.002 A 
HETATM   29  C   UNL     1      44.004 -21.615   2.064  1.00  0.00     0.000 A 
HETATM   30  C   UNL     1      44.613 -21.838   3.295  1.00  0.00     0.002 A 
HETATM   31  C   UNL     1      44.724 -20.795   4.222  1.00  0.00     0.029 A 
ENDBRANCH  23  26
ENDBRANCH  21  22
ENDBRANCH  20  21
ENDBRANCH  19  20
ENDBRANCH   2  19
TORSDOF 10
ENDMDL
MODEL 6
REMARK VINA RESULT:      -6.8      2.013      2.412
REMARK  10 active torsions:
REMARK  status: ('A' for Active; 'I' for Inactive)
REMARK    1  A    between atoms: O_2  and  C_3 
REMARK    2  A    between atoms: C_6  and  N_7 
REMARK    3  A    between atoms: N_7  and  C_8 
REMARK    4  A    between atoms: C_8  and  N_9 
REMARK    5  A    between atoms: N_9  and  N_10 
REMARK       I    between atoms: N_10  and  C_11 
REMARK    6  A    between atoms: C_11  and  C_12 
REMARK    7  A    between atoms: C_12  and  S_13 
REMARK    8  A    between atoms: S_13  and  C_14 
REMARK    9  A    between atoms: C_14  and  C_15 
REMARK       I    between atoms: C_15  and  N_16 
REMARK   10  A    between atoms: N_16  and  C_17 
ROOT
HETATM    1  N   UNL     1      39.982 -15.211   3.679  1.00  0.00    -0.267 N 
HETATM    2  C   UNL     1      39.838 -14.385   4.760  1.00  0.00     0.245 C 
HETATM    3  O   UNL     1      39.773 -14.879   5.887  1.00  0.00    -0.271 OA
HETATM    4  H   UNL     1      40.046 -16.211   3.861  1.00  0.00     0.190 HD
ENDROOT
BRANCH   1   5
HETATM    5  N   UNL     1      39.999 -14.803   2.348  1.00  0.00    -0.274 N 
HETATM    6  H   UNL     1      39.220 -14.247   2.000  1.00  0.00     0.189 HD
BRANCH   5   7
HETATM    7  C   UNL     1      41.057 -15.087   1.522  1.00  0.00     0.191 C 
HETATM    8  S   UNL     1      41.010 -15.001  -0.150  1.00  0.00    -0.039 SA
BRANCH   7   9
HETATM    9  N   UNL     1      42.211 -15.517   2.114  1.00  0.00    -0.332 N 
HETATM   10  H   UNL     1      42.693 -14.786   2.629  1.00  0.00     0.168 HD
BRANCH   9  11
HETATM   11  C   UNL     1      42.729 -16.819   2.281  1.00  0.00     0.034 A 
HETATM   12  C   UNL     1      43.523 -17.328   1.252  1.00  0.00     0.032 A 
HETATM   13  C   UNL     1      44.105 -18.594   1.365  1.00  0.00     0.039 A 
HETATM   14  C   UNL     1      43.926 -19.360   2.518  1.00  0.00     0.068 A 
HETATM   15  C   UNL     1      43.153 -18.847   3.556  1.00  0.00     0.039 A 
HETATM   16  C   UNL     1      42.565 -17.579   3.442  1.00  0.00     0.032 A 
BRANCH  14  17
HETATM   17  O   UNL     1      44.560 -20.571   2.506  1.00  0.00    -0.356 OA
HETATM   18  C   UNL     1      43.863 -21.656   1.906  1.00  0.00     0.210 C 
ENDBRANCH  14  17
ENDBRANCH   9  11
ENDBRANCH   7   9
ENDBRANCH   5   7
ENDBRANCH   1   5
BRANCH   2  19
HETATM   19  C   UNL     1      39.833 -12.880   4.579  1.00  0.00     0.178 C 
BRANCH  19  20
HETATM   20  S   UNL     1      41.458 -12.088   4.329  1.00  0.00    -0.150 SA
BRANCH  20  21
HETATM   21  C   UNL     1      42.386 -12.661   5.787  1.00  0.00     0.177 C 
BRANCH  21  22
HETATM   22  C   UNL     1      43.081 -14.002   5.631  1.00  0.00     0.231 C 
HETATM   23  N   UNL     1      42.943 -14.846   6.717  1.00  0.00    -0.327 N 
HETATM   24  H   UNL     1      42.494 -14.450   7.536  1.00  0.00     0.169 HD
HETATM   25  O   UNL     1      43.612 -14.278   4.557  1.00  0.00    -0.272 OA
BRANCH  23  26
HETATM   26  C   UNL     1      43.362 -16.189   6.813  1.00  0.00     0.034 A 
HETATM   27  C   UNL     1      42.519 -17.248   7.156  1.00  0.00     0.029 A 
HETATM   28  C   UNL     1      43.014 -18.551   7.255  1.00  0.00     0.002 A 
HETATM   29  C   UNL     1      44.360 -18.809   7.010  1.00  0.00     0.000 A 
HETATM   30  C   UNL     1      45.210 -17.765   6.660  1.00  0.00     0.002 A 
HETATM   31  C   UNL     1      44.714 -16.460   6.562  1.00  0.00     0.029 A 
ENDBRANCH  23  26
ENDBRANCH  21  22
ENDBRANCH  20  21
ENDBRANCH  19  20
ENDBRANCH   2  19
TORSDOF 10
ENDMDL
MODEL 7
REMARK VINA RESULT:      -6.7      3.529      6.818
REMARK  10 active torsions:
REMARK  status: ('A' for Active; 'I' for Inactive)
REMARK    1  A    between atoms: O_2  and  C_3 
REMARK    2  A    between atoms: C_6  and  N_7 
REMARK    3  A    between atoms: N_7  and  C_8 
REMARK    4  A    between atoms: C_8  and  N_9 
REMARK    5  A    between atoms: N_9  and  N_10 
REMARK       I    between atoms: N_10  and  C_11 
REMARK    6  A    between atoms: C_11  and  C_12 
REMARK    7  A    between atoms: C_12  and  S_13 
REMARK    8  A    between atoms: S_13  and  C_14 
REMARK    9  A    between atoms: C_14  and  C_15 
REMARK       I    between atoms: C_15  and  N_16 
REMARK   10  A    between atoms: N_16  and  C_17 
ROOT
HETATM    1  N   UNL     1      42.742 -15.089   2.324  1.00  0.00    -0.267 N 
HETATM    2  C   UNL     1      43.009 -14.295   3.406  1.00  0.00     0.245 C 
HETATM    3  O   UNL     1      44.079 -13.684   3.452  1.00  0.00    -0.271 OA
HETATM    4  H   UNL     1      43.445 -15.125   1.588  1.00  0.00     0.190 HD
ENDROOT
BRANCH   1   5
HETATM    5  N   UNL     1      41.613 -15.889   2.169  1.00  0.00    -0.274 N 
HETATM    6  H   UNL     1      41.529 -16.727   2.742  1.00  0.00     0.189 HD
BRANCH   5   7
HETATM    7  C   UNL     1      40.601 -15.546   1.308  1.00  0.00     0.191 C 
HETATM    8  S   UNL     1      39.129 -14.902   1.777  1.00  0.00    -0.039 SA
BRANCH   7   9
HETATM    9  N   UNL     1      40.802 -15.799  -0.020  1.00  0.00    -0.332 N 
HETATM   10  H   UNL     1      40.579 -16.754  -0.283  1.00  0.00     0.168 HD
BRANCH   9  11
HETATM   11  C   UNL     1      41.077 -14.924  -1.092  1.00  0.00     0.034 A 
HETATM   12  C   UNL     1      41.788 -13.758  -0.799  1.00  0.00     0.032 A 
HETATM   13  C   UNL     1      42.134 -12.864  -1.816  1.00  0.00     0.039 A 
HETATM   14  C   UNL     1      41.798 -13.131  -3.144  1.00  0.00     0.068 A 
HETATM   15  C   UNL     1      41.108 -14.303  -3.444  1.00  0.00     0.039 A 
HETATM   16  C   UNL     1      40.758 -15.199  -2.424  1.00  0.00     0.032 A 
BRANCH  14  17
HETATM   17  O   UNL     1      42.206 -12.184  -4.041  1.00  0.00    -0.356 OA
HETATM   18  C   UNL     1      42.206 -10.832  -3.595  1.00  0.00     0.210 C 
ENDBRANCH  14  17
ENDBRANCH   9  11
ENDBRANCH   7   9
ENDBRANCH   5   7
ENDBRANCH   1   5
BRANCH   2  19
HETATM   19  C   UNL     1      41.972 -14.113   4.496  1.00  0.00     0.178 C 
BRANCH  19  20
HETATM   20  S   UNL     1      41.901 -15.412   5.775  1.00  0.00    -0.150 SA
BRANCH  20  21
HETATM   21  C   UNL     1      43.394 -16.387   5.405  1.00  0.00     0.177 C 
BRANCH  21  22
HETATM   22  C   UNL     1      43.145 -17.816   4.958  1.00  0.00     0.231 C 
HETATM   23  N   UNL     1      44.277 -18.484   4.528  1.00  0.00    -0.327 N 
HETATM   24  H   UNL     1      45.122 -17.929   4.453  1.00  0.00     0.169 HD
HETATM   25  O   UNL     1      42.023 -18.298   5.094  1.00  0.00    -0.272 OA
BRANCH  23  26
HETATM   26  C   UNL     1      44.383 -19.846   4.178  1.00  0.00     0.034 A 
HETATM   27  C   UNL     1      44.690 -20.864   5.084  1.00  0.00     0.029 A 
HETATM   28  C   UNL     1      44.801 -22.190   4.655  1.00  0.00     0.002 A 
HETATM   29  C   UNL     1      44.604 -22.512   3.316  1.00  0.00     0.000 A 
HETATM   30  C   UNL     1      44.289 -21.509   2.404  1.00  0.00     0.002 A 
HETATM   31  C   UNL     1      44.179 -20.182   2.833  1.00  0.00     0.029 A 
ENDBRANCH  23  26
ENDBRANCH  21  22
ENDBRANCH  20  21
ENDBRANCH  19  20
ENDBRANCH   2  19
TORSDOF 10
ENDMDL
MODEL 8
REMARK VINA RESULT:      -6.6      2.069      4.834
REMARK  10 active torsions:
REMARK  status: ('A' for Active; 'I' for Inactive)
REMARK    1  A    between atoms: O_2  and  C_3 
REMARK    2  A    between atoms: C_6  and  N_7 
REMARK    3  A    between atoms: N_7  and  C_8 
REMARK    4  A    between atoms: C_8  and  N_9 
REMARK    5  A    between atoms: N_9  and  N_10 
REMARK       I    between atoms: N_10  and  C_11 
REMARK    6  A    between atoms: C_11  and  C_12 
REMARK    7  A    between atoms: C_12  and  S_13 
REMARK    8  A    between atoms: S_13  and  C_14 
REMARK    9  A    between atoms: C_14  and  C_15 
REMARK       I    between atoms: C_15  and  N_16 
REMARK   10  A    between atoms: N_16  and  C_17 
ROOT
HETATM    1  N   UNL     1      38.765 -13.376   2.297  1.00  0.00    -0.267 N 
HETATM    2  C   UNL     1      38.798 -14.118   1.148  1.00  0.00     0.245 C 
HETATM    3  O   UNL     1      37.760 -14.269   0.502  1.00  0.00    -0.271 OA
HETATM    4  H   UNL     1      37.872 -12.963   2.559  1.00  0.00     0.190 HD
ENDROOT
BRANCH   1   5
HETATM    5  N   UNL     1      39.838 -13.181   3.163  1.00  0.00    -0.274 N 
HETATM    6  H   UNL     1      40.676 -12.727   2.804  1.00  0.00     0.189 HD
BRANCH   5   7
HETATM    7  C   UNL     1      39.767 -13.535   4.486  1.00  0.00     0.191 C 
HETATM    8  S   UNL     1      39.643 -12.452   5.757  1.00  0.00    -0.039 SA
BRANCH   7   9
HETATM    9  N   UNL     1      39.856 -14.867   4.779  1.00  0.00    -0.332 N 
HETATM   10  H   UNL     1      39.048 -15.400   4.469  1.00  0.00     0.168 HD
BRANCH   9  11
HETATM   11  C   UNL     1      40.939 -15.634   5.258  1.00  0.00     0.034 A 
HETATM   12  C   UNL     1      42.180 -15.439   4.647  1.00  0.00     0.032 A 
HETATM   13  C   UNL     1      43.307 -16.133   5.096  1.00  0.00     0.039 A 
HETATM   14  C   UNL     1      43.221 -17.010   6.177  1.00  0.00     0.068 A 
HETATM   15  C   UNL     1      41.990 -17.190   6.804  1.00  0.00     0.039 A 
HETATM   16  C   UNL     1      40.858 -16.498   6.353  1.00  0.00     0.032 A 
BRANCH  14  17
HETATM   17  O   UNL     1      44.398 -17.612   6.523  1.00  0.00    -0.356 OA
HETATM   18  C   UNL     1      44.331 -18.645   7.499  1.00  0.00     0.210 C 
ENDBRANCH  14  17
ENDBRANCH   9  11
ENDBRANCH   7   9
ENDBRANCH   5   7
ENDBRANCH   1   5
BRANCH   2  19
HETATM   19  C   UNL     1      40.109 -14.685   0.640  1.00  0.00     0.178 C 
BRANCH  19  20
HETATM   20  S   UNL     1      40.681 -16.232   1.421  1.00  0.00    -0.150 SA
BRANCH  20  21
HETATM   21  C   UNL     1      42.295 -16.486   0.616  1.00  0.00     0.177 C 
BRANCH  21  22
HETATM   22  C   UNL     1      43.268 -17.372   1.375  1.00  0.00     0.231 C 
HETATM   23  N   UNL     1      42.721 -18.554   1.837  1.00  0.00    -0.327 N 
HETATM   24  H   UNL     1      41.718 -18.658   1.721  1.00  0.00     0.169 HD
HETATM   25  O   UNL     1      44.450 -17.043   1.438  1.00  0.00    -0.272 OA
BRANCH  23  26
HETATM   26  C   UNL     1      43.399 -19.625   2.455  1.00  0.00     0.034 A 
HETATM   27  C   UNL     1      44.027 -19.536   3.700  1.00  0.00     0.029 A 
HETATM   28  C   UNL     1      44.702 -20.636   4.238  1.00  0.00     0.002 A 
HETATM   29  C   UNL     1      44.753 -21.838   3.537  1.00  0.00     0.000 A 
HETATM   30  C   UNL     1      44.125 -21.942   2.299  1.00  0.00     0.002 A 
HETATM   31  C   UNL     1      43.451 -20.840   1.760  1.00  0.00     0.029 A 
ENDBRANCH  23  26
ENDBRANCH  21  22
ENDBRANCH  20  21
ENDBRANCH  19  20
ENDBRANCH   2  19
TORSDOF 10
ENDMDL
MODEL 9
REMARK VINA RESULT:      -6.6      3.547      6.980
REMARK  10 active torsions:
REMARK  status: ('A' for Active; 'I' for Inactive)
REMARK    1  A    between atoms: O_2  and  C_3 
REMARK    2  A    between atoms: C_6  and  N_7 
REMARK    3  A    between atoms: N_7  and  C_8 
REMARK    4  A    between atoms: C_8  and  N_9 
REMARK    5  A    between atoms: N_9  and  N_10 
REMARK       I    between atoms: N_10  and  C_11 
REMARK    6  A    between atoms: C_11  and  C_12 
REMARK    7  A    between atoms: C_12  and  S_13 
REMARK    8  A    between atoms: S_13  and  C_14 
REMARK    9  A    between atoms: C_14  and  C_15 
REMARK       I    between atoms: C_15  and  N_16 
REMARK   10  A    between atoms: N_16  and  C_17 
ROOT
HETATM    1  N   UNL     1      40.555 -13.480   1.811  1.00  0.00    -0.267 N 
HETATM    2  C   UNL     1      40.499 -13.261   3.160  1.00  0.00     0.245 C 
HETATM    3  O   UNL     1      39.471 -12.787   3.649  1.00  0.00    -0.271 OA
HETATM    4  H   UNL     1      39.725 -13.250   1.267  1.00  0.00     0.190 HD
ENDROOT
BRANCH   1   5
HETATM    5  N   UNL     1      41.668 -13.941   1.114  1.00  0.00    -0.274 N 
HETATM    6  H   UNL     1      42.580 -13.548   1.340  1.00  0.00     0.189 HD
BRANCH   5   7
HETATM    7  C   UNL     1      41.568 -14.939   0.178  1.00  0.00     0.191 C 
HETATM    8  S   UNL     1      41.736 -16.572   0.506  1.00  0.00    -0.039 SA
BRANCH   7   9
HETATM    9  N   UNL     1      41.366 -14.558  -1.119  1.00  0.00    -0.332 N 
HETATM   10  H   UNL     1      42.185 -14.131  -1.543  1.00  0.00     0.168 HD
BRANCH   9  11
HETATM   11  C   UNL     1      40.297 -14.826  -2.000  1.00  0.00     0.034 A 
HETATM   12  C   UNL     1      39.124 -14.089  -1.826  1.00  0.00     0.032 A 
HETATM   13  C   UNL     1      38.038 -14.270  -2.687  1.00  0.00     0.039 A 
HETATM   14  C   UNL     1      38.115 -15.168  -3.752  1.00  0.00     0.068 A 
HETATM   15  C   UNL     1      39.292 -15.889  -3.943  1.00  0.00     0.039 A 
HETATM   16  C   UNL     1      40.380 -15.711  -3.078  1.00  0.00     0.032 A 
BRANCH  14  17
HETATM   17  O   UNL     1      36.990 -15.239  -4.525  1.00  0.00    -0.356 OA
HETATM   18  C   UNL     1      36.259 -14.033  -4.711  1.00  0.00     0.210 C 
ENDBRANCH  14  17
ENDBRANCH   9  11
ENDBRANCH   7   9
ENDBRANCH   5   7
ENDBRANCH   1   5
BRANCH   2  19
HETATM   19  C   UNL     1      41.656 -13.667   4.051  1.00  0.00     0.178 C 
BRANCH  19  20
HETATM   20  S   UNL     1      41.507 -15.278   4.894  1.00  0.00    -0.150 SA
BRANCH  20  21
HETATM   21  C   UNL     1      42.991 -16.153   4.303  1.00  0.00     0.177 C 
BRANCH  21  22
HETATM   22  C   UNL     1      42.824 -17.647   4.091  1.00  0.00     0.231 C 
HETATM   23  N   UNL     1      43.908 -18.261   3.492  1.00  0.00    -0.327 N 
HETATM   24  H   UNL     1      44.644 -17.646   3.162  1.00  0.00     0.169 HD
HETATM   25  O   UNL     1      41.824 -18.206   4.535  1.00  0.00    -0.272 OA
BRANCH  23  26
HETATM   26  C   UNL     1      44.099 -19.643   3.285  1.00  0.00     0.034 A 
HETATM   27  C   UNL     1      43.746 -20.313   2.112  1.00  0.00     0.029 A 
HETATM   28  C   UNL     1      43.944 -21.691   1.990  1.00  0.00     0.002 A 
HETATM   29  C   UNL     1      44.502 -22.414   3.040  1.00  0.00     0.000 A 
HETATM   30  C   UNL     1      44.866 -21.758   4.212  1.00  0.00     0.002 A 
HETATM   31  C   UNL     1      44.666 -20.378   4.334  1.00  0.00     0.029 A 
ENDBRANCH  23  26
ENDBRANCH  21  22
ENDBRANCH  20  21
ENDBRANCH  19  20
ENDBRANCH   2  19
TORSDOF 10
ENDMDL
MODEL 10
REMARK VINA RESULT:      -6.6      5.596      9.292
REMARK  10 active torsions:
REMARK  status: ('A' for Active; 'I' for Inactive)
REMARK    1  A    between atoms: O_2  and  C_3 
REMARK    2  A    between atoms: C_6  and  N_7 
REMARK    3  A    between atoms: N_7  and  C_8 
REMARK    4  A    between atoms: C_8  and  N_9 
REMARK    5  A    between atoms: N_9  and  N_10 
REMARK       I    between atoms: N_10  and  C_11 
REMARK    6  A    between atoms: C_11  and  C_12 
REMARK    7  A    between atoms: C_12  and  S_13 
REMARK    8  A    between atoms: S_13  and  C_14 
REMARK    9  A    between atoms: C_14  and  C_15 
REMARK       I    between atoms: C_15  and  N_16 
REMARK   10  A    between atoms: N_16  and  C_17 
ROOT
HETATM    1  N   UNL     1      40.548 -11.977   7.079  1.00  0.00    -0.267 N 
HETATM    2  C   UNL     1      40.285 -12.871   6.077  1.00  0.00     0.245 C 
HETATM    3  O   UNL     1      39.115 -13.172   5.833  1.00  0.00    -0.271 OA
HETATM    4  H   UNL     1      39.749 -11.584   7.574  1.00  0.00     0.190 HD
ENDROOT
BRANCH   1   5
HETATM    5  N   UNL     1      41.816 -11.599   7.512  1.00  0.00    -0.274 N 
HETATM    6  H   UNL     1      42.628 -12.006   7.050  1.00  0.00     0.189 HD
BRANCH   5   7
HETATM    7  C   UNL     1      41.989 -10.663   8.499  1.00  0.00     0.191 C 
HETATM    8  S   UNL     1      41.327  -9.125   8.479  1.00  0.00    -0.039 SA
BRANCH   7   9
HETATM    9  N   UNL     1      42.802 -11.002   9.544  1.00  0.00    -0.332 N 
HETATM   10  H   UNL     1      43.735 -11.280   9.251  1.00  0.00     0.168 HD
BRANCH   9  11
HETATM   11  C   UNL     1      42.625 -10.851  10.935  1.00  0.00     0.034 A 
HETATM   12  C   UNL     1      43.614 -10.157  11.634  1.00  0.00     0.032 A 
HETATM   13  C   UNL     1      43.485  -9.932  13.008  1.00  0.00     0.039 A 
HETATM   14  C   UNL     1      42.357 -10.372  13.700  1.00  0.00     0.068 A 
HETATM   15  C   UNL     1      41.357 -11.046  13.002  1.00  0.00     0.039 A 
HETATM   16  C   UNL     1      41.486 -11.276  11.625  1.00  0.00     0.032 A 
BRANCH  14  17
HETATM   17  O   UNL     1      42.350 -10.076  15.034  1.00  0.00    -0.356 OA
HETATM   18  C   UNL     1      41.537  -8.984  15.447  1.00  0.00     0.210 C 
ENDBRANCH  14  17
ENDBRANCH   9  11
ENDBRANCH   7   9
ENDBRANCH   5   7
ENDBRANCH   1   5
BRANCH   2  19
HETATM   19  C   UNL     1      41.414 -13.426   5.231  1.00  0.00     0.178 C 
BRANCH  19  20
HETATM   20  S   UNL     1      41.085 -15.001   4.370  1.00  0.00    -0.150 SA
BRANCH  20  21
HETATM   21  C   UNL     1      42.579 -15.965   4.761  1.00  0.00     0.177 C 
BRANCH  21  22
HETATM   22  C   UNL     1      42.500 -17.447   4.442  1.00  0.00     0.231 C 
HETATM   23  N   UNL     1      43.588 -17.939   3.746  1.00  0.00    -0.327 N 
HETATM   24  H   UNL     1      44.263 -17.251   3.429  1.00  0.00     0.169 HD
HETATM   25  O   UNL     1      41.564 -18.106   4.890  1.00  0.00    -0.272 OA
BRANCH  23  26
HETATM   26  C   UNL     1      43.858 -19.285   3.423  1.00  0.00     0.034 A 
HETATM   27  C   UNL     1      44.557 -20.163   4.253  1.00  0.00     0.029 A 
HETATM   28  C   UNL     1      44.807 -21.478   3.852  1.00  0.00     0.002 A 
HETATM   29  C   UNL     1      44.356 -21.931   2.615  1.00  0.00     0.000 A 
HETATM   30  C   UNL     1      43.651 -21.069   1.781  1.00  0.00     0.002 A 
HETATM   31  C   UNL     1      43.403 -19.751   2.182  1.00  0.00     0.029 A 
ENDBRANCH  23  26
ENDBRANCH  21  22
ENDBRANCH  20  21
ENDBRANCH  19  20
ENDBRANCH   2  19
TORSDOF 10
ENDMDL
