MODEL 1
REMARK VINA RESULT:      -8.7      0.000      0.000
REMARK  2 active torsions:
REMARK  status: ('A' for Active; 'I' for Inactive)
REMARK    1  A    between atoms: C_5  and  C_6 
REMARK       I    between atoms: C_6  and  N_7 
REMARK    2  A    between atoms: N_7  and  N_8 
ROOT
HETATM    1  N   UNL     1      42.003 -16.852   0.261  1.00  0.00    -0.282 N 
HETATM    2  C   UNL     1      41.240 -15.773   0.396  1.00  0.00     0.127 C 
HETATM    3  C   UNL     1      41.010 -14.895  -0.782  1.00  0.00     0.015 A 
HETATM    4  C   UNL     1      40.566 -13.574  -0.570  1.00  0.00    -0.042 A 
HETATM    5  C   UNL     1      40.374 -12.702  -1.650  1.00  0.00     0.008 A 
HETATM    6  C   UNL     1      40.581 -13.149  -2.952  1.00  0.00     0.001 A 
HETATM    7  C   UNL     1      40.980 -14.463  -3.180  1.00  0.00     0.001 A 
HETATM    8  C   UNL     1      41.191 -15.331  -2.106  1.00  0.00     0.016 A 
HETATM    9  C   UNL     1      40.334 -13.097   0.841  1.00  0.00     0.069 C 
HETATM   10  C   UNL     1      39.827 -14.240   1.743  1.00  0.00     0.028 C 
HETATM   11  C   UNL     1      39.936 -13.823   3.214  1.00  0.00     0.038 C 
HETATM   12  C   UNL     1      38.380 -14.638   1.429  1.00  0.00     0.038 C 
HETATM   13  N   UNL     1      40.681 -15.446   1.560  1.00  0.00    -0.366 N 
HETATM   14  H   UNL     1      40.854 -16.032   2.358  1.00  0.00     0.162 HD
HETATM   15  H   UNL     1      42.472 -16.983  -0.645  1.00  0.00     0.188 HD
ENDROOT
BRANCH   1  16
HETATM   16  N   UNL     1      42.267 -17.797   1.161  1.00  0.00    -0.264 N 
HETATM   17  C   UNL     1      43.594 -17.870   1.563  1.00  0.00     0.270 C 
HETATM   18  O   UNL     1      44.419 -17.069   1.129  1.00  0.00    -0.266 OA
HETATM   19  H   UNL     1      41.551 -18.401   1.546  1.00  0.00     0.190 HD
BRANCH  17  20
HETATM   20  C   UNL     1      43.959 -18.921   2.546  1.00  0.00     0.033 A 
HETATM   21  C   UNL     1      44.114 -18.652   3.911  1.00  0.00     0.017 A 
HETATM   22  C   UNL     1      44.452 -19.685   4.791  1.00  0.00     0.007 A 
HETATM   23  C   UNL     1      44.640 -20.990   4.320  1.00  0.00    -0.062 A 
HETATM   24  C   UNL     1      44.960 -22.110   5.269  1.00  0.00     0.048 C 
HETATM   25  C   UNL     1      44.455 -21.257   2.958  1.00  0.00     0.007 A 
HETATM   26  C   UNL     1      44.117 -20.230   2.076  1.00  0.00     0.017 A 
ENDBRANCH  17  20
ENDBRANCH   1  16
TORSDOF 2
ENDMDL
MODEL 2
REMARK VINA RESULT:      -8.6      2.628      8.179
REMARK  2 active torsions:
REMARK  status: ('A' for Active; 'I' for Inactive)
REMARK    1  A    between atoms: C_5  and  C_6 
REMARK       I    between atoms: C_6  and  N_7 
REMARK    2  A    between atoms: N_7  and  N_8 
ROOT
HETATM    1  N   UNL     1      42.308 -17.611   3.379  1.00  0.00    -0.282 N 
HETATM    2  C   UNL     1      43.030 -18.182   4.337  1.00  0.00     0.127 C 
HETATM    3  C   UNL     1      43.682 -19.492   4.071  1.00  0.00     0.015 A 
HETATM    4  C   UNL     1      44.089 -20.284   5.164  1.00  0.00    -0.042 A 
HETATM    5  C   UNL     1      44.672 -21.541   4.958  1.00  0.00     0.008 A 
HETATM    6  C   UNL     1      44.893 -22.003   3.664  1.00  0.00     0.001 A 
HETATM    7  C   UNL     1      44.534 -21.216   2.574  1.00  0.00     0.001 A 
HETATM    8  C   UNL     1      43.935 -19.969   2.774  1.00  0.00     0.016 A 
HETATM    9  C   UNL     1      43.857 -19.775   6.564  1.00  0.00     0.069 C 
HETATM   10  C   UNL     1      43.979 -18.240   6.630  1.00  0.00     0.028 C 
HETATM   11  C   UNL     1      43.403 -17.733   7.957  1.00  0.00     0.038 C 
HETATM   12  C   UNL     1      45.427 -17.759   6.483  1.00  0.00     0.038 C 
HETATM   13  N   UNL     1      43.181 -17.621   5.536  1.00  0.00    -0.366 N 
HETATM   14  H   UNL     1      42.723 -16.744   5.717  1.00  0.00     0.162 HD
HETATM   15  H   UNL     1      42.163 -18.153   2.517  1.00  0.00     0.188 HD
ENDROOT
BRANCH   1  16
HETATM   16  N   UNL     1      41.714 -16.420   3.389  1.00  0.00    -0.264 N 
HETATM   17  C   UNL     1      40.642 -16.291   2.517  1.00  0.00     0.270 C 
HETATM   18  O   UNL     1      40.274 -17.249   1.840  1.00  0.00    -0.266 OA
HETATM   19  H   UNL     1      42.003 -15.671   4.005  1.00  0.00     0.190 HD
BRANCH  17  20
HETATM   20  C   UNL     1      39.953 -14.977   2.461  1.00  0.00     0.033 A 
HETATM   21  C   UNL     1      40.260 -13.930   3.338  1.00  0.00     0.017 A 
HETATM   22  C   UNL     1      39.582 -12.711   3.232  1.00  0.00     0.007 A 
HETATM   23  C   UNL     1      38.595 -12.526   2.256  1.00  0.00    -0.062 A 
HETATM   24  C   UNL     1      37.897 -11.204   2.112  1.00  0.00     0.048 C 
HETATM   25  C   UNL     1      38.314 -13.568   1.364  1.00  0.00     0.007 A 
HETATM   26  C   UNL     1      38.988 -14.786   1.465  1.00  0.00     0.017 A 
ENDBRANCH  17  20
ENDBRANCH   1  16
TORSDOF 2
ENDMDL
MODEL 3
REMARK VINA RESULT:      -8.3      2.354      7.794
REMARK  2 active torsions:
REMARK  status: ('A' for Active; 'I' for Inactive)
REMARK    1  A    between atoms: C_5  and  C_6 
REMARK       I    between atoms: C_6  and  N_7 
REMARK    2  A    between atoms: N_7  and  N_8 
ROOT
HETATM    1  N   UNL     1      40.797 -17.074   1.734  1.00  0.00    -0.282 N 
HETATM    2  C   UNL     1      41.464 -17.151   2.880  1.00  0.00     0.127 C 
HETATM    3  C   UNL     1      42.542 -18.165   3.025  1.00  0.00     0.015 A 
HETATM    4  C   UNL     1      42.963 -18.530   4.321  1.00  0.00    -0.042 A 
HETATM    5  C   UNL     1      43.948 -19.509   4.503  1.00  0.00     0.008 A 
HETATM    6  C   UNL     1      44.553 -20.103   3.398  1.00  0.00     0.001 A 
HETATM    7  C   UNL     1      44.178 -19.723   2.113  1.00  0.00     0.001 A 
HETATM    8  C   UNL     1      43.182 -18.761   1.926  1.00  0.00     0.016 A 
HETATM    9  C   UNL     1      42.311 -17.877   5.513  1.00  0.00     0.069 C 
HETATM   10  C   UNL     1      41.916 -16.419   5.208  1.00  0.00     0.028 C 
HETATM   11  C   UNL     1      40.962 -15.906   6.292  1.00  0.00     0.038 C 
HETATM   12  C   UNL     1      43.132 -15.489   5.114  1.00  0.00     0.038 C 
HETATM   13  N   UNL     1      41.190 -16.352   3.910  1.00  0.00    -0.366 N 
HETATM   14  H   UNL     1      40.448 -15.681   3.814  1.00  0.00     0.162 HD
HETATM   15  H   UNL     1      41.005 -17.788   1.023  1.00  0.00     0.188 HD
ENDROOT
BRANCH   1  16
HETATM   16  N   UNL     1      39.860 -16.197   1.379  1.00  0.00    -0.264 N 
HETATM   17  C   UNL     1      40.312 -15.136   0.607  1.00  0.00     0.270 C 
HETATM   18  O   UNL     1      41.490 -15.078   0.260  1.00  0.00    -0.266 OA
HETATM   19  H   UNL     1      38.885 -16.308   1.629  1.00  0.00     0.190 HD
BRANCH  17  20
HETATM   20  C   UNL     1      39.321 -14.108   0.201  1.00  0.00     0.033 A 
HETATM   21  C   UNL     1      39.484 -13.319  -0.944  1.00  0.00     0.017 A 
HETATM   22  C   UNL     1      38.512 -12.371  -1.281  1.00  0.00     0.007 A 
HETATM   23  C   UNL     1      37.375 -12.200  -0.481  1.00  0.00    -0.062 A 
HETATM   24  C   UNL     1      36.309 -11.213  -0.864  1.00  0.00     0.048 C 
HETATM   25  C   UNL     1      37.206 -13.013   0.646  1.00  0.00     0.007 A 
HETATM   26  C   UNL     1      38.172 -13.961   0.986  1.00  0.00     0.017 A 
ENDBRANCH  17  20
ENDBRANCH   1  16
TORSDOF 2
ENDMDL
MODEL 4
REMARK VINA RESULT:      -8.3      1.992      3.394
REMARK  2 active torsions:
REMARK  status: ('A' for Active; 'I' for Inactive)
REMARK    1  A    between atoms: C_5  and  C_6 
REMARK       I    between atoms: C_6  and  N_7 
REMARK    2  A    between atoms: N_7  and  N_8 
ROOT
HETATM    1  N   UNL     1      39.886 -15.769   1.457  1.00  0.00    -0.282 N 
HETATM    2  C   UNL     1      39.847 -15.066   0.330  1.00  0.00     0.127 C 
HETATM    3  C   UNL     1      38.884 -13.939   0.212  1.00  0.00     0.015 A 
HETATM    4  C   UNL     1      38.546 -13.466  -1.073  1.00  0.00    -0.042 A 
HETATM    5  C   UNL     1      37.614 -12.432  -1.230  1.00  0.00     0.008 A 
HETATM    6  C   UNL     1      37.042 -11.832  -0.112  1.00  0.00     0.001 A 
HETATM    7  C   UNL     1      37.397 -12.261   1.163  1.00  0.00     0.001 A 
HETATM    8  C   UNL     1      38.311 -13.304   1.326  1.00  0.00     0.016 A 
HETATM    9  C   UNL     1      39.175 -14.112  -2.280  1.00  0.00     0.069 C 
HETATM   10  C   UNL     1      40.612 -14.582  -1.981  1.00  0.00     0.028 C 
HETATM   11  C   UNL     1      41.087 -15.528  -3.089  1.00  0.00     0.038 C 
HETATM   12  C   UNL     1      41.596 -13.414  -1.847  1.00  0.00     0.038 C 
HETATM   13  N   UNL     1      40.639 -15.347  -0.704  1.00  0.00    -0.366 N 
HETATM   14  H   UNL     1      41.275 -16.122  -0.625  1.00  0.00     0.162 HD
HETATM   15  H   UNL     1      39.180 -15.549   2.171  1.00  0.00     0.188 HD
ENDROOT
BRANCH   1  16
HETATM   16  N   UNL     1      40.718 -16.755   1.790  1.00  0.00    -0.264 N 
HETATM   17  C   UNL     1      41.369 -16.589   3.004  1.00  0.00     0.270 C 
HETATM   18  O   UNL     1      41.127 -15.612   3.710  1.00  0.00    -0.266 OA
HETATM   19  H   UNL     1      40.847 -17.577   1.214  1.00  0.00     0.190 HD
BRANCH  17  20
HETATM   20  C   UNL     1      42.331 -17.641   3.420  1.00  0.00     0.033 A 
HETATM   21  C   UNL     1      42.628 -17.899   4.763  1.00  0.00     0.017 A 
HETATM   22  C   UNL     1      43.538 -18.908   5.094  1.00  0.00     0.007 A 
HETATM   23  C   UNL     1      44.158 -19.665   4.092  1.00  0.00    -0.062 A 
HETATM   24  C   UNL     1      45.102 -20.779   4.447  1.00  0.00     0.048 C 
HETATM   25  C   UNL     1      43.834 -19.421   2.753  1.00  0.00     0.007 A 
HETATM   26  C   UNL     1      42.927 -18.415   2.417  1.00  0.00     0.017 A 
ENDBRANCH  17  20
ENDBRANCH   1  16
TORSDOF 2
ENDMDL
MODEL 5
REMARK VINA RESULT:      -8.3      1.838      4.036
REMARK  2 active torsions:
REMARK  status: ('A' for Active; 'I' for Inactive)
REMARK    1  A    between atoms: C_5  and  C_6 
REMARK       I    between atoms: C_6  and  N_7 
REMARK    2  A    between atoms: N_7  and  N_8 
ROOT
HETATM    1  N   UNL     1      40.505 -15.855   3.771  1.00  0.00    -0.282 N 
HETATM    2  C   UNL     1      40.271 -14.813   2.981  1.00  0.00     0.127 C 
HETATM    3  C   UNL     1      39.742 -13.557   3.574  1.00  0.00     0.015 A 
HETATM    4  C   UNL     1      39.116 -12.617   2.729  1.00  0.00    -0.042 A 
HETATM    5  C   UNL     1      38.570 -11.438   3.253  1.00  0.00     0.008 A 
HETATM    6  C   UNL     1      38.677 -11.165   4.614  1.00  0.00     0.001 A 
HETATM    7  C   UNL     1      39.328 -12.064   5.454  1.00  0.00     0.001 A 
HETATM    8  C   UNL     1      39.858 -13.249   4.940  1.00  0.00     0.016 A 
HETATM    9  C   UNL     1      39.010 -12.913   1.255  1.00  0.00     0.069 C 
HETATM   10  C   UNL     1      40.228 -13.715   0.755  1.00  0.00     0.028 C 
HETATM   11  C   UNL     1      39.931 -14.292  -0.633  1.00  0.00     0.038 C 
HETATM   12  C   UNL     1      41.505 -12.867   0.696  1.00  0.00     0.038 C 
HETATM   13  N   UNL     1      40.487 -14.863   1.667  1.00  0.00    -0.366 N 
HETATM   14  H   UNL     1      40.828 -15.720   1.268  1.00  0.00     0.162 HD
HETATM   15  H   UNL     1      40.224 -15.767   4.757  1.00  0.00     0.188 HD
ENDROOT
BRANCH   1  16
HETATM   16  N   UNL     1      41.045 -17.031   3.454  1.00  0.00    -0.264 N 
HETATM   17  C   UNL     1      42.385 -17.170   3.786  1.00  0.00     0.270 C 
HETATM   18  O   UNL     1      42.977 -16.266   4.373  1.00  0.00    -0.266 OA
HETATM   19  H   UNL     1      40.512 -17.778   3.027  1.00  0.00     0.190 HD
BRANCH  17  20
HETATM   20  C   UNL     1      43.053 -18.448   3.434  1.00  0.00     0.033 A 
HETATM   21  C   UNL     1      43.955 -19.086   4.293  1.00  0.00     0.017 A 
HETATM   22  C   UNL     1      44.548 -20.294   3.910  1.00  0.00     0.007 A 
HETATM   23  C   UNL     1      44.249 -20.873   2.670  1.00  0.00    -0.062 A 
HETATM   24  C   UNL     1      44.851 -22.191   2.275  1.00  0.00     0.048 C 
HETATM   25  C   UNL     1      43.324 -20.244   1.829  1.00  0.00     0.007 A 
HETATM   26  C   UNL     1      42.729 -19.039   2.206  1.00  0.00     0.017 A 
ENDBRANCH  17  20
ENDBRANCH   1  16
TORSDOF 2
ENDMDL
MODEL 6
REMARK VINA RESULT:      -8.1      3.980      8.468
REMARK  2 active torsions:
REMARK  status: ('A' for Active; 'I' for Inactive)
REMARK    1  A    between atoms: C_5  and  C_6 
REMARK       I    between atoms: C_6  and  N_7 
REMARK    2  A    between atoms: N_7  and  N_8 
ROOT
HETATM    1  N   UNL     1      43.319 -16.764   5.705  1.00  0.00    -0.282 N 
HETATM    2  C   UNL     1      43.514 -17.652   4.736  1.00  0.00     0.127 C 
HETATM    3  C   UNL     1      43.852 -19.055   5.094  1.00  0.00     0.015 A 
HETATM    4  C   UNL     1      44.449 -19.881   4.120  1.00  0.00    -0.042 A 
HETATM    5  C   UNL     1      44.818 -21.196   4.427  1.00  0.00     0.008 A 
HETATM    6  C   UNL     1      44.560 -21.715   5.693  1.00  0.00     0.001 A 
HETATM    7  C   UNL     1      43.934 -20.926   6.652  1.00  0.00     0.001 A 
HETATM    8  C   UNL     1      43.580 -19.607   6.357  1.00  0.00     0.016 A 
HETATM    9  C   UNL     1      44.718 -19.317   2.748  1.00  0.00     0.069 C 
HETATM   10  C   UNL     1      43.642 -18.291   2.341  1.00  0.00     0.028 C 
HETATM   11  C   UNL     1      44.123 -17.494   1.124  1.00  0.00     0.038 C 
HETATM   12  C   UNL     1      42.294 -18.949   2.023  1.00  0.00     0.038 C 
HETATM   13  N   UNL     1      43.424 -17.321   3.449  1.00  0.00    -0.366 N 
HETATM   14  H   UNL     1      43.213 -16.367   3.211  1.00  0.00     0.162 HD
HETATM   15  H   UNL     1      43.499 -17.077   6.668  1.00  0.00     0.188 HD
ENDROOT
BRANCH   1  16
HETATM   16  N   UNL     1      42.938 -15.493   5.599  1.00  0.00    -0.264 N 
HETATM   17  C   UNL     1      41.590 -15.263   5.838  1.00  0.00     0.270 C 
HETATM   18  O   UNL     1      40.851 -16.188   6.168  1.00  0.00    -0.266 OA
HETATM   19  H   UNL     1      43.585 -14.744   5.387  1.00  0.00     0.190 HD
BRANCH  17  20
HETATM   20  C   UNL     1      41.095 -13.869   5.709  1.00  0.00     0.033 A 
HETATM   21  C   UNL     1      41.959 -12.775   5.575  1.00  0.00     0.017 A 
HETATM   22  C   UNL     1      41.434 -11.485   5.450  1.00  0.00     0.007 A 
HETATM   23  C   UNL     1      40.050 -11.274   5.459  1.00  0.00    -0.062 A 
HETATM   24  C   UNL     1      39.483  -9.894   5.280  1.00  0.00     0.048 C 
HETATM   25  C   UNL     1      39.193 -12.375   5.564  1.00  0.00     0.007 A 
HETATM   26  C   UNL     1      39.711 -13.665   5.688  1.00  0.00     0.017 A 
ENDBRANCH  17  20
ENDBRANCH   1  16
TORSDOF 2
ENDMDL
MODEL 7
REMARK VINA RESULT:      -8.0      1.396      1.846
REMARK  2 active torsions:
REMARK  status: ('A' for Active; 'I' for Inactive)
REMARK    1  A    between atoms: C_5  and  C_6 
REMARK       I    between atoms: C_6  and  N_7 
REMARK    2  A    between atoms: N_7  and  N_8 
ROOT
HETATM    1  N   UNL     1      42.078 -15.870  -0.339  1.00  0.00    -0.282 N 
HETATM    2  C   UNL     1      41.390 -14.756  -0.112  1.00  0.00     0.127 C 
HETATM    3  C   UNL     1      40.588 -14.162  -1.214  1.00  0.00     0.015 A 
HETATM    4  C   UNL     1      40.201 -12.809  -1.122  1.00  0.00    -0.042 A 
HETATM    5  C   UNL     1      39.478 -12.201  -2.155  1.00  0.00     0.008 A 
HETATM    6  C   UNL     1      39.099 -12.942  -3.271  1.00  0.00     0.001 A 
HETATM    7  C   UNL     1      39.438 -14.288  -3.358  1.00  0.00     0.001 A 
HETATM    8  C   UNL     1      40.175 -14.896  -2.339  1.00  0.00     0.016 A 
HETATM    9  C   UNL     1      40.606 -12.014   0.093  1.00  0.00     0.069 C 
HETATM   10  C   UNL     1      40.646 -12.898   1.355  1.00  0.00     0.028 C 
HETATM   11  C   UNL     1      41.385 -12.161   2.478  1.00  0.00     0.038 C 
HETATM   12  C   UNL     1      39.246 -13.295   1.838  1.00  0.00     0.038 C 
HETATM   13  N   UNL     1      41.402 -14.149   1.074  1.00  0.00    -0.366 N 
HETATM   14  H   UNL     1      41.960 -14.544   1.810  1.00  0.00     0.162 HD
HETATM   15  H   UNL     1      42.091 -16.223  -1.304  1.00  0.00     0.188 HD
ENDROOT
BRANCH   1  16
HETATM   16  N   UNL     1      42.788 -16.594   0.524  1.00  0.00    -0.264 N 
HETATM   17  C   UNL     1      42.072 -17.578   1.193  1.00  0.00     0.270 C 
HETATM   18  O   UNL     1      40.884 -17.761   0.939  1.00  0.00    -0.266 OA
HETATM   19  H   UNL     1      43.781 -16.458   0.665  1.00  0.00     0.190 HD
BRANCH  17  20
HETATM   20  C   UNL     1      42.801 -18.403   2.190  1.00  0.00     0.033 A 
HETATM   21  C   UNL     1      43.562 -19.520   1.827  1.00  0.00     0.017 A 
HETATM   22  C   UNL     1      44.233 -20.255   2.810  1.00  0.00     0.007 A 
HETATM   23  C   UNL     1      44.149 -19.885   4.158  1.00  0.00    -0.062 A 
HETATM   24  C   UNL     1      44.904 -20.646   5.210  1.00  0.00     0.048 C 
HETATM   25  C   UNL     1      43.410 -18.750   4.509  1.00  0.00     0.007 A 
HETATM   26  C   UNL     1      42.739 -18.012   3.532  1.00  0.00     0.017 A 
ENDBRANCH  17  20
ENDBRANCH   1  16
TORSDOF 2
ENDMDL
MODEL 8
REMARK VINA RESULT:      -7.9      1.832      7.632
REMARK  2 active torsions:
REMARK  status: ('A' for Active; 'I' for Inactive)
REMARK    1  A    between atoms: C_5  and  C_6 
REMARK       I    between atoms: C_6  and  N_7 
REMARK    2  A    between atoms: N_7  and  N_8 
ROOT
HETATM    1  N   UNL     1      43.181 -17.539   1.629  1.00  0.00    -0.282 N 
HETATM    2  C   UNL     1      43.075 -17.450   2.950  1.00  0.00     0.127 C 
HETATM    3  C   UNL     1      43.597 -18.557   3.796  1.00  0.00     0.015 A 
HETATM    4  C   UNL     1      43.138 -18.672   5.124  1.00  0.00    -0.042 A 
HETATM    5  C   UNL     1      43.574 -19.722   5.942  1.00  0.00     0.008 A 
HETATM    6  C   UNL     1      44.501 -20.642   5.460  1.00  0.00     0.001 A 
HETATM    7  C   UNL     1      44.994 -20.518   4.165  1.00  0.00     0.001 A 
HETATM    8  C   UNL     1      44.548 -19.484   3.338  1.00  0.00     0.016 A 
HETATM    9  C   UNL     1      42.141 -17.668   5.645  1.00  0.00     0.069 C 
HETATM   10  C   UNL     1      42.369 -16.277   5.020  1.00  0.00     0.028 C 
HETATM   11  C   UNL     1      41.152 -15.385   5.292  1.00  0.00     0.038 C 
HETATM   12  C   UNL     1      43.634 -15.594   5.553  1.00  0.00     0.038 C 
HETATM   13  N   UNL     1      42.507 -16.401   3.543  1.00  0.00    -0.366 N 
HETATM   14  H   UNL     1      42.140 -15.664   2.967  1.00  0.00     0.162 HD
HETATM   15  H   UNL     1      43.547 -18.421   1.247  1.00  0.00     0.188 HD
ENDROOT
BRANCH   1  16
HETATM   16  N   UNL     1      42.851 -16.634   0.709  1.00  0.00    -0.264 N 
HETATM   17  C   UNL     1      41.495 -16.559   0.420  1.00  0.00     0.270 C 
HETATM   18  O   UNL     1      40.691 -17.263   1.027  1.00  0.00    -0.266 OA
HETATM   19  H   UNL     1      43.532 -16.026   0.273  1.00  0.00     0.190 HD
BRANCH  17  20
HETATM   20  C   UNL     1      41.065 -15.588  -0.618  1.00  0.00     0.033 A 
HETATM   21  C   UNL     1      41.101 -15.884  -1.985  1.00  0.00     0.017 A 
HETATM   22  C   UNL     1      40.676 -14.931  -2.916  1.00  0.00     0.007 A 
HETATM   23  C   UNL     1      40.214 -13.678  -2.494  1.00  0.00    -0.062 A 
HETATM   24  C   UNL     1      39.716 -12.669  -3.489  1.00  0.00     0.048 C 
HETATM   25  C   UNL     1      40.154 -13.400  -1.124  1.00  0.00     0.007 A 
HETATM   26  C   UNL     1      40.576 -14.348  -0.190  1.00  0.00     0.017 A 
ENDBRANCH  17  20
ENDBRANCH   1  16
TORSDOF 2
ENDMDL
MODEL 9
REMARK VINA RESULT:      -7.8      7.940     11.565
REMARK  2 active torsions:
REMARK  status: ('A' for Active; 'I' for Inactive)
REMARK    1  A    between atoms: C_5  and  C_6 
REMARK       I    between atoms: C_6  and  N_7 
REMARK    2  A    between atoms: N_7  and  N_8 
ROOT
HETATM    1  N   UNL     1      41.025 -10.982   9.207  1.00  0.00    -0.282 N 
HETATM    2  C   UNL     1      42.086 -11.026  10.006  1.00  0.00     0.127 C 
HETATM    3  C   UNL     1      41.917 -10.728  11.453  1.00  0.00     0.015 A 
HETATM    4  C   UNL     1      43.052 -10.372  12.211  1.00  0.00    -0.042 A 
HETATM    5  C   UNL     1      42.931 -10.046  13.568  1.00  0.00     0.008 A 
HETATM    6  C   UNL     1      41.688 -10.110  14.192  1.00  0.00     0.001 A 
HETATM    7  C   UNL     1      40.566 -10.499  13.467  1.00  0.00     0.001 A 
HETATM    8  C   UNL     1      40.677 -10.807  12.109  1.00  0.00     0.016 A 
HETATM    9  C   UNL     1      44.397 -10.314  11.532  1.00  0.00     0.069 C 
HETATM   10  C   UNL     1      44.509 -11.372  10.417  1.00  0.00     0.028 C 
HETATM   11  C   UNL     1      45.722 -11.062   9.533  1.00  0.00     0.038 C 
HETATM   12  C   UNL     1      44.629 -12.797  10.970  1.00  0.00     0.038 C 
HETATM   13  N   UNL     1      43.302 -11.321   9.548  1.00  0.00    -0.366 N 
HETATM   14  H   UNL     1      43.414 -11.504   8.566  1.00  0.00     0.162 HD
HETATM   15  H   UNL     1      40.142 -10.656   9.620  1.00  0.00     0.188 HD
ENDROOT
BRANCH   1  16
HETATM   16  N   UNL     1      40.950 -11.288   7.913  1.00  0.00    -0.264 N 
HETATM   17  C   UNL     1      39.759 -11.882   7.518  1.00  0.00     0.270 C 
HETATM   18  O   UNL     1      38.851 -12.049   8.329  1.00  0.00    -0.266 OA
HETATM   19  H   UNL     1      41.694 -11.079   7.259  1.00  0.00     0.190 HD
BRANCH  17  20
HETATM   20  C   UNL     1      39.624 -12.271   6.092  1.00  0.00     0.033 A 
HETATM   21  C   UNL     1      39.130 -11.396   5.118  1.00  0.00     0.017 A 
HETATM   22  C   UNL     1      39.032 -11.817   3.787  1.00  0.00     0.007 A 
HETATM   23  C   UNL     1      39.421 -13.110   3.418  1.00  0.00    -0.062 A 
HETATM   24  C   UNL     1      39.358 -13.550   1.983  1.00  0.00     0.048 C 
HETATM   25  C   UNL     1      39.941 -13.970   4.393  1.00  0.00     0.007 A 
HETATM   26  C   UNL     1      40.042 -13.555   5.722  1.00  0.00     0.017 A 
ENDBRANCH  17  20
ENDBRANCH   1  16
TORSDOF 2
ENDMDL
MODEL 10
REMARK VINA RESULT:      -7.7      6.112      8.541
REMARK  2 active torsions:
REMARK  status: ('A' for Active; 'I' for Inactive)
REMARK    1  A    between atoms: C_5  and  C_6 
REMARK       I    between atoms: C_6  and  N_7 
REMARK    2  A    between atoms: N_7  and  N_8 
ROOT
HETATM    1  N   UNL     1      43.610 -13.096   7.454  1.00  0.00    -0.282 N 
HETATM    2  C   UNL     1      42.904 -12.049   7.867  1.00  0.00     0.127 C 
HETATM    3  C   UNL     1      43.308 -11.349   9.115  1.00  0.00     0.015 A 
HETATM    4  C   UNL     1      42.366 -10.529   9.770  1.00  0.00    -0.042 A 
HETATM    5  C   UNL     1      42.693  -9.882  10.969  1.00  0.00     0.008 A 
HETATM    6  C   UNL     1      43.971 -10.012  11.505  1.00  0.00     0.001 A 
HETATM    7  C   UNL     1      44.924 -10.785  10.849  1.00  0.00     0.001 A 
HETATM    8  C   UNL     1      44.598 -11.447   9.663  1.00  0.00     0.016 A 
HETATM    9  C   UNL     1      40.986 -10.384   9.181  1.00  0.00     0.069 C 
HETATM   10  C   UNL     1      41.024 -10.444   7.641  1.00  0.00     0.028 C 
HETATM   11  C   UNL     1      39.606 -10.645   7.097  1.00  0.00     0.038 C 
HETATM   12  C   UNL     1      41.638  -9.184   7.019  1.00  0.00     0.038 C 
HETATM   13  N   UNL     1      41.838 -11.610   7.200  1.00  0.00    -0.366 N 
HETATM   14  H   UNL     1      41.558 -12.098   6.366  1.00  0.00     0.162 HD
HETATM   15  H   UNL     1      44.361 -13.428   8.074  1.00  0.00     0.188 HD
ENDROOT
BRANCH   1  16
HETATM   16  N   UNL     1      43.463 -13.805   6.336  1.00  0.00    -0.264 N 
HETATM   17  C   UNL     1      43.653 -15.173   6.480  1.00  0.00     0.270 C 
HETATM   18  O   UNL     1      43.890 -15.654   7.586  1.00  0.00    -0.266 OA
HETATM   19  H   UNL     1      43.205 -13.384   5.453  1.00  0.00     0.190 HD
BRANCH  17  20
HETATM   20  C   UNL     1      43.529 -16.016   5.264  1.00  0.00     0.033 A 
HETATM   21  C   UNL     1      43.238 -15.481   4.004  1.00  0.00     0.017 A 
HETATM   22  C   UNL     1      43.142 -16.324   2.893  1.00  0.00     0.007 A 
HETATM   23  C   UNL     1      43.332 -17.705   3.028  1.00  0.00    -0.062 A 
HETATM   24  C   UNL     1      43.272 -18.608   1.829  1.00  0.00     0.048 C 
HETATM   25  C   UNL     1      43.651 -18.230   4.286  1.00  0.00     0.007 A 
HETATM   26  C   UNL     1      43.749 -17.392   5.398  1.00  0.00     0.017 A 
ENDBRANCH  17  20
ENDBRANCH   1  16
TORSDOF 2
ENDMDL
