MODEL 1
REMARK VINA RESULT:      -8.3      0.000      0.000
REMARK  8 active torsions:
REMARK  status: ('A' for Active; 'I' for Inactive)
REMARK    1  A    between atoms: C_2  and  O_3 
REMARK    2  A    between atoms: O_3  and  C_4 
REMARK       I    between atoms: C_4  and  N_5 
REMARK    3  A    between atoms: C_8  and  N_9 
REMARK       I    between atoms: N_9  and  C_10 
REMARK    4  A    between atoms: C_10  and  C_11 
REMARK    5  A    between atoms: C_12  and  C_13 
REMARK    6  A    between atoms: N_18  and  C_19 
REMARK    7  A    between atoms: C_19  and  C_20 
REMARK    8  A    between atoms: C_20  and  O_21 
ROOT
HETATM    1  C   UNL     1      42.802 -16.738   3.441  1.00  0.00     0.139 C 
HETATM    2  C   UNL     1      42.387 -16.387   4.890  1.00  0.00     0.145 C 
HETATM    3  N   UNL     1      43.520 -16.604   5.817  1.00  0.00    -0.335 N 
HETATM    4  C   UNL     1      44.237 -17.803   5.743  1.00  0.00     0.255 C 
HETATM    5  O   UNL     1      45.009 -18.178   6.621  1.00  0.00    -0.267 OA
HETATM    6  C   UNL     1      44.072 -18.633   4.517  1.00  0.00     0.039 A 
HETATM    7  C   UNL     1      43.411 -18.129   3.386  1.00  0.00    -0.027 A 
HETATM    8  C   UNL     1      44.653 -19.908   4.488  1.00  0.00     0.017 A 
HETATM    9  C   UNL     1      44.598 -20.680   3.329  1.00  0.00     0.001 A 
HETATM   10  C   UNL     1      43.983 -20.171   2.189  1.00  0.00     0.001 A 
HETATM   11  C   UNL     1      43.404 -18.901   2.211  1.00  0.00     0.009 A 
ENDROOT
BRANCH   1  12
HETATM   12  C   UNL     1      41.634 -16.558   2.472  1.00  0.00     0.229 C 
HETATM   13  N   UNL     1      41.822 -15.646   1.450  1.00  0.00    -0.356 N 
HETATM   14  H   UNL     1      42.595 -14.998   1.525  1.00  0.00     0.162 HD
HETATM   15  O   UNL     1      40.576 -17.165   2.632  1.00  0.00    -0.273 OA
BRANCH  13  16
HETATM   16  C   UNL     1      40.733 -15.309   0.534  1.00  0.00     0.087 C 
HETATM   17  C   UNL     1      39.845 -14.195   1.108  1.00  0.00     0.045 C 
HETATM   18  C   UNL     1      40.526 -12.833   1.039  1.00  0.00     0.130 C 
HETATM   19  N   UNL     1      40.990 -12.563  -0.314  1.00  0.00    -0.328 N 
HETATM   20  C   UNL     1      40.579 -11.415  -0.970  1.00  0.00     0.362 C 
HETATM   21  C   UNL     1      41.895 -13.551  -0.890  1.00  0.00     0.130 C 
HETATM   22  O   UNL     1      39.852 -10.566  -0.469  1.00  0.00    -0.238 OA
HETATM   23  C   UNL     1      41.267 -14.941  -0.856  1.00  0.00     0.045 C 
BRANCH  20  24
HETATM   24  O   UNL     1      41.064 -11.342  -2.238  1.00  0.00    -0.304 OA
BRANCH  24  25
HETATM   25  C   UNL     1      41.758 -10.134  -2.584  1.00  0.00     0.176 C 
HETATM   26  C   UNL     1      43.175 -10.182  -2.047  1.00  0.00     0.034 C 
ENDBRANCH  24  25
ENDBRANCH  20  24
ENDBRANCH  13  16
ENDBRANCH   1  12
BRANCH   2  27
HETATM   27  C   UNL     1      41.819 -14.986   4.976  1.00  0.00     0.006 A 
HETATM   28  S   UNL     1      40.287 -14.745   5.724  1.00  0.00    -0.104 SA
HETATM   29  C   UNL     1      40.331 -13.064   5.431  1.00  0.00     0.050 A 
HETATM   30  C   UNL     1      41.477 -12.685   4.770  1.00  0.00     0.008 A 
HETATM   31  C   UNL     1      42.333 -13.792   4.502  1.00  0.00     0.017 A 
ENDBRANCH   2  27
BRANCH   3  32
HETATM   32  C   UNL     1      43.693 -15.816   7.048  1.00  0.00     0.153 C 
BRANCH  32  33
HETATM   33  C   UNL     1      44.794 -14.760   6.892  1.00  0.00     0.187 C 
BRANCH  33  34
HETATM   34  O   UNL     1      44.826 -13.916   8.044  1.00  0.00    -0.394 OA
HETATM   35  C   UNL     1      45.745 -12.845   7.869  1.00  0.00     0.201 C 
ENDBRANCH  33  34
ENDBRANCH  32  33
ENDBRANCH   3  32
TORSDOF 8
ENDMDL
MODEL 2
REMARK VINA RESULT:      -8.2      1.477      2.222
REMARK  8 active torsions:
REMARK  status: ('A' for Active; 'I' for Inactive)
REMARK    1  A    between atoms: C_2  and  O_3 
REMARK    2  A    between atoms: O_3  and  C_4 
REMARK       I    between atoms: C_4  and  N_5 
REMARK    3  A    between atoms: C_8  and  N_9 
REMARK       I    between atoms: N_9  and  C_10 
REMARK    4  A    between atoms: C_10  and  C_11 
REMARK    5  A    between atoms: C_12  and  C_13 
REMARK    6  A    between atoms: N_18  and  C_19 
REMARK    7  A    between atoms: C_19  and  C_20 
REMARK    8  A    between atoms: C_20  and  O_21 
ROOT
HETATM    1  C   UNL     1      42.743 -16.071   3.522  1.00  0.00     0.139 C 
HETATM    2  C   UNL     1      42.377 -15.866   5.012  1.00  0.00     0.145 C 
HETATM    3  N   UNL     1      43.510 -16.258   5.879  1.00  0.00    -0.335 N 
HETATM    4  C   UNL     1      44.149 -17.481   5.650  1.00  0.00     0.255 C 
HETATM    5  O   UNL     1      44.911 -18.001   6.459  1.00  0.00    -0.267 OA
HETATM    6  C   UNL     1      43.911 -18.151   4.341  1.00  0.00     0.039 A 
HETATM    7  C   UNL     1      43.262 -17.480   3.292  1.00  0.00    -0.027 A 
HETATM    8  C   UNL     1      44.410 -19.447   4.151  1.00  0.00     0.017 A 
HETATM    9  C   UNL     1      44.287 -20.073   2.912  1.00  0.00     0.001 A 
HETATM   10  C   UNL     1      43.684 -19.399   1.854  1.00  0.00     0.001 A 
HETATM   11  C   UNL     1      43.187 -18.108   2.037  1.00  0.00     0.009 A 
ENDROOT
BRANCH   1  12
HETATM   12  C   UNL     1      41.572 -15.709   2.610  1.00  0.00     0.229 C 
HETATM   13  N   UNL     1      41.776 -14.653   1.741  1.00  0.00    -0.356 N 
HETATM   14  H   UNL     1      42.569 -14.046   1.905  1.00  0.00     0.162 HD
HETATM   15  O   UNL     1      40.498 -16.305   2.686  1.00  0.00    -0.273 OA
BRANCH  13  16
HETATM   16  C   UNL     1      40.689 -14.148   0.904  1.00  0.00     0.087 C 
HETATM   17  C   UNL     1      41.088 -12.842   0.201  1.00  0.00     0.045 C 
HETATM   18  C   UNL     1      42.060 -13.089  -0.948  1.00  0.00     0.130 C 
HETATM   19  N   UNL     1      41.531 -14.096  -1.856  1.00  0.00    -0.328 N 
HETATM   20  C   UNL     1      41.383 -13.805  -3.201  1.00  0.00     0.362 C 
HETATM   21  C   UNL     1      41.199 -15.385  -1.259  1.00  0.00     0.130 C 
HETATM   22  O   UNL     1      41.701 -12.735  -3.707  1.00  0.00    -0.238 OA
HETATM   23  C   UNL     1      40.221 -15.207  -0.103  1.00  0.00     0.045 C 
BRANCH  20  24
HETATM   24  O   UNL     1      40.833 -14.836  -3.897  1.00  0.00    -0.304 OA
BRANCH  24  25
HETATM   25  C   UNL     1      39.399 -14.905  -3.901  1.00  0.00     0.176 C 
HETATM   26  C   UNL     1      38.952 -16.318  -4.218  1.00  0.00     0.034 C 
ENDBRANCH  24  25
ENDBRANCH  20  24
ENDBRANCH  13  16
ENDBRANCH   1  12
BRANCH   2  27
HETATM   27  C   UNL     1      41.899 -14.453   5.272  1.00  0.00     0.006 A 
HETATM   28  S   UNL     1      40.339 -14.207   5.959  1.00  0.00    -0.104 SA
HETATM   29  C   UNL     1      40.515 -12.510   5.922  1.00  0.00     0.050 A 
HETATM   30  C   UNL     1      41.726 -12.128   5.391  1.00  0.00     0.008 A 
HETATM   31  C   UNL     1      42.523 -13.246   5.012  1.00  0.00     0.017 A 
ENDBRANCH   2  27
BRANCH   3  32
HETATM   32  C   UNL     1      43.754 -15.630   7.188  1.00  0.00     0.153 C 
BRANCH  32  33
HETATM   33  C   UNL     1      44.862 -14.574   7.109  1.00  0.00     0.187 C 
BRANCH  33  34
HETATM   34  O   UNL     1      44.774 -13.691   8.229  1.00  0.00    -0.394 OA
HETATM   35  C   UNL     1      45.766 -12.674   8.159  1.00  0.00     0.201 C 
ENDBRANCH  33  34
ENDBRANCH  32  33
ENDBRANCH   3  32
TORSDOF 8
ENDMDL
MODEL 3
REMARK VINA RESULT:      -7.8      1.234      1.326
REMARK  8 active torsions:
REMARK  status: ('A' for Active; 'I' for Inactive)
REMARK    1  A    between atoms: C_2  and  O_3 
REMARK    2  A    between atoms: O_3  and  C_4 
REMARK       I    between atoms: C_4  and  N_5 
REMARK    3  A    between atoms: C_8  and  N_9 
REMARK       I    between atoms: N_9  and  C_10 
REMARK    4  A    between atoms: C_10  and  C_11 
REMARK    5  A    between atoms: C_12  and  C_13 
REMARK    6  A    between atoms: N_18  and  C_19 
REMARK    7  A    between atoms: C_19  and  C_20 
REMARK    8  A    between atoms: C_20  and  O_21 
ROOT
HETATM    1  C   UNL     1      42.473 -16.250   2.658  1.00  0.00     0.139 C 
HETATM    2  C   UNL     1      41.926 -15.767   4.023  1.00  0.00     0.145 C 
HETATM    3  N   UNL     1      42.973 -15.871   5.063  1.00  0.00    -0.335 N 
HETATM    4  C   UNL     1      43.706 -17.057   5.172  1.00  0.00     0.255 C 
HETATM    5  O   UNL     1      44.399 -17.329   6.148  1.00  0.00    -0.267 OA
HETATM    6  C   UNL     1      43.661 -18.006   4.025  1.00  0.00     0.039 A 
HETATM    7  C   UNL     1      43.099 -17.628   2.795  1.00  0.00    -0.027 A 
HETATM    8  C   UNL     1      44.255 -19.267   4.174  1.00  0.00     0.017 A 
HETATM    9  C   UNL     1      44.312 -20.149   3.097  1.00  0.00     0.001 A 
HETATM   10  C   UNL     1      43.797 -19.766   1.862  1.00  0.00     0.001 A 
HETATM   11  C   UNL     1      43.205 -18.512   1.707  1.00  0.00     0.009 A 
ENDROOT
BRANCH   1  12
HETATM   12  C   UNL     1      41.395 -16.188   1.577  1.00  0.00     0.229 C 
HETATM   13  N   UNL     1      41.657 -15.363   0.499  1.00  0.00    -0.356 N 
HETATM   14  H   UNL     1      42.407 -14.689   0.584  1.00  0.00     0.162 HD
HETATM   15  O   UNL     1      40.340 -16.809   1.694  1.00  0.00    -0.273 OA
BRANCH  13  16
HETATM   16  C   UNL     1      40.649 -15.138  -0.538  1.00  0.00     0.087 C 
HETATM   17  C   UNL     1      39.623 -14.084  -0.098  1.00  0.00     0.045 C 
HETATM   18  C   UNL     1      40.202 -12.673  -0.143  1.00  0.00     0.130 C 
HETATM   19  N   UNL     1      40.785 -12.403  -1.449  1.00  0.00    -0.328 N 
HETATM   20  C   UNL     1      40.361 -11.310  -2.183  1.00  0.00     0.362 C 
HETATM   21  C   UNL     1      41.820 -13.332  -1.892  1.00  0.00     0.130 C 
HETATM   22  O   UNL     1      39.521 -10.509  -1.790  1.00  0.00    -0.238 OA
HETATM   23  C   UNL     1      41.300 -14.765  -1.876  1.00  0.00     0.045 C 
BRANCH  20  24
HETATM   24  O   UNL     1      40.971 -11.232  -3.396  1.00  0.00    -0.304 OA
BRANCH  24  25
HETATM   25  C   UNL     1      41.662 -10.006  -3.681  1.00  0.00     0.176 C 
HETATM   26  C   UNL     1      42.874  -9.876  -2.779  1.00  0.00     0.034 C 
ENDBRANCH  24  25
ENDBRANCH  20  24
ENDBRANCH  13  16
ENDBRANCH   1  12
BRANCH   2  27
HETATM   27  C   UNL     1      41.338 -14.375   3.919  1.00  0.00     0.006 A 
HETATM   28  S   UNL     1      42.298 -13.104   3.265  1.00  0.00    -0.104 SA
HETATM   29  C   UNL     1      41.054 -11.957   3.486  1.00  0.00     0.050 A 
HETATM   30  C   UNL     1      39.932 -12.516   4.055  1.00  0.00     0.008 A 
HETATM   31  C   UNL     1      40.096 -13.908   4.309  1.00  0.00     0.017 A 
ENDBRANCH   2  27
BRANCH   3  32
HETATM   32  C   UNL     1      43.026 -14.963   6.221  1.00  0.00     0.153 C 
BRANCH  32  33
HETATM   33  C   UNL     1      44.236 -14.023   6.144  1.00  0.00     0.187 C 
BRANCH  33  34
HETATM   34  O   UNL     1      45.052 -14.185   7.306  1.00  0.00    -0.394 OA
HETATM   35  C   UNL     1      44.928 -13.068   8.179  1.00  0.00     0.201 C 
ENDBRANCH  33  34
ENDBRANCH  32  33
ENDBRANCH   3  32
TORSDOF 8
ENDMDL
MODEL 4
REMARK VINA RESULT:      -7.3      1.698      1.992
REMARK  8 active torsions:
REMARK  status: ('A' for Active; 'I' for Inactive)
REMARK    1  A    between atoms: C_2  and  O_3 
REMARK    2  A    between atoms: O_3  and  C_4 
REMARK       I    between atoms: C_4  and  N_5 
REMARK    3  A    between atoms: C_8  and  N_9 
REMARK       I    between atoms: N_9  and  C_10 
REMARK    4  A    between atoms: C_10  and  C_11 
REMARK    5  A    between atoms: C_12  and  C_13 
REMARK    6  A    between atoms: N_18  and  C_19 
REMARK    7  A    between atoms: C_19  and  C_20 
REMARK    8  A    between atoms: C_20  and  O_21 
ROOT
HETATM    1  C   UNL     1      42.851 -16.923   2.114  1.00  0.00     0.139 C 
HETATM    2  C   UNL     1      42.343 -16.306   3.440  1.00  0.00     0.145 C 
HETATM    3  N   UNL     1      43.378 -16.424   4.491  1.00  0.00    -0.335 N 
HETATM    4  C   UNL     1      44.011 -17.657   4.685  1.00  0.00     0.255 C 
HETATM    5  O   UNL     1      44.678 -17.919   5.681  1.00  0.00    -0.267 OA
HETATM    6  C   UNL     1      43.889 -18.674   3.603  1.00  0.00     0.039 A 
HETATM    7  C   UNL     1      43.361 -18.335   2.347  1.00  0.00    -0.027 A 
HETATM    8  C   UNL     1      44.377 -19.967   3.840  1.00  0.00     0.017 A 
HETATM    9  C   UNL     1      44.363 -20.921   2.825  1.00  0.00     0.001 A 
HETATM   10  C   UNL     1      43.882 -20.581   1.564  1.00  0.00     0.001 A 
HETATM   11  C   UNL     1      43.396 -19.296   1.321  1.00  0.00     0.009 A 
ENDROOT
BRANCH   1  12
HETATM   12  C   UNL     1      41.782 -16.846   1.024  1.00  0.00     0.229 C 
HETATM   13  N   UNL     1      41.987 -15.904   0.032  1.00  0.00    -0.356 N 
HETATM   14  H   UNL     1      42.679 -15.183   0.193  1.00  0.00     0.162 HD
HETATM   15  O   UNL     1      40.780 -17.558   1.064  1.00  0.00    -0.273 OA
BRANCH  13  16
HETATM   16  C   UNL     1      40.976 -15.665  -0.997  1.00  0.00     0.087 C 
HETATM   17  C   UNL     1      39.903 -14.681  -0.505  1.00  0.00     0.045 C 
HETATM   18  C   UNL     1      40.420 -13.247  -0.466  1.00  0.00     0.130 C 
HETATM   19  N   UNL     1      40.998 -12.879  -1.751  1.00  0.00    -0.328 N 
HETATM   20  C   UNL     1      40.530 -11.764  -2.425  1.00  0.00     0.362 C 
HETATM   21  C   UNL     1      42.073 -13.735  -2.239  1.00  0.00     0.130 C 
HETATM   22  O   UNL     1      39.654 -11.023  -1.993  1.00  0.00    -0.238 OA
HETATM   23  C   UNL     1      41.615 -15.188  -2.307  1.00  0.00     0.045 C 
BRANCH  20  24
HETATM   24  O   UNL     1      41.141 -11.591  -3.626  1.00  0.00    -0.304 OA
BRANCH  24  25
HETATM   25  C   UNL     1      41.610 -10.266  -3.914  1.00  0.00     0.176 C 
HETATM   26  C   UNL     1      42.795  -9.934  -3.029  1.00  0.00     0.034 C 
ENDBRANCH  24  25
ENDBRANCH  20  24
ENDBRANCH  13  16
ENDBRANCH   1  12
BRANCH   2  27
HETATM   27  C   UNL     1      41.872 -14.881   3.238  1.00  0.00     0.006 A 
HETATM   28  S   UNL     1      40.204 -14.510   3.451  1.00  0.00    -0.104 SA
HETATM   29  C   UNL     1      40.449 -12.866   3.061  1.00  0.00     0.050 A 
HETATM   30  C   UNL     1      41.765 -12.597   2.763  1.00  0.00     0.008 A 
HETATM   31  C   UNL     1      42.586 -13.758   2.860  1.00  0.00     0.017 A 
ENDBRANCH   2  27
BRANCH   3  32
HETATM   32  C   UNL     1      43.504 -15.448   5.586  1.00  0.00     0.153 C 
BRANCH  32  33
HETATM   33  C   UNL     1      42.666 -15.856   6.803  1.00  0.00     0.187 C 
BRANCH  33  34
HETATM   34  O   UNL     1      41.279 -15.647   6.532  1.00  0.00    -0.394 OA
HETATM   35  C   UNL     1      40.566 -16.878   6.534  1.00  0.00     0.201 C 
ENDBRANCH  33  34
ENDBRANCH  32  33
ENDBRANCH   3  32
TORSDOF 8
ENDMDL
MODEL 5
REMARK VINA RESULT:      -7.1      2.900      7.990
REMARK  8 active torsions:
REMARK  status: ('A' for Active; 'I' for Inactive)
REMARK    1  A    between atoms: C_2  and  O_3 
REMARK    2  A    between atoms: O_3  and  C_4 
REMARK       I    between atoms: C_4  and  N_5 
REMARK    3  A    between atoms: C_8  and  N_9 
REMARK       I    between atoms: N_9  and  C_10 
REMARK    4  A    between atoms: C_10  and  C_11 
REMARK    5  A    between atoms: C_12  and  C_13 
REMARK    6  A    between atoms: N_18  and  C_19 
REMARK    7  A    between atoms: C_19  and  C_20 
REMARK    8  A    between atoms: C_20  and  O_21 
ROOT
HETATM    1  C   UNL     1      40.373 -14.119   0.792  1.00  0.00     0.139 C 
HETATM    2  C   UNL     1      39.859 -12.694   1.108  1.00  0.00     0.145 C 
HETATM    3  N   UNL     1      38.496 -12.507   0.564  1.00  0.00    -0.335 N 
HETATM    4  C   UNL     1      38.233 -12.888  -0.756  1.00  0.00     0.255 C 
HETATM    5  O   UNL     1      37.227 -12.540  -1.367  1.00  0.00    -0.267 OA
HETATM    6  C   UNL     1      39.213 -13.790  -1.423  1.00  0.00     0.039 A 
HETATM    7  C   UNL     1      40.234 -14.417  -0.691  1.00  0.00    -0.027 A 
HETATM    8  C   UNL     1      39.056 -14.057  -2.790  1.00  0.00     0.017 A 
HETATM    9  C   UNL     1      39.897 -14.964  -3.431  1.00  0.00     0.001 A 
HETATM   10  C   UNL     1      40.884 -15.624  -2.704  1.00  0.00     0.001 A 
HETATM   11  C   UNL     1      41.045 -15.363  -1.342  1.00  0.00     0.009 A 
ENDROOT
BRANCH   1  12
HETATM   12  C   UNL     1      41.797 -14.321   1.311  1.00  0.00     0.229 C 
HETATM   13  N   UNL     1      42.045 -15.512   1.968  1.00  0.00    -0.356 N 
HETATM   14  H   UNL     1      41.253 -16.066   2.268  1.00  0.00     0.162 HD
HETATM   15  O   UNL     1      42.651 -13.446   1.183  1.00  0.00    -0.273 OA
BRANCH  13  16
HETATM   16  C   UNL     1      43.337 -15.764   2.605  1.00  0.00     0.087 C 
HETATM   17  C   UNL     1      43.162 -16.195   4.069  1.00  0.00     0.045 C 
HETATM   18  C   UNL     1      42.656 -17.630   4.183  1.00  0.00     0.130 C 
HETATM   19  N   UNL     1      43.500 -18.531   3.411  1.00  0.00    -0.328 N 
HETATM   20  C   UNL     1      44.094 -19.618   4.027  1.00  0.00     0.362 C 
HETATM   21  C   UNL     1      43.648 -18.214   1.995  1.00  0.00     0.130 C 
HETATM   22  O   UNL     1      43.935 -19.905   5.208  1.00  0.00    -0.238 OA
HETATM   23  C   UNL     1      44.159 -16.789   1.812  1.00  0.00     0.045 C 
BRANCH  20  24
HETATM   24  O   UNL     1      44.885 -20.326   3.178  1.00  0.00    -0.304 OA
BRANCH  24  25
HETATM   25  C   UNL     1      44.527 -21.701   2.974  1.00  0.00     0.176 C 
HETATM   26  C   UNL     1      43.876 -21.868   1.614  1.00  0.00     0.034 C 
ENDBRANCH  24  25
ENDBRANCH  20  24
ENDBRANCH  13  16
ENDBRANCH   1  12
BRANCH   2  27
HETATM   27  C   UNL     1      39.947 -12.392   2.589  1.00  0.00     0.006 A 
HETATM   28  S   UNL     1      40.783 -10.980   3.111  1.00  0.00    -0.104 SA
HETATM   29  C   UNL     1      40.485 -11.328   4.755  1.00  0.00     0.050 A 
HETATM   30  C   UNL     1      39.776 -12.496   4.916  1.00  0.00     0.008 A 
HETATM   31  C   UNL     1      39.469 -13.113   3.668  1.00  0.00     0.017 A 
ENDBRANCH   2  27
BRANCH   3  32
HETATM   32  C   UNL     1      37.516 -11.602   1.188  1.00  0.00     0.153 C 
BRANCH  32  33
HETATM   33  C   UNL     1      37.712 -10.153   0.725  1.00  0.00     0.187 C 
BRANCH  33  34
HETATM   34  O   UNL     1      37.905  -9.303   1.857  1.00  0.00    -0.394 OA
HETATM   35  C   UNL     1      37.205  -9.795   2.993  1.00  0.00     0.201 C 
ENDBRANCH  33  34
ENDBRANCH  32  33
ENDBRANCH   3  32
TORSDOF 8
ENDMDL
MODEL 6
REMARK VINA RESULT:      -6.8      2.483      3.475
REMARK  8 active torsions:
REMARK  status: ('A' for Active; 'I' for Inactive)
REMARK    1  A    between atoms: C_2  and  O_3 
REMARK    2  A    between atoms: O_3  and  C_4 
REMARK       I    between atoms: C_4  and  N_5 
REMARK    3  A    between atoms: C_8  and  N_9 
REMARK       I    between atoms: N_9  and  C_10 
REMARK    4  A    between atoms: C_10  and  C_11 
REMARK    5  A    between atoms: C_12  and  C_13 
REMARK    6  A    between atoms: N_18  and  C_19 
REMARK    7  A    between atoms: C_19  and  C_20 
REMARK    8  A    between atoms: C_20  and  O_21 
ROOT
HETATM    1  C   UNL     1      41.727 -15.288   1.688  1.00  0.00     0.139 C 
HETATM    2  C   UNL     1      40.408 -15.152   2.486  1.00  0.00     0.145 C 
HETATM    3  N   UNL     1      40.660 -15.342   3.932  1.00  0.00    -0.335 N 
HETATM    4  C   UNL     1      41.426 -16.435   4.350  1.00  0.00     0.255 C 
HETATM    5  O   UNL     1      41.471 -16.816   5.516  1.00  0.00    -0.267 OA
HETATM    6  C   UNL     1      42.250 -17.134   3.324  1.00  0.00     0.039 A 
HETATM    7  C   UNL     1      42.432 -16.585   2.045  1.00  0.00    -0.027 A 
HETATM    8  C   UNL     1      42.899 -18.324   3.683  1.00  0.00     0.017 A 
HETATM    9  C   UNL     1      43.749 -18.961   2.781  1.00  0.00     0.001 A 
HETATM   10  C   UNL     1      43.971 -18.400   1.527  1.00  0.00     0.001 A 
HETATM   11  C   UNL     1      43.328 -17.216   1.164  1.00  0.00     0.009 A 
ENDROOT
BRANCH   1  12
HETATM   12  C   UNL     1      41.483 -15.134   0.187  1.00  0.00     0.229 C 
HETATM   13  N   UNL     1      41.981 -13.985  -0.399  1.00  0.00    -0.356 N 
HETATM   14  H   UNL     1      42.263 -13.224   0.205  1.00  0.00     0.162 HD
HETATM   15  O   UNL     1      40.840 -15.973  -0.442  1.00  0.00    -0.273 OA
BRANCH  13  16
HETATM   16  C   UNL     1      41.709 -13.679  -1.803  1.00  0.00     0.087 C 
HETATM   17  C   UNL     1      40.354 -12.974  -1.967  1.00  0.00     0.045 C 
HETATM   18  C   UNL     1      40.409 -11.522  -1.504  1.00  0.00     0.130 C 
HETATM   19  N   UNL     1      41.508 -10.821  -2.153  1.00  0.00    -0.328 N 
HETATM   20  C   UNL     1      41.261  -9.667  -2.875  1.00  0.00     0.362 C 
HETATM   21  C   UNL     1      42.833 -11.404  -1.974  1.00  0.00     0.130 C 
HETATM   22  O   UNL     1      40.153  -9.157  -2.989  1.00  0.00    -0.238 OA
HETATM   23  C   UNL     1      42.846 -12.861  -2.427  1.00  0.00     0.045 C 
BRANCH  20  24
HETATM   24  O   UNL     1      42.386  -9.168  -3.454  1.00  0.00    -0.304 OA
BRANCH  24  25
HETATM   25  C   UNL     1      42.318  -8.926  -4.867  1.00  0.00     0.176 C 
HETATM   26  C   UNL     1      42.241 -10.244  -5.613  1.00  0.00     0.034 C 
ENDBRANCH  24  25
ENDBRANCH  20  24
ENDBRANCH  13  16
ENDBRANCH   1  12
BRANCH   2  27
HETATM   27  C   UNL     1      39.710 -13.843   2.179  1.00  0.00     0.006 A 
HETATM   28  S   UNL     1      40.546 -12.362   2.450  1.00  0.00    -0.104 SA
HETATM   29  C   UNL     1      39.209 -11.435   1.934  1.00  0.00     0.050 A 
HETATM   30  C   UNL     1      38.142 -12.224   1.572  1.00  0.00     0.008 A 
HETATM   31  C   UNL     1      38.427 -13.613   1.717  1.00  0.00     0.017 A 
ENDBRANCH   2  27
BRANCH   3  32
HETATM   32  C   UNL     1      39.846 -14.683   4.967  1.00  0.00     0.153 C 
BRANCH  32  33
HETATM   33  C   UNL     1      40.678 -13.696   5.795  1.00  0.00     0.187 C 
BRANCH  33  34
HETATM   34  O   UNL     1      39.818 -12.904   6.616  1.00  0.00    -0.394 OA
HETATM   35  C   UNL     1      39.470 -11.686   5.969  1.00  0.00     0.201 C 
ENDBRANCH  33  34
ENDBRANCH  32  33
ENDBRANCH   3  32
TORSDOF 8
ENDMDL
MODEL 7
REMARK VINA RESULT:      -6.7      3.353      6.336
REMARK  8 active torsions:
REMARK  status: ('A' for Active; 'I' for Inactive)
REMARK    1  A    between atoms: C_2  and  O_3 
REMARK    2  A    between atoms: O_3  and  C_4 
REMARK       I    between atoms: C_4  and  N_5 
REMARK    3  A    between atoms: C_8  and  N_9 
REMARK       I    between atoms: N_9  and  C_10 
REMARK    4  A    between atoms: C_10  and  C_11 
REMARK    5  A    between atoms: C_12  and  C_13 
REMARK    6  A    between atoms: N_18  and  C_19 
REMARK    7  A    between atoms: C_19  and  C_20 
REMARK    8  A    between atoms: C_20  and  O_21 
ROOT
HETATM    1  C   UNL     1      42.325 -15.241   4.727  1.00  0.00     0.139 C 
HETATM    2  C   UNL     1      42.218 -15.259   3.183  1.00  0.00     0.145 C 
HETATM    3  N   UNL     1      41.862 -16.614   2.707  1.00  0.00    -0.335 N 
HETATM    4  C   UNL     1      42.567 -17.715   3.205  1.00  0.00     0.255 C 
HETATM    5  O   UNL     1      42.524 -18.827   2.689  1.00  0.00    -0.267 OA
HETATM    6  C   UNL     1      43.373 -17.517   4.442  1.00  0.00     0.039 A 
HETATM    7  C   UNL     1      43.250 -16.347   5.207  1.00  0.00    -0.027 A 
HETATM    8  C   UNL     1      44.211 -18.557   4.869  1.00  0.00     0.017 A 
HETATM    9  C   UNL     1      44.913 -18.448   6.068  1.00  0.00     0.001 A 
HETATM   10  C   UNL     1      44.763 -17.309   6.854  1.00  0.00     0.001 A 
HETATM   11  C   UNL     1      43.930 -16.271   6.435  1.00  0.00     0.009 A 
ENDROOT
BRANCH   1  12
HETATM   12  C   UNL     1      42.730 -13.859   5.238  1.00  0.00     0.229 C 
HETATM   13  N   UNL     1      41.751 -13.141   5.899  1.00  0.00    -0.356 N 
HETATM   14  H   UNL     1      40.791 -13.449   5.812  1.00  0.00     0.162 HD
HETATM   15  O   UNL     1      43.854 -13.407   5.026  1.00  0.00    -0.273 OA
BRANCH  13  16
HETATM   16  C   UNL     1      41.991 -11.764   6.330  1.00  0.00     0.087 C 
HETATM   17  C   UNL     1      41.692 -10.766   5.201  1.00  0.00     0.045 C 
HETATM   18  C   UNL     1      40.193 -10.594   4.977  1.00  0.00     0.130 C 
HETATM   19  N   UNL     1      39.525 -10.269   6.228  1.00  0.00    -0.328 N 
HETATM   20  C   UNL     1      38.755  -9.123   6.323  1.00  0.00     0.362 C 
HETATM   21  C   UNL     1      39.713 -11.218   7.320  1.00  0.00     0.130 C 
HETATM   22  O   UNL     1      38.565  -8.349   5.392  1.00  0.00    -0.238 OA
HETATM   23  C   UNL     1      41.197 -11.430   7.599  1.00  0.00     0.045 C 
BRANCH  20  24
HETATM   24  O   UNL     1      38.243  -8.945   7.570  1.00  0.00    -0.304 OA
BRANCH  24  25
HETATM   25  C   UNL     1      38.591  -7.718   8.230  1.00  0.00     0.176 C 
HETATM   26  C   UNL     1      39.848  -7.915   9.055  1.00  0.00     0.034 C 
ENDBRANCH  24  25
ENDBRANCH  20  24
ENDBRANCH  13  16
ENDBRANCH   1  12
BRANCH   2  27
HETATM   27  C   UNL     1      41.264 -14.193   2.685  1.00  0.00     0.006 A 
HETATM   28  S   UNL     1      41.885 -12.867   1.778  1.00  0.00    -0.104 SA
HETATM   29  C   UNL     1      40.338 -12.162   1.621  1.00  0.00     0.050 A 
HETATM   30  C   UNL     1      39.366 -12.905   2.250  1.00  0.00     0.008 A 
HETATM   31  C   UNL     1      39.898 -14.073   2.868  1.00  0.00     0.017 A 
ENDBRANCH   2  27
BRANCH   3  32
HETATM   32  C   UNL     1      41.089 -16.838   1.474  1.00  0.00     0.153 C 
BRANCH  32  33
HETATM   33  C   UNL     1      41.921 -16.531   0.224  1.00  0.00     0.187 C 
BRANCH  33  34
HETATM   34  O   UNL     1      41.057 -16.260  -0.881  1.00  0.00    -0.394 OA
HETATM   35  C   UNL     1      40.958 -14.861  -1.123  1.00  0.00     0.201 C 
ENDBRANCH  33  34
ENDBRANCH  32  33
ENDBRANCH   3  32
TORSDOF 8
ENDMDL
MODEL 8
REMARK VINA RESULT:      -6.6      2.515      7.689
REMARK  8 active torsions:
REMARK  status: ('A' for Active; 'I' for Inactive)
REMARK    1  A    between atoms: C_2  and  O_3 
REMARK    2  A    between atoms: O_3  and  C_4 
REMARK       I    between atoms: C_4  and  N_5 
REMARK    3  A    between atoms: C_8  and  N_9 
REMARK       I    between atoms: N_9  and  C_10 
REMARK    4  A    between atoms: C_10  and  C_11 
REMARK    5  A    between atoms: C_12  and  C_13 
REMARK    6  A    between atoms: N_18  and  C_19 
REMARK    7  A    between atoms: C_19  and  C_20 
REMARK    8  A    between atoms: C_20  and  O_21 
ROOT
HETATM    1  C   UNL     1      39.883 -13.183   0.414  1.00  0.00     0.139 C 
HETATM    2  C   UNL     1      40.738 -12.187   1.234  1.00  0.00     0.145 C 
HETATM    3  N   UNL     1      41.046 -10.986   0.426  1.00  0.00    -0.335 N 
HETATM    4  C   UNL     1      41.523 -11.149  -0.879  1.00  0.00     0.255 C 
HETATM    5  O   UNL     1      42.041 -10.242  -1.522  1.00  0.00    -0.267 OA
HETATM    6  C   UNL     1      41.350 -12.485  -1.516  1.00  0.00     0.039 A 
HETATM    7  C   UNL     1      40.541 -13.469  -0.926  1.00  0.00    -0.027 A 
HETATM    8  C   UNL     1      41.959 -12.720  -2.757  1.00  0.00     0.017 A 
HETATM    9  C   UNL     1      41.749 -13.923  -3.427  1.00  0.00     0.001 A 
HETATM   10  C   UNL     1      40.913 -14.887  -2.870  1.00  0.00     0.001 A 
HETATM   11  C   UNL     1      40.303 -14.659  -1.636  1.00  0.00     0.009 A 
ENDROOT
BRANCH   1  12
HETATM   12  C   UNL     1      39.587 -14.449   1.216  1.00  0.00     0.229 C 
HETATM   13  N   UNL     1      40.685 -15.164   1.658  1.00  0.00    -0.356 N 
HETATM   14  H   UNL     1      41.586 -14.956   1.248  1.00  0.00     0.162 HD
HETATM   15  O   UNL     1      38.431 -14.822   1.413  1.00  0.00    -0.273 OA
BRANCH  13  16
HETATM   16  C   UNL     1      40.521 -16.450   2.336  1.00  0.00     0.087 C 
HETATM   17  C   UNL     1      41.028 -17.608   1.464  1.00  0.00     0.045 C 
HETATM   18  C   UNL     1      42.551 -17.658   1.414  1.00  0.00     0.130 C 
HETATM   19  N   UNL     1      43.106 -17.661   2.759  1.00  0.00    -0.328 N 
HETATM   20  C   UNL     1      43.959 -18.677   3.153  1.00  0.00     0.362 C 
HETATM   21  C   UNL     1      42.718 -16.545   3.614  1.00  0.00     0.130 C 
HETATM   22  O   UNL     1      44.316 -19.592   2.419  1.00  0.00    -0.238 OA
HETATM   23  C   UNL     1      41.199 -16.444   3.712  1.00  0.00     0.045 C 
BRANCH  20  24
HETATM   24  O   UNL     1      44.347 -18.555   4.450  1.00  0.00    -0.304 OA
BRANCH  24  25
HETATM   25  C   UNL     1      44.831 -19.749   5.083  1.00  0.00     0.176 C 
HETATM   26  C   UNL     1      43.937 -20.112   6.253  1.00  0.00     0.034 C 
ENDBRANCH  24  25
ENDBRANCH  20  24
ENDBRANCH  13  16
ENDBRANCH   1  12
BRANCH   2  27
HETATM   27  C   UNL     1      40.078 -11.852   2.555  1.00  0.00     0.006 A 
HETATM   28  S   UNL     1      40.995 -11.974   4.008  1.00  0.00    -0.104 SA
HETATM   29  C   UNL     1      39.665 -11.501   4.967  1.00  0.00     0.050 A 
HETATM   30  C   UNL     1      38.541 -11.263   4.211  1.00  0.00     0.008 A 
HETATM   31  C   UNL     1      38.775 -11.470   2.821  1.00  0.00     0.017 A 
ENDBRANCH   2  27
BRANCH   3  32
HETATM   32  C   UNL     1      41.246  -9.659   1.031  1.00  0.00     0.153 C 
BRANCH  32  33
HETATM   33  C   UNL     1      40.059  -8.729   0.756  1.00  0.00     0.187 C 
BRANCH  33  34
HETATM   34  O   UNL     1      39.770  -7.952   1.919  1.00  0.00    -0.394 OA
HETATM   35  C   UNL     1      40.708  -8.212   2.956  1.00  0.00     0.201 C 
ENDBRANCH  33  34
ENDBRANCH  32  33
ENDBRANCH   3  32
TORSDOF 8
ENDMDL
MODEL 9
REMARK VINA RESULT:      -6.6      2.794      8.393
REMARK  8 active torsions:
REMARK  status: ('A' for Active; 'I' for Inactive)
REMARK    1  A    between atoms: C_2  and  O_3 
REMARK    2  A    between atoms: O_3  and  C_4 
REMARK       I    between atoms: C_4  and  N_5 
REMARK    3  A    between atoms: C_8  and  N_9 
REMARK       I    between atoms: N_9  and  C_10 
REMARK    4  A    between atoms: C_10  and  C_11 
REMARK    5  A    between atoms: C_12  and  C_13 
REMARK    6  A    between atoms: N_18  and  C_19 
REMARK    7  A    between atoms: C_19  and  C_20 
REMARK    8  A    between atoms: C_20  and  O_21 
ROOT
HETATM    1  C   UNL     1      40.141 -13.716   0.372  1.00  0.00     0.139 C 
HETATM    2  C   UNL     1      39.682 -12.238   0.423  1.00  0.00     0.145 C 
HETATM    3  N   UNL     1      38.400 -12.072  -0.297  1.00  0.00    -0.335 N 
HETATM    4  C   UNL     1      38.261 -12.630  -1.572  1.00  0.00     0.255 C 
HETATM    5  O   UNL     1      37.350 -12.332  -2.339  1.00  0.00    -0.267 OA
HETATM    6  C   UNL     1      39.252 -13.662  -1.987  1.00  0.00     0.039 A 
HETATM    7  C   UNL     1      40.147 -14.220  -1.061  1.00  0.00    -0.027 A 
HETATM    8  C   UNL     1      39.229 -14.119  -3.313  1.00  0.00     0.017 A 
HETATM    9  C   UNL     1      40.080 -15.145  -3.718  1.00  0.00     0.001 A 
HETATM   10  C   UNL     1      40.939 -15.734  -2.795  1.00  0.00     0.001 A 
HETATM   11  C   UNL     1      40.966 -15.285  -1.474  1.00  0.00     0.009 A 
ENDROOT
BRANCH   1  12
HETATM   12  C   UNL     1      41.484 -13.902   1.077  1.00  0.00     0.229 C 
HETATM   13  N   UNL     1      41.554 -14.930   1.999  1.00  0.00    -0.356 N 
HETATM   14  H   UNL     1      40.687 -15.341   2.322  1.00  0.00     0.162 HD
HETATM   15  O   UNL     1      42.428 -13.144   0.858  1.00  0.00    -0.273 OA
BRANCH  13  16
HETATM   16  C   UNL     1      42.752 -15.128   2.814  1.00  0.00     0.087 C 
HETATM   17  C   UNL     1      42.521 -14.674   4.263  1.00  0.00     0.045 C 
HETATM   18  C   UNL     1      41.648 -15.658   5.036  1.00  0.00     0.130 C 
HETATM   19  N   UNL     1      42.186 -17.007   4.931  1.00  0.00    -0.328 N 
HETATM   20  C   UNL     1      42.484 -17.723   6.077  1.00  0.00     0.362 C 
HETATM   21  C   UNL     1      42.361 -17.523   3.578  1.00  0.00     0.130 C 
HETATM   22  O   UNL     1      42.297 -17.303   7.213  1.00  0.00    -0.238 OA
HETATM   23  C   UNL     1      43.234 -16.583   2.752  1.00  0.00     0.045 C 
BRANCH  20  24
HETATM   24  O   UNL     1      43.021 -18.942   5.801  1.00  0.00    -0.304 OA
BRANCH  24  25
HETATM   25  C   UNL     1      44.453 -19.030   5.846  1.00  0.00     0.176 C 
HETATM   26  C   UNL     1      44.941 -20.022   4.809  1.00  0.00     0.034 C 
ENDBRANCH  24  25
ENDBRANCH  20  24
ENDBRANCH  13  16
ENDBRANCH   1  12
BRANCH   2  27
HETATM   27  C   UNL     1      39.625 -11.728   1.848  1.00  0.00     0.006 A 
HETATM   28  S   UNL     1      40.457 -10.275   2.254  1.00  0.00    -0.104 SA
HETATM   29  C   UNL     1      39.974 -10.375   3.888  1.00  0.00     0.050 A 
HETATM   30  C   UNL     1      39.206 -11.490   4.133  1.00  0.00     0.008 A 
HETATM   31  C   UNL     1      39.008 -12.274   2.959  1.00  0.00     0.017 A 
ENDBRANCH   2  27
BRANCH   3  32
HETATM   32  C   UNL     1      37.414 -11.045   0.076  1.00  0.00     0.153 C 
BRANCH  32  33
HETATM   33  C   UNL     1      36.133 -11.671   0.639  1.00  0.00     0.187 C 
BRANCH  33  34
HETATM   34  O   UNL     1      34.989 -11.076   0.024  1.00  0.00    -0.394 OA
HETATM   35  C   UNL     1      34.051 -10.639   1.001  1.00  0.00     0.201 C 
ENDBRANCH  33  34
ENDBRANCH  32  33
ENDBRANCH   3  32
TORSDOF 8
ENDMDL
MODEL 10
REMARK VINA RESULT:      -6.5      3.330      4.631
REMARK  8 active torsions:
REMARK  status: ('A' for Active; 'I' for Inactive)
REMARK    1  A    between atoms: C_2  and  O_3 
REMARK    2  A    between atoms: O_3  and  C_4 
REMARK       I    between atoms: C_4  and  N_5 
REMARK    3  A    between atoms: C_8  and  N_9 
REMARK       I    between atoms: N_9  and  C_10 
REMARK    4  A    between atoms: C_10  and  C_11 
REMARK    5  A    between atoms: C_12  and  C_13 
REMARK    6  A    between atoms: N_18  and  C_19 
REMARK    7  A    between atoms: C_19  and  C_20 
REMARK    8  A    between atoms: C_20  and  O_21 
ROOT
HETATM    1  C   UNL     1      41.810 -13.771   2.459  1.00  0.00     0.139 C 
HETATM    2  C   UNL     1      40.377 -13.642   3.029  1.00  0.00     0.145 C 
HETATM    3  N   UNL     1      40.315 -14.205   4.396  1.00  0.00    -0.335 N 
HETATM    4  C   UNL     1      40.874 -15.464   4.638  1.00  0.00     0.255 C 
HETATM    5  O   UNL     1      40.648 -16.115   5.654  1.00  0.00    -0.267 OA
HETATM    6  C   UNL     1      41.815 -16.010   3.620  1.00  0.00     0.039 A 
HETATM    7  C   UNL     1      42.302 -15.203   2.579  1.00  0.00    -0.027 A 
HETATM    8  C   UNL     1      42.263 -17.331   3.761  1.00  0.00     0.017 A 
HETATM    9  C   UNL     1      43.211 -17.849   2.881  1.00  0.00     0.001 A 
HETATM   10  C   UNL     1      43.732 -17.043   1.873  1.00  0.00     0.001 A 
HETATM   11  C   UNL     1      43.292 -15.727   1.729  1.00  0.00     0.009 A 
ENDROOT
BRANCH   1  12
HETATM   12  C   UNL     1      41.887 -13.230   1.031  1.00  0.00     0.229 C 
HETATM   13  N   UNL     1      41.102 -13.872   0.091  1.00  0.00    -0.356 N 
HETATM   14  H   UNL     1      40.711 -14.774   0.331  1.00  0.00     0.162 HD
HETATM   15  O   UNL     1      42.644 -12.305   0.741  1.00  0.00    -0.273 OA
BRANCH  13  16
HETATM   16  C   UNL     1      41.181 -13.514  -1.325  1.00  0.00     0.087 C 
HETATM   17  C   UNL     1      41.297 -14.764  -2.209  1.00  0.00     0.045 C 
HETATM   18  C   UNL     1      39.971 -15.509  -2.317  1.00  0.00     0.130 C 
HETATM   19  N   UNL     1      38.909 -14.604  -2.731  1.00  0.00    -0.328 N 
HETATM   20  C   UNL     1      38.158 -14.889  -3.858  1.00  0.00     0.362 C 
HETATM   21  C   UNL     1      38.703 -13.432  -1.888  1.00  0.00     0.130 C 
HETATM   22  O   UNL     1      38.307 -15.895  -4.541  1.00  0.00    -0.238 OA
HETATM   23  C   UNL     1      39.996 -12.636  -1.746  1.00  0.00     0.045 C 
BRANCH  20  24
HETATM   24  O   UNL     1      37.245 -13.919  -4.131  1.00  0.00    -0.304 OA
BRANCH  24  25
HETATM   25  C   UNL     1      35.978 -14.365  -4.638  1.00  0.00     0.176 C 
HETATM   26  C   UNL     1      35.306 -13.243  -5.404  1.00  0.00     0.034 C 
ENDBRANCH  24  25
ENDBRANCH  20  24
ENDBRANCH  13  16
ENDBRANCH   1  12
BRANCH   2  27
HETATM   27  C   UNL     1      39.883 -12.212   2.961  1.00  0.00     0.006 A 
HETATM   28  S   UNL     1      38.375 -11.879   2.198  1.00  0.00    -0.104 SA
HETATM   29  C   UNL     1      38.524 -10.203   2.482  1.00  0.00     0.050 A 
HETATM   30  C   UNL     1      39.695  -9.891   3.132  1.00  0.00     0.008 A 
HETATM   31  C   UNL     1      40.483 -11.047   3.405  1.00  0.00     0.017 A 
ENDBRANCH   2  27
BRANCH   3  32
HETATM   32  C   UNL     1      39.377 -13.703   5.413  1.00  0.00     0.153 C 
BRANCH  32  33
HETATM   33  C   UNL     1      40.070 -12.756   6.401  1.00  0.00     0.187 C 
BRANCH  33  34
HETATM   34  O   UNL     1      39.136 -11.791   6.887  1.00  0.00    -0.394 OA
HETATM   35  C   UNL     1      39.509 -11.321   8.177  1.00  0.00     0.201 C 
ENDBRANCH  33  34
ENDBRANCH  32  33
ENDBRANCH   3  32
TORSDOF 8
ENDMDL
