MODEL 1
REMARK VINA RESULT:      -8.7      0.000      0.000
REMARK  2 active torsions:
REMARK  status: ('A' for Active; 'I' for Inactive)
REMARK    1  A    between atoms: C_2  and  C_3 
REMARK    2  A    between atoms: C_6  and  C_7 
ROOT
HETATM    1  C   UNL     1      42.205 -17.047   5.356  1.00  0.00     0.197 C 
HETATM    2  N   UNL     1      43.105 -15.951   5.749  1.00  0.00    -0.345 N 
HETATM    3  C   UNL     1      43.265 -14.883   4.974  1.00  0.00     0.113 C 
HETATM    4  N   UNL     1      44.086 -13.905   5.331  1.00  0.00    -0.376 N 
HETATM    5  H   UNL     1      44.135 -13.087   4.735  1.00  0.00     0.161 HD
HETATM    6  C   UNL     1      42.493 -14.771   3.725  1.00  0.00     0.029 A 
HETATM    7  C   UNL     1      41.358 -15.585   3.634  1.00  0.00     0.025 A 
HETATM    8  N   UNL     1      41.056 -16.439   4.705  1.00  0.00    -0.267 NA
HETATM    9  C   UNL     1      42.814 -13.913   2.662  1.00  0.00     0.019 A 
HETATM   10  C   UNL     1      41.973 -13.832   1.549  1.00  0.00     0.025 A 
HETATM   11  C   UNL     1      40.807 -14.592   1.503  1.00  0.00     0.035 A 
HETATM   12 CL   UNL     1      39.760 -14.468   0.147  1.00  0.00    -0.084 Cl
HETATM   13  C   UNL     1      40.489 -15.458   2.546  1.00  0.00     0.048 A 
HETATM   14  C   UNL     1      43.819 -16.090   7.028  1.00  0.00     0.128 C 
HETATM   15  C   UNL     1      44.119 -14.725   7.606  1.00  0.00     0.039 C 
HETATM   16  C   UNL     1      44.867 -13.932   6.564  1.00  0.00     0.123 C 
HETATM   17  H   UNL     1      40.368 -17.140   4.438  1.00  0.00     0.130 HD
ENDROOT
BRANCH   1  18
HETATM   18  C   UNL     1      42.877 -18.102   4.491  1.00  0.00    -0.021 A 
HETATM   19  C   UNL     1      42.512 -18.352   3.158  1.00  0.00     0.011 A 
HETATM   20  C   UNL     1      43.141 -19.356   2.415  1.00  0.00     0.007 A 
HETATM   21  C   UNL     1      44.149 -20.138   2.985  1.00  0.00    -0.059 A 
HETATM   22  C   UNL     1      44.539 -19.883   4.303  1.00  0.00     0.007 A 
HETATM   23  C   UNL     1      43.912 -18.879   5.045  1.00  0.00     0.011 A 
BRANCH  21  24
HETATM   24  C   UNL     1      44.823 -21.225   2.184  1.00  0.00     0.034 C 
HETATM   25  C   UNL     1      43.834 -21.987   1.317  1.00  0.00     0.010 C 
ENDBRANCH  21  24
ENDBRANCH   1  18
TORSDOF 2
ENDMDL
MODEL 2
REMARK VINA RESULT:      -8.6      2.509      5.806
REMARK  2 active torsions:
REMARK  status: ('A' for Active; 'I' for Inactive)
REMARK    1  A    between atoms: C_2  and  C_3 
REMARK    2  A    between atoms: C_6  and  C_7 
ROOT
HETATM    1  C   UNL     1      40.912 -16.098   4.472  1.00  0.00     0.197 C 
HETATM    2  N   UNL     1      40.601 -15.538   3.146  1.00  0.00    -0.345 N 
HETATM    3  C   UNL     1      41.222 -15.976   2.055  1.00  0.00     0.113 C 
HETATM    4  N   UNL     1      40.944 -15.458   0.866  1.00  0.00    -0.376 N 
HETATM    5  H   UNL     1      41.402 -15.860   0.057  1.00  0.00     0.161 HD
HETATM    6  C   UNL     1      42.201 -17.069   2.166  1.00  0.00     0.029 A 
HETATM    7  C   UNL     1      42.120 -17.844   3.329  1.00  0.00     0.025 A 
HETATM    8  N   UNL     1      41.148 -17.520   4.287  1.00  0.00    -0.267 NA
HETATM    9  C   UNL     1      43.169 -17.376   1.198  1.00  0.00     0.019 A 
HETATM   10  C   UNL     1      44.005 -18.483   1.369  1.00  0.00     0.025 A 
HETATM   11  C   UNL     1      43.866 -19.290   2.495  1.00  0.00     0.035 A 
HETATM   12 CL   UNL     1      44.875 -20.667   2.689  1.00  0.00    -0.084 Cl
HETATM   13  C   UNL     1      42.918 -18.984   3.469  1.00  0.00     0.048 A 
HETATM   14  C   UNL     1      39.583 -14.479   3.082  1.00  0.00     0.128 C 
HETATM   15  C   UNL     1      38.903 -14.493   1.732  1.00  0.00     0.039 C 
HETATM   16  C   UNL     1      39.969 -14.388   0.672  1.00  0.00     0.123 C 
HETATM   17  H   UNL     1      41.334 -17.983   5.175  1.00  0.00     0.130 HD
ENDROOT
BRANCH   1  18
HETATM   18  C   UNL     1      42.068 -15.398   5.169  1.00  0.00    -0.021 A 
HETATM   19  C   UNL     1      42.627 -14.193   4.714  1.00  0.00     0.011 A 
HETATM   20  C   UNL     1      43.711 -13.606   5.375  1.00  0.00     0.007 A 
HETATM   21  C   UNL     1      44.267 -14.210   6.506  1.00  0.00    -0.059 A 
HETATM   22  C   UNL     1      43.705 -15.397   6.983  1.00  0.00     0.007 A 
HETATM   23  C   UNL     1      42.621 -15.983   6.325  1.00  0.00     0.011 A 
BRANCH  21  24
HETATM   24  C   UNL     1      45.440 -13.578   7.214  1.00  0.00     0.034 C 
HETATM   25  C   UNL     1      45.008 -12.806   8.450  1.00  0.00     0.010 C 
ENDBRANCH  21  24
ENDBRANCH   1  18
TORSDOF 2
ENDMDL
MODEL 3
REMARK VINA RESULT:      -8.5      2.628      4.555
REMARK  2 active torsions:
REMARK  status: ('A' for Active; 'I' for Inactive)
REMARK    1  A    between atoms: C_2  and  C_3 
REMARK    2  A    between atoms: C_6  and  C_7 
ROOT
HETATM    1  C   UNL     1      43.343 -16.534   2.486  1.00  0.00     0.197 C 
HETATM    2  N   UNL     1      41.932 -16.158   2.301  1.00  0.00    -0.345 N 
HETATM    3  C   UNL     1      41.094 -16.114   3.333  1.00  0.00     0.113 C 
HETATM    4  N   UNL     1      39.822 -15.784   3.155  1.00  0.00    -0.376 N 
HETATM    5  H   UNL     1      39.234 -15.711   3.977  1.00  0.00     0.161 HD
HETATM    6  C   UNL     1      41.595 -16.399   4.687  1.00  0.00     0.029 A 
HETATM    7  C   UNL     1      42.981 -16.301   4.859  1.00  0.00     0.025 A 
HETATM    8  N   UNL     1      43.773 -15.963   3.751  1.00  0.00    -0.267 NA
HETATM    9  C   UNL     1      40.786 -16.739   5.782  1.00  0.00     0.019 A 
HETATM   10  C   UNL     1      41.357 -16.920   7.045  1.00  0.00     0.025 A 
HETATM   11  C   UNL     1      42.727 -16.747   7.219  1.00  0.00     0.035 A 
HETATM   12 CL   UNL     1      43.422 -16.941   8.778  1.00  0.00    -0.084 Cl
HETATM   13  C   UNL     1      43.540 -16.425   6.134  1.00  0.00     0.048 A 
HETATM   14  C   UNL     1      41.492 -15.839   0.935  1.00  0.00     0.128 C 
HETATM   15  C   UNL     1      40.333 -14.869   0.976  1.00  0.00     0.039 C 
HETATM   16  C   UNL     1      39.257 -15.466   1.847  1.00  0.00     0.123 C 
HETATM   17  H   UNL     1      44.757 -16.153   3.928  1.00  0.00     0.130 HD
ENDROOT
BRANCH   1  18
HETATM   18  C   UNL     1      43.585 -18.034   2.409  1.00  0.00    -0.021 A 
HETATM   19  C   UNL     1      42.898 -18.881   1.525  1.00  0.00     0.011 A 
HETATM   20  C   UNL     1      43.136 -20.259   1.515  1.00  0.00     0.007 A 
HETATM   21  C   UNL     1      44.065 -20.827   2.391  1.00  0.00    -0.059 A 
HETATM   22  C   UNL     1      44.773 -19.992   3.260  1.00  0.00     0.007 A 
HETATM   23  C   UNL     1      44.537 -18.615   3.268  1.00  0.00     0.011 A 
BRANCH  21  24
HETATM   24  C   UNL     1      44.317 -22.315   2.384  1.00  0.00     0.034 C 
HETATM   25  C   UNL     1      44.674 -22.837   3.766  1.00  0.00     0.010 C 
ENDBRANCH  21  24
ENDBRANCH   1  18
TORSDOF 2
ENDMDL
MODEL 4
REMARK VINA RESULT:      -8.1      2.130      2.621
REMARK  2 active torsions:
REMARK  status: ('A' for Active; 'I' for Inactive)
REMARK    1  A    between atoms: C_2  and  C_3 
REMARK    2  A    between atoms: C_6  and  C_7 
ROOT
HETATM    1  C   UNL     1      40.314 -16.415   3.204  1.00  0.00     0.197 C 
HETATM    2  N   UNL     1      40.670 -15.182   3.926  1.00  0.00    -0.345 N 
HETATM    3  C   UNL     1      41.153 -14.126   3.280  1.00  0.00     0.113 C 
HETATM    4  N   UNL     1      41.481 -13.023   3.939  1.00  0.00    -0.376 N 
HETATM    5  H   UNL     1      41.794 -12.224   3.399  1.00  0.00     0.161 HD
HETATM    6  C   UNL     1      41.289 -14.170   1.815  1.00  0.00     0.029 A 
HETATM    7  C   UNL     1      40.534 -15.152   1.162  1.00  0.00     0.025 A 
HETATM    8  N   UNL     1      39.738 -16.011   1.933  1.00  0.00    -0.267 NA
HETATM    9  C   UNL     1      42.095 -13.304   1.061  1.00  0.00     0.019 A 
HETATM   10  C   UNL     1      42.097 -13.386  -0.334  1.00  0.00     0.025 A 
HETATM   11  C   UNL     1      41.286 -14.318  -0.977  1.00  0.00     0.035 A 
HETATM   12 CL   UNL     1      41.269 -14.396  -2.693  1.00  0.00    -0.084 Cl
HETATM   13  C   UNL     1      40.495 -15.192  -0.235  1.00  0.00     0.048 A 
HETATM   14  C   UNL     1      40.473 -15.172   5.383  1.00  0.00     0.128 C 
HETATM   15  C   UNL     1      40.215 -13.761   5.863  1.00  0.00     0.039 C 
HETATM   16  C   UNL     1      41.353 -12.893   5.388  1.00  0.00     0.123 C 
HETATM   17  H   UNL     1      39.431 -16.817   1.392  1.00  0.00     0.130 HD
ENDROOT
BRANCH   1  18
HETATM   18  C   UNL     1      41.479 -17.378   3.039  1.00  0.00    -0.021 A 
HETATM   19  C   UNL     1      41.871 -17.908   1.799  1.00  0.00     0.011 A 
HETATM   20  C   UNL     1      42.931 -18.815   1.706  1.00  0.00     0.007 A 
HETATM   21  C   UNL     1      43.626 -19.219   2.849  1.00  0.00    -0.059 A 
HETATM   22  C   UNL     1      43.261 -18.681   4.087  1.00  0.00     0.007 A 
HETATM   23  C   UNL     1      42.203 -17.773   4.180  1.00  0.00     0.011 A 
BRANCH  21  24
HETATM   24  C   UNL     1      44.766 -20.203   2.748  1.00  0.00     0.034 C 
HETATM   25  C   UNL     1      44.329 -21.514   2.114  1.00  0.00     0.010 C 
ENDBRANCH  21  24
ENDBRANCH   1  18
TORSDOF 2
ENDMDL
MODEL 5
REMARK VINA RESULT:      -7.9      2.613      4.214
REMARK  2 active torsions:
REMARK  status: ('A' for Active; 'I' for Inactive)
REMARK    1  A    between atoms: C_2  and  C_3 
REMARK    2  A    between atoms: C_6  and  C_7 
ROOT
HETATM    1  C   UNL     1      41.297 -17.560   4.704  1.00  0.00     0.197 C 
HETATM    2  N   UNL     1      42.623 -17.628   5.340  1.00  0.00    -0.345 N 
HETATM    3  C   UNL     1      43.186 -16.545   5.866  1.00  0.00     0.113 C 
HETATM    4  N   UNL     1      44.386 -16.613   6.427  1.00  0.00    -0.376 N 
HETATM    5  H   UNL     1      44.752 -15.774   6.863  1.00  0.00     0.161 HD
HETATM    6  C   UNL     1      42.454 -15.268   5.857  1.00  0.00     0.029 A 
HETATM    7  C   UNL     1      41.070 -15.360   5.665  1.00  0.00     0.025 A 
HETATM    8  N   UNL     1      40.499 -16.629   5.484  1.00  0.00    -0.267 NA
HETATM    9  C   UNL     1      43.044 -14.008   6.035  1.00  0.00     0.019 A 
HETATM   10  C   UNL     1      42.246 -12.861   6.081  1.00  0.00     0.025 A 
HETATM   11  C   UNL     1      40.863 -12.972   5.963  1.00  0.00     0.035 A 
HETATM   12 CL   UNL     1      39.882 -11.564   6.049  1.00  0.00    -0.084 Cl
HETATM   13  C   UNL     1      40.271 -14.218   5.769  1.00  0.00     0.048 A 
HETATM   14  C   UNL     1      43.294 -18.936   5.363  1.00  0.00     0.128 C 
HETATM   15  C   UNL     1      44.222 -19.022   6.554  1.00  0.00     0.039 C 
HETATM   16  C   UNL     1      45.164 -17.846   6.496  1.00  0.00     0.123 C 
HETATM   17  H   UNL     1      39.551 -16.560   5.121  1.00  0.00     0.130 HD
ENDROOT
BRANCH   1  18
HETATM   18  C   UNL     1      41.350 -17.193   3.229  1.00  0.00    -0.021 A 
HETATM   19  C   UNL     1      42.403 -17.568   2.379  1.00  0.00     0.011 A 
HETATM   20  C   UNL     1      42.419 -17.178   1.036  1.00  0.00     0.007 A 
HETATM   21  C   UNL     1      41.385 -16.401   0.508  1.00  0.00    -0.059 A 
HETATM   22  C   UNL     1      40.318 -16.041   1.337  1.00  0.00     0.007 A 
HETATM   23  C   UNL     1      40.301 -16.432   2.678  1.00  0.00     0.011 A 
BRANCH  21  24
HETATM   24  C   UNL     1      41.406 -15.976  -0.940  1.00  0.00     0.034 C 
HETATM   25  C   UNL     1      41.330 -14.465  -1.089  1.00  0.00     0.010 C 
ENDBRANCH  21  24
ENDBRANCH   1  18
TORSDOF 2
ENDMDL
MODEL 6
REMARK VINA RESULT:      -7.8      2.842      4.980
REMARK  2 active torsions:
REMARK  status: ('A' for Active; 'I' for Inactive)
REMARK    1  A    between atoms: C_2  and  C_3 
REMARK    2  A    between atoms: C_6  and  C_7 
ROOT
HETATM    1  C   UNL     1      42.095 -14.788   0.895  1.00  0.00     0.197 C 
HETATM    2  N   UNL     1      40.655 -14.488   0.941  1.00  0.00    -0.345 N 
HETATM    3  C   UNL     1      40.061 -14.155   2.083  1.00  0.00     0.113 C 
HETATM    4  N   UNL     1      38.760 -13.896   2.117  1.00  0.00    -0.376 N 
HETATM    5  H   UNL     1      38.361 -13.593   2.998  1.00  0.00     0.161 HD
HETATM    6  C   UNL     1      40.862 -14.036   3.311  1.00  0.00     0.029 A 
HETATM    7  C   UNL     1      42.242 -13.886   3.127  1.00  0.00     0.025 A 
HETATM    8  N   UNL     1      42.748 -13.876   1.819  1.00  0.00    -0.267 NA
HETATM    9  C   UNL     1      40.338 -14.053   4.612  1.00  0.00     0.019 A 
HETATM   10  C   UNL     1      41.181 -13.860   5.710  1.00  0.00     0.025 A 
HETATM   11  C   UNL     1      42.541 -13.637   5.511  1.00  0.00     0.035 A 
HETATM   12 CL   UNL     1      43.571 -13.372   6.860  1.00  0.00    -0.084 Cl
HETATM   13  C   UNL     1      43.073 -13.636   4.223  1.00  0.00     0.048 A 
HETATM   14  C   UNL     1      39.906 -14.577  -0.321  1.00  0.00     0.128 C 
HETATM   15  C   UNL     1      38.718 -13.641  -0.287  1.00  0.00     0.039 C 
HETATM   16  C   UNL     1      37.902 -13.969   0.938  1.00  0.00     0.123 C 
HETATM   17  H   UNL     1      43.758 -14.002   1.811  1.00  0.00     0.130 HD
ENDROOT
BRANCH   1  18
HETATM   18  C   UNL     1      42.419 -16.245   1.185  1.00  0.00    -0.021 A 
HETATM   19  C   UNL     1      41.443 -17.252   1.261  1.00  0.00     0.011 A 
HETATM   20  C   UNL     1      41.792 -18.573   1.561  1.00  0.00     0.007 A 
HETATM   21  C   UNL     1      43.125 -18.922   1.796  1.00  0.00    -0.059 A 
HETATM   22  C   UNL     1      44.109 -17.934   1.700  1.00  0.00     0.007 A 
HETATM   23  C   UNL     1      43.762 -16.615   1.398  1.00  0.00     0.011 A 
BRANCH  21  24
HETATM   24  C   UNL     1      43.498 -20.346   2.126  1.00  0.00     0.034 C 
HETATM   25  C   UNL     1      44.775 -20.422   2.947  1.00  0.00     0.010 C 
ENDBRANCH  21  24
ENDBRANCH   1  18
TORSDOF 2
ENDMDL
MODEL 7
REMARK VINA RESULT:      -7.8      3.276      6.801
REMARK  2 active torsions:
REMARK  status: ('A' for Active; 'I' for Inactive)
REMARK    1  A    between atoms: C_2  and  C_3 
REMARK    2  A    between atoms: C_6  and  C_7 
ROOT
HETATM    1  C   UNL     1      39.726 -15.167   2.326  1.00  0.00     0.197 C 
HETATM    2  N   UNL     1      40.267 -14.897   0.984  1.00  0.00    -0.345 N 
HETATM    3  C   UNL     1      41.411 -15.444   0.584  1.00  0.00     0.113 C 
HETATM    4  N   UNL     1      41.896 -15.187  -0.623  1.00  0.00    -0.376 N 
HETATM    5  H   UNL     1      42.742 -15.668  -0.905  1.00  0.00     0.161 HD
HETATM    6  C   UNL     1      42.123 -16.372   1.477  1.00  0.00     0.029 A 
HETATM    7  C   UNL     1      41.362 -16.929   2.511  1.00  0.00     0.025 A 
HETATM    8  N   UNL     1      40.014 -16.559   2.628  1.00  0.00    -0.267 NA
HETATM    9  C   UNL     1      43.474 -16.726   1.346  1.00  0.00     0.019 A 
HETATM   10  C   UNL     1      44.036 -17.674   2.207  1.00  0.00     0.025 A 
HETATM   11  C   UNL     1      43.250 -18.276   3.185  1.00  0.00     0.035 A 
HETATM   12 CL   UNL     1      43.936 -19.462   4.222  1.00  0.00    -0.084 Cl
HETATM   13  C   UNL     1      41.912 -17.918   3.332  1.00  0.00     0.048 A 
HETATM   14  C   UNL     1      39.494 -13.999   0.113  1.00  0.00     0.128 C 
HETATM   15  C   UNL     1      39.747 -14.339  -1.338  1.00  0.00     0.039 C 
HETATM   16  C   UNL     1      41.236 -14.297  -1.574  1.00  0.00     0.123 C 
HETATM   17  H   UNL     1      39.633 -16.828   3.533  1.00  0.00     0.130 HD
ENDROOT
BRANCH   1  18
HETATM   18  C   UNL     1      40.249 -14.217   3.393  1.00  0.00    -0.021 A 
HETATM   19  C   UNL     1      41.119 -13.150   3.115  1.00  0.00     0.011 A 
HETATM   20  C   UNL     1      41.596 -12.324   4.138  1.00  0.00     0.007 A 
HETATM   21  C   UNL     1      41.218 -12.543   5.465  1.00  0.00    -0.059 A 
HETATM   22  C   UNL     1      40.333 -13.587   5.752  1.00  0.00     0.007 A 
HETATM   23  C   UNL     1      39.855 -14.411   4.731  1.00  0.00     0.011 A 
BRANCH  21  24
HETATM   24  C   UNL     1      41.738 -11.654   6.568  1.00  0.00     0.034 C 
HETATM   25  C   UNL     1      40.610 -11.053   7.391  1.00  0.00     0.010 C 
ENDBRANCH  21  24
ENDBRANCH   1  18
TORSDOF 2
ENDMDL
MODEL 8
REMARK VINA RESULT:      -7.5      2.211      3.323
REMARK  2 active torsions:
REMARK  status: ('A' for Active; 'I' for Inactive)
REMARK    1  A    between atoms: C_2  and  C_3 
REMARK    2  A    between atoms: C_6  and  C_7 
ROOT
HETATM    1  C   UNL     1      40.261 -14.908   4.563  1.00  0.00     0.197 C 
HETATM    2  N   UNL     1      40.647 -13.493   4.686  1.00  0.00    -0.345 N 
HETATM    3  C   UNL     1      41.111 -12.816   3.640  1.00  0.00     0.113 C 
HETATM    4  N   UNL     1      41.466 -11.544   3.763  1.00  0.00    -0.376 N 
HETATM    5  H   UNL     1      41.762 -11.053   2.928  1.00  0.00     0.161 HD
HETATM    6  C   UNL     1      41.195 -13.476   2.328  1.00  0.00     0.029 A 
HETATM    7  C   UNL     1      40.415 -14.628   2.173  1.00  0.00     0.025 A 
HETATM    8  N   UNL     1      39.643 -15.068   3.258  1.00  0.00    -0.267 NA
HETATM    9  C   UNL     1      41.978 -13.023   1.255  1.00  0.00     0.019 A 
HETATM   10  C   UNL     1      41.931 -13.685   0.025  1.00  0.00     0.025 A 
HETATM   11  C   UNL     1      41.094 -14.786  -0.140  1.00  0.00     0.035 A 
HETATM   12 CL   UNL     1      41.016 -15.580  -1.662  1.00  0.00    -0.084 Cl
HETATM   13  C   UNL     1      40.326 -15.252   0.925  1.00  0.00     0.048 A 
HETATM   14  C   UNL     1      40.502 -12.867   6.009  1.00  0.00     0.128 C 
HETATM   15  C   UNL     1      40.266 -11.381   5.856  1.00  0.00     0.039 C 
HETATM   16  C   UNL     1      41.389 -10.814   5.025  1.00  0.00     0.123 C 
HETATM   17  H   UNL     1      39.315 -16.021   3.117  1.00  0.00     0.130 HD
ENDROOT
BRANCH   1  18
HETATM   18  C   UNL     1      41.417 -15.872   4.784  1.00  0.00    -0.021 A 
HETATM   19  C   UNL     1      41.386 -17.217   4.382  1.00  0.00     0.011 A 
HETATM   20  C   UNL     1      42.464 -18.071   4.637  1.00  0.00     0.007 A 
HETATM   21  C   UNL     1      43.600 -17.604   5.303  1.00  0.00    -0.059 A 
HETATM   22  C   UNL     1      43.653 -16.261   5.689  1.00  0.00     0.007 A 
HETATM   23  C   UNL     1      42.578 -15.407   5.432  1.00  0.00     0.011 A 
BRANCH  21  24
HETATM   24  C   UNL     1      44.760 -18.527   5.583  1.00  0.00     0.034 C 
HETATM   25  C   UNL     1      44.493 -19.940   5.089  1.00  0.00     0.010 C 
ENDBRANCH  21  24
ENDBRANCH   1  18
TORSDOF 2
ENDMDL
MODEL 9
REMARK VINA RESULT:      -7.4      2.296      5.356
REMARK  2 active torsions:
REMARK  status: ('A' for Active; 'I' for Inactive)
REMARK    1  A    between atoms: C_2  and  C_3 
REMARK    2  A    between atoms: C_6  and  C_7 
ROOT
HETATM    1  C   UNL     1      43.456 -14.946   2.971  1.00  0.00     0.197 C 
HETATM    2  N   UNL     1      43.609 -15.049   4.431  1.00  0.00    -0.345 N 
HETATM    3  C   UNL     1      43.631 -16.233   5.035  1.00  0.00     0.113 C 
HETATM    4  N   UNL     1      43.759 -16.317   6.353  1.00  0.00    -0.376 N 
HETATM    5  H   UNL     1      43.826 -17.241   6.764  1.00  0.00     0.161 HD
HETATM    6  C   UNL     1      43.551 -17.462   4.229  1.00  0.00     0.029 A 
HETATM    7  C   UNL     1      43.860 -17.321   2.870  1.00  0.00     0.025 A 
HETATM    8  N   UNL     1      44.200 -16.049   2.387  1.00  0.00    -0.267 NA
HETATM    9  C   UNL     1      43.204 -18.725   4.730  1.00  0.00     0.019 A 
HETATM   10  C   UNL     1      43.227 -19.843   3.891  1.00  0.00     0.025 A 
HETATM   11  C   UNL     1      43.609 -19.703   2.559  1.00  0.00     0.035 A 
HETATM   12 CL   UNL     1      43.664 -21.083   1.537  1.00  0.00    -0.084 Cl
HETATM   13  C   UNL     1      43.938 -18.449   2.049  1.00  0.00     0.048 A 
HETATM   14  C   UNL     1      43.731 -13.794   5.188  1.00  0.00     0.128 C 
HETATM   15  C   UNL     1      44.527 -14.026   6.453  1.00  0.00     0.039 C 
HETATM   16  C   UNL     1      43.869 -15.146   7.218  1.00  0.00     0.123 C 
HETATM   17  H   UNL     1      44.169 -16.019   1.370  1.00  0.00     0.130 HD
ENDROOT
BRANCH   1  18
HETATM   18  C   UNL     1      42.006 -14.912   2.515  1.00  0.00    -0.021 A 
HETATM   19  C   UNL     1      41.607 -15.168   1.193  1.00  0.00     0.011 A 
HETATM   20  C   UNL     1      40.262 -15.093   0.818  1.00  0.00     0.007 A 
HETATM   21  C   UNL     1      39.280 -14.757   1.754  1.00  0.00    -0.059 A 
HETATM   22  C   UNL     1      39.660 -14.523   3.078  1.00  0.00     0.007 A 
HETATM   23  C   UNL     1      41.003 -14.600   3.454  1.00  0.00     0.011 A 
BRANCH  21  24
HETATM   24  C   UNL     1      37.829 -14.671   1.347  1.00  0.00     0.034 C 
HETATM   25  C   UNL     1      37.565 -13.483   0.437  1.00  0.00     0.010 C 
ENDBRANCH  21  24
ENDBRANCH   1  18
TORSDOF 2
ENDMDL
MODEL 10
REMARK VINA RESULT:      -7.1      3.859      6.577
REMARK  2 active torsions:
REMARK  status: ('A' for Active; 'I' for Inactive)
REMARK    1  A    between atoms: C_2  and  C_3 
REMARK    2  A    between atoms: C_6  and  C_7 
ROOT
HETATM    1  C   UNL     1      41.610 -14.320  -0.607  1.00  0.00     0.197 C 
HETATM    2  N   UNL     1      40.560 -14.681  -1.573  1.00  0.00    -0.345 N 
HETATM    3  C   UNL     1      39.300 -14.296  -1.391  1.00  0.00     0.113 C 
HETATM    4  N   UNL     1      38.358 -14.634  -2.261  1.00  0.00    -0.376 N 
HETATM    5  H   UNL     1      37.424 -14.273  -2.111  1.00  0.00     0.161 HD
HETATM    6  C   UNL     1      38.958 -13.455  -0.232  1.00  0.00     0.029 A 
HETATM    7  C   UNL     1      40.028 -12.786   0.373  1.00  0.00     0.025 A 
HETATM    8  N   UNL     1      41.318 -12.974  -0.145  1.00  0.00    -0.267 NA
HETATM    9  C   UNL     1      37.661 -13.284   0.275  1.00  0.00     0.019 A 
HETATM   10  C   UNL     1      37.435 -12.405   1.338  1.00  0.00     0.025 A 
HETATM   11  C   UNL     1      38.496 -11.688   1.884  1.00  0.00     0.035 A 
HETATM   12 CL   UNL     1      38.211 -10.587   3.171  1.00  0.00    -0.084 Cl
HETATM   13  C   UNL     1      39.790 -11.865   1.398  1.00  0.00     0.048 A 
HETATM   14  C   UNL     1      40.961 -15.483  -2.738  1.00  0.00     0.128 C 
HETATM   15  C   UNL     1      40.039 -15.203  -3.904  1.00  0.00     0.039 C 
HETATM   16  C   UNL     1      38.623 -15.444  -3.446  1.00  0.00     0.123 C 
HETATM   17  H   UNL     1      42.030 -12.642   0.502  1.00  0.00     0.130 HD
ENDROOT
BRANCH   1  18
HETATM   18  C   UNL     1      41.748 -15.313   0.537  1.00  0.00    -0.021 A 
HETATM   19  C   UNL     1      41.327 -16.650   0.451  1.00  0.00     0.011 A 
HETATM   20  C   UNL     1      41.448 -17.515   1.544  1.00  0.00     0.007 A 
HETATM   21  C   UNL     1      41.991 -17.067   2.750  1.00  0.00    -0.059 A 
HETATM   22  C   UNL     1      42.436 -15.745   2.841  1.00  0.00     0.007 A 
HETATM   23  C   UNL     1      42.317 -14.881   1.750  1.00  0.00     0.011 A 
BRANCH  21  24
HETATM   24  C   UNL     1      42.116 -18.000   3.930  1.00  0.00     0.034 C 
HETATM   25  C   UNL     1      43.536 -18.517   4.096  1.00  0.00     0.010 C 
ENDBRANCH  21  24
ENDBRANCH   1  18
TORSDOF 2
ENDMDL
