MODEL 1
REMARK VINA RESULT:      -8.4      0.000      0.000
REMARK  5 active torsions:
REMARK  status: ('A' for Active; 'I' for Inactive)
REMARK    1  A    between atoms: C_2  and  C_3 
REMARK    2  A    between atoms: C_7  and  C_8 
REMARK    3  A    between atoms: C_8  and  N_9 
REMARK       I    between atoms: N_9  and  C_10 
REMARK       I    between atoms: C_10  and  N_11 
REMARK    4  A    between atoms: N_11  and  C_12 
REMARK    5  A    between atoms: C_14  and  C_15 
ROOT
HETATM    1  N   UNL     1      41.872 -15.211   2.578  1.00  0.00    -0.333 N 
HETATM    2  C   UNL     1      42.018 -16.525   3.017  1.00  0.00     0.322 C 
HETATM    3  N   UNL     1      43.325 -16.948   3.106  1.00  0.00    -0.309 N 
HETATM    4  O   UNL     1      41.034 -17.222   3.254  1.00  0.00    -0.247 OA
HETATM    5  C   UNL     1      42.879 -14.164   2.712  1.00  0.00     0.155 C 
HETATM    6  H   UNL     1      43.991 -16.382   2.606  1.00  0.00     0.170 HD
ENDROOT
BRANCH   1   7
HETATM    7  C   UNL     1      40.563 -14.800   2.089  1.00  0.00     0.185 C 
BRANCH   7   8
HETATM    8  C   UNL     1      40.513 -14.875   0.610  1.00  0.00     0.047 A 
HETATM    9  N   UNL     1      41.081 -15.908  -0.080  1.00  0.00    -0.280 N 
HETATM   10  N   UNL     1      40.957 -15.793  -1.413  1.00  0.00    -0.178 NA
HETATM   11  H   UNL     1      41.559 -16.721   0.306  1.00  0.00     0.189 HD
HETATM   12  C   UNL     1      40.299 -14.639  -1.591  1.00  0.00     0.064 A 
HETATM   13  C   UNL     1      39.995 -14.031  -0.345  1.00  0.00     0.058 A 
BRANCH  12  14
HETATM   14  C   UNL     1      39.969 -14.108  -2.979  1.00  0.00    -0.005 C 
HETATM   15  C   UNL     1      38.874 -13.021  -2.947  1.00  0.00     0.021 C 
HETATM   16  C   UNL     1      39.469 -15.262  -3.873  1.00  0.00     0.021 C 
HETATM   17  C   UNL     1      41.230 -13.493  -3.620  1.00  0.00     0.021 C 
ENDBRANCH  12  14
ENDBRANCH   7   8
ENDBRANCH   1   7
BRANCH   3  18
HETATM   18  C   UNL     1      43.804 -18.195   3.557  1.00  0.00     0.037 A 
HETATM   19  C   UNL     1      43.788 -19.363   2.790  1.00  0.00     0.045 A 
HETATM   20  C   UNL     1      44.290 -20.573   3.307  1.00  0.00     0.050 A 
HETATM   21  C   UNL     1      44.816 -20.595   4.606  1.00  0.00     0.016 A 
HETATM   22  C   UNL     1      44.824 -19.438   5.381  1.00  0.00     0.003 A 
HETATM   23  C   UNL     1      44.316 -18.248   4.860  1.00  0.00     0.029 A 
BRANCH  20  24
HETATM   24  C   UNL     1      44.301 -21.820   2.460  1.00  0.00     0.417 C 
HETATM   25  F   UNL     1      45.289 -21.836   1.523  1.00  0.00    -0.166 F 
HETATM   26  F   UNL     1      44.469 -22.949   3.203  1.00  0.00    -0.166 F 
HETATM   27  F   UNL     1      43.139 -22.001   1.771  1.00  0.00    -0.166 F 
ENDBRANCH  20  24
ENDBRANCH   3  18
TORSDOF 5
ENDMDL
MODEL 2
REMARK VINA RESULT:      -8.1      1.987      2.773
REMARK  5 active torsions:
REMARK  status: ('A' for Active; 'I' for Inactive)
REMARK    1  A    between atoms: C_2  and  C_3 
REMARK    2  A    between atoms: C_7  and  C_8 
REMARK    3  A    between atoms: C_8  and  N_9 
REMARK       I    between atoms: N_9  and  C_10 
REMARK       I    between atoms: C_10  and  N_11 
REMARK    4  A    between atoms: N_11  and  C_12 
REMARK    5  A    between atoms: C_14  and  C_15 
ROOT
HETATM    1  N   UNL     1      42.299 -15.447   4.637  1.00  0.00    -0.333 N 
HETATM    2  C   UNL     1      42.267 -16.804   4.322  1.00  0.00     0.322 C 
HETATM    3  N   UNL     1      43.480 -17.318   3.925  1.00  0.00    -0.309 N 
HETATM    4  O   UNL     1      41.215 -17.436   4.371  1.00  0.00    -0.247 OA
HETATM    5  C   UNL     1      43.482 -14.712   5.070  1.00  0.00     0.155 C 
HETATM    6  H   UNL     1      44.166 -16.633   3.651  1.00  0.00     0.170 HD
ENDROOT
BRANCH   1   7
HETATM    7  C   UNL     1      41.030 -14.732   4.691  1.00  0.00     0.185 C 
BRANCH   7   8
HETATM    8  C   UNL     1      40.447 -14.603   3.336  1.00  0.00     0.047 A 
HETATM    9  N   UNL     1      39.370 -15.343   2.939  1.00  0.00    -0.280 N 
HETATM   10  N   UNL     1      38.998 -15.108   1.669  1.00  0.00    -0.178 NA
HETATM   11  H   UNL     1      38.845 -16.018   3.494  1.00  0.00     0.189 HD
HETATM   12  C   UNL     1      39.873 -14.195   1.226  1.00  0.00     0.064 A 
HETATM   13  C   UNL     1      40.799 -13.845   2.242  1.00  0.00     0.058 A 
BRANCH  12  14
HETATM   14  C   UNL     1      39.825 -13.663  -0.199  1.00  0.00    -0.005 C 
HETATM   15  C   UNL     1      38.381 -13.529  -0.728  1.00  0.00     0.021 C 
HETATM   16  C   UNL     1      40.590 -14.618  -1.139  1.00  0.00     0.021 C 
HETATM   17  C   UNL     1      40.484 -12.269  -0.263  1.00  0.00     0.021 C 
ENDBRANCH  12  14
ENDBRANCH   7   8
ENDBRANCH   1   7
BRANCH   3  18
HETATM   18  C   UNL     1      43.787 -18.653   3.586  1.00  0.00     0.037 A 
HETATM   19  C   UNL     1      44.131 -19.636   4.517  1.00  0.00     0.045 A 
HETATM   20  C   UNL     1      44.421 -20.950   4.104  1.00  0.00     0.050 A 
HETATM   21  C   UNL     1      44.355 -21.269   2.740  1.00  0.00     0.016 A 
HETATM   22  C   UNL     1      44.025 -20.291   1.805  1.00  0.00     0.003 A 
HETATM   23  C   UNL     1      43.748 -18.990   2.227  1.00  0.00     0.029 A 
BRANCH  20  24
HETATM   24  C   UNL     1      44.757 -22.015   5.118  1.00  0.00     0.417 C 
HETATM   25  F   UNL     1      44.387 -21.696   6.389  1.00  0.00    -0.166 F 
HETATM   26  F   UNL     1      44.157 -23.205   4.838  1.00  0.00    -0.166 F 
HETATM   27  F   UNL     1      46.093 -22.281   5.181  1.00  0.00    -0.166 F 
ENDBRANCH  20  24
ENDBRANCH   3  18
TORSDOF 5
ENDMDL
MODEL 3
REMARK VINA RESULT:      -7.9      1.635      2.182
REMARK  5 active torsions:
REMARK  status: ('A' for Active; 'I' for Inactive)
REMARK    1  A    between atoms: C_2  and  C_3 
REMARK    2  A    between atoms: C_7  and  C_8 
REMARK    3  A    between atoms: C_8  and  N_9 
REMARK       I    between atoms: N_9  and  C_10 
REMARK       I    between atoms: C_10  and  N_11 
REMARK    4  A    between atoms: N_11  and  C_12 
REMARK    5  A    between atoms: C_14  and  C_15 
ROOT
HETATM    1  N   UNL     1      42.374 -15.001   2.952  1.00  0.00    -0.333 N 
HETATM    2  C   UNL     1      42.371 -16.358   3.267  1.00  0.00     0.322 C 
HETATM    3  N   UNL     1      43.624 -16.899   3.439  1.00  0.00    -0.309 N 
HETATM    4  O   UNL     1      41.317 -16.986   3.334  1.00  0.00    -0.247 OA
HETATM    5  C   UNL     1      43.438 -14.063   3.289  1.00  0.00     0.155 C 
HETATM    6  H   UNL     1      44.382 -16.350   3.067  1.00  0.00     0.170 HD
ENDROOT
BRANCH   1   7
HETATM    7  C   UNL     1      41.159 -14.434   2.380  1.00  0.00     0.185 C 
BRANCH   7   8
HETATM    8  C   UNL     1      41.433 -13.853   1.046  1.00  0.00     0.047 A 
HETATM    9  N   UNL     1      41.688 -14.636  -0.044  1.00  0.00    -0.280 N 
HETATM   10  N   UNL     1      41.938 -13.933  -1.161  1.00  0.00    -0.178 NA
HETATM   11  H   UNL     1      41.697 -15.654  -0.085  1.00  0.00     0.189 HD
HETATM   12  C   UNL     1      41.856 -12.651  -0.778  1.00  0.00     0.064 A 
HETATM   13  C   UNL     1      41.536 -12.555   0.602  1.00  0.00     0.058 A 
BRANCH  12  14
HETATM   14  C   UNL     1      42.102 -11.505  -1.748  1.00  0.00    -0.005 C 
HETATM   15  C   UNL     1      42.422 -12.001  -3.174  1.00  0.00     0.021 C 
HETATM   16  C   UNL     1      43.295 -10.657  -1.261  1.00  0.00     0.021 C 
HETATM   17  C   UNL     1      40.852 -10.605  -1.828  1.00  0.00     0.021 C 
ENDBRANCH  12  14
ENDBRANCH   7   8
ENDBRANCH   1   7
BRANCH   3  18
HETATM   18  C   UNL     1      43.956 -18.220   3.806  1.00  0.00     0.037 A 
HETATM   19  C   UNL     1      43.931 -19.305   2.926  1.00  0.00     0.045 A 
HETATM   20  C   UNL     1      44.281 -20.597   3.363  1.00  0.00     0.050 A 
HETATM   21  C   UNL     1      44.664 -20.786   4.699  1.00  0.00     0.016 A 
HETATM   22  C   UNL     1      44.678 -19.712   5.585  1.00  0.00     0.003 A 
HETATM   23  C   UNL     1      44.321 -18.438   5.140  1.00  0.00     0.029 A 
BRANCH  20  24
HETATM   24  C   UNL     1      44.286 -21.756   2.399  1.00  0.00     0.417 C 
HETATM   25  F   UNL     1      43.120 -21.902   1.712  1.00  0.00    -0.166 F 
HETATM   26  F   UNL     1      45.266 -21.644   1.460  1.00  0.00    -0.166 F 
HETATM   27  F   UNL     1      44.502 -22.954   3.015  1.00  0.00    -0.166 F 
ENDBRANCH  20  24
ENDBRANCH   3  18
TORSDOF 5
ENDMDL
MODEL 4
REMARK VINA RESULT:      -7.8      1.652      2.324
REMARK  5 active torsions:
REMARK  status: ('A' for Active; 'I' for Inactive)
REMARK    1  A    between atoms: C_2  and  C_3 
REMARK    2  A    between atoms: C_7  and  C_8 
REMARK    3  A    between atoms: C_8  and  N_9 
REMARK       I    between atoms: N_9  and  C_10 
REMARK       I    between atoms: C_10  and  N_11 
REMARK    4  A    between atoms: N_11  and  C_12 
REMARK    5  A    between atoms: C_14  and  C_15 
ROOT
HETATM    1  N   UNL     1      42.465 -15.388   3.096  1.00  0.00    -0.333 N 
HETATM    2  C   UNL     1      42.369 -16.774   2.989  1.00  0.00     0.322 C 
HETATM    3  N   UNL     1      43.582 -17.424   2.991  1.00  0.00    -0.309 N 
HETATM    4  O   UNL     1      41.276 -17.321   2.866  1.00  0.00    -0.247 OA
HETATM    5  C   UNL     1      43.581 -14.667   3.699  1.00  0.00     0.155 C 
HETATM    6  H   UNL     1      44.380 -16.841   2.800  1.00  0.00     0.170 HD
ENDROOT
BRANCH   1   7
HETATM    7  C   UNL     1      41.300 -14.596   2.723  1.00  0.00     0.185 C 
BRANCH   7   8
HETATM    8  C   UNL     1      41.311 -14.308   1.270  1.00  0.00     0.047 A 
HETATM    9  N   UNL     1      42.009 -13.255   0.748  1.00  0.00    -0.280 N 
HETATM   10  N   UNL     1      41.880 -13.137  -0.584  1.00  0.00    -0.178 NA
HETATM   11  H   UNL     1      42.594 -12.591   1.252  1.00  0.00     0.189 HD
HETATM   12  C   UNL     1      41.059 -14.138  -0.933  1.00  0.00     0.064 A 
HETATM   13  C   UNL     1      40.681 -14.902   0.201  1.00  0.00     0.058 A 
BRANCH  12  14
HETATM   14  C   UNL     1      40.624 -14.353  -2.376  1.00  0.00    -0.005 C 
HETATM   15  C   UNL     1      41.315 -13.375  -3.350  1.00  0.00     0.021 C 
HETATM   16  C   UNL     1      39.100 -14.147  -2.496  1.00  0.00     0.021 C 
HETATM   17  C   UNL     1      40.969 -15.789  -2.820  1.00  0.00     0.021 C 
ENDBRANCH  12  14
ENDBRANCH   7   8
ENDBRANCH   1   7
BRANCH   3  18
HETATM   18  C   UNL     1      43.821 -18.814   2.943  1.00  0.00     0.037 A 
HETATM   19  C   UNL     1      44.159 -19.588   4.056  1.00  0.00     0.045 A 
HETATM   20  C   UNL     1      44.379 -20.973   3.932  1.00  0.00     0.050 A 
HETATM   21  C   UNL     1      44.249 -21.575   2.672  1.00  0.00     0.016 A 
HETATM   22  C   UNL     1      43.926 -20.808   1.556  1.00  0.00     0.003 A 
HETATM   23  C   UNL     1      43.719 -19.435   1.692  1.00  0.00     0.029 A 
BRANCH  20  24
HETATM   24  C   UNL     1      44.707 -21.808   5.144  1.00  0.00     0.417 C 
HETATM   25  F   UNL     1      44.372 -21.215   6.323  1.00  0.00    -0.166 F 
HETATM   26  F   UNL     1      44.070 -23.011   5.132  1.00  0.00    -0.166 F 
HETATM   27  F   UNL     1      46.037 -22.095   5.242  1.00  0.00    -0.166 F 
ENDBRANCH  20  24
ENDBRANCH   3  18
TORSDOF 5
ENDMDL
MODEL 5
REMARK VINA RESULT:      -7.7      2.039      2.647
REMARK  5 active torsions:
REMARK  status: ('A' for Active; 'I' for Inactive)
REMARK    1  A    between atoms: C_2  and  C_3 
REMARK    2  A    between atoms: C_7  and  C_8 
REMARK    3  A    between atoms: C_8  and  N_9 
REMARK       I    between atoms: N_9  and  C_10 
REMARK       I    between atoms: C_10  and  N_11 
REMARK    4  A    between atoms: N_11  and  C_12 
REMARK    5  A    between atoms: C_14  and  C_15 
ROOT
HETATM    1  N   UNL     1      40.154 -14.882   2.626  1.00  0.00    -0.333 N 
HETATM    2  C   UNL     1      40.614 -16.194   2.537  1.00  0.00     0.322 C 
HETATM    3  N   UNL     1      41.917 -16.362   2.945  1.00  0.00    -0.309 N 
HETATM    4  O   UNL     1      39.895 -17.083   2.088  1.00  0.00    -0.247 OA
HETATM    5  C   UNL     1      40.682 -13.866   3.530  1.00  0.00     0.155 C 
HETATM    6  H   UNL     1      42.461 -15.516   3.001  1.00  0.00     0.170 HD
ENDROOT
BRANCH   1   7
HETATM    7  C   UNL     1      38.955 -14.530   1.876  1.00  0.00     0.185 C 
BRANCH   7   8
HETATM    8  C   UNL     1      39.293 -14.223   0.467  1.00  0.00     0.047 A 
HETATM    9  N   UNL     1      38.360 -14.284  -0.529  1.00  0.00    -0.280 N 
HETATM   10  N   UNL     1      38.856 -13.998  -1.744  1.00  0.00    -0.178 NA
HETATM   11  H   UNL     1      37.371 -14.509  -0.436  1.00  0.00     0.189 HD
HETATM   12  C   UNL     1      40.157 -13.757  -1.529  1.00  0.00     0.064 A 
HETATM   13  C   UNL     1      40.474 -13.883  -0.151  1.00  0.00     0.058 A 
BRANCH  12  14
HETATM   14  C   UNL     1      41.110 -13.414  -2.665  1.00  0.00    -0.005 C 
HETATM   15  C   UNL     1      40.519 -12.365  -3.630  1.00  0.00     0.021 C 
HETATM   16  C   UNL     1      41.428 -14.685  -3.480  1.00  0.00     0.021 C 
HETATM   17  C   UNL     1      42.426 -12.846  -2.095  1.00  0.00     0.021 C 
ENDBRANCH  12  14
ENDBRANCH   7   8
ENDBRANCH   1   7
BRANCH   3  18
HETATM   18  C   UNL     1      42.655 -17.563   3.019  1.00  0.00     0.037 A 
HETATM   19  C   UNL     1      43.173 -18.090   4.204  1.00  0.00     0.045 A 
HETATM   20  C   UNL     1      43.897 -19.298   4.201  1.00  0.00     0.050 A 
HETATM   21  C   UNL     1      44.088 -19.976   2.989  1.00  0.00     0.016 A 
HETATM   22  C   UNL     1      43.586 -19.451   1.802  1.00  0.00     0.003 A 
HETATM   23  C   UNL     1      42.878 -18.248   1.818  1.00  0.00     0.029 A 
BRANCH  20  24
HETATM   24  C   UNL     1      44.423 -19.879   5.489  1.00  0.00     0.417 C 
HETATM   25  F   UNL     1      43.445 -20.239   6.366  1.00  0.00    -0.166 F 
HETATM   26  F   UNL     1      45.175 -20.996   5.284  1.00  0.00    -0.166 F 
HETATM   27  F   UNL     1      45.226 -19.012   6.170  1.00  0.00    -0.166 F 
ENDBRANCH  20  24
ENDBRANCH   3  18
TORSDOF 5
ENDMDL
MODEL 6
REMARK VINA RESULT:      -7.7      4.829      7.578
REMARK  5 active torsions:
REMARK  status: ('A' for Active; 'I' for Inactive)
REMARK    1  A    between atoms: C_2  and  C_3 
REMARK    2  A    between atoms: C_7  and  C_8 
REMARK    3  A    between atoms: C_8  and  N_9 
REMARK       I    between atoms: N_9  and  C_10 
REMARK       I    between atoms: C_10  and  N_11 
REMARK    4  A    between atoms: N_11  and  C_12 
REMARK    5  A    between atoms: C_14  and  C_15 
ROOT
HETATM    1  N   UNL     1      41.923 -14.529   5.576  1.00  0.00    -0.333 N 
HETATM    2  C   UNL     1      42.802 -15.471   5.045  1.00  0.00     0.322 C 
HETATM    3  N   UNL     1      42.501 -16.772   5.374  1.00  0.00    -0.309 N 
HETATM    4  O   UNL     1      43.773 -15.119   4.378  1.00  0.00    -0.247 OA
HETATM    5  C   UNL     1      40.540 -14.793   5.957  1.00  0.00     0.155 C 
HETATM    6  H   UNL     1      41.870 -16.881   6.152  1.00  0.00     0.170 HD
ENDROOT
BRANCH   1   7
HETATM    7  C   UNL     1      42.358 -13.139   5.614  1.00  0.00     0.185 C 
BRANCH   7   8
HETATM    8  C   UNL     1      43.141 -12.872   6.843  1.00  0.00     0.047 A 
HETATM    9  N   UNL     1      44.152 -13.697   7.249  1.00  0.00    -0.280 N 
HETATM   10  N   UNL     1      44.730 -13.308   8.398  1.00  0.00    -0.178 NA
HETATM   11  H   UNL     1      44.494 -14.534   6.779  1.00  0.00     0.189 HD
HETATM   12  C   UNL     1      44.061 -12.203   8.755  1.00  0.00     0.064 A 
HETATM   13  C   UNL     1      43.056 -11.890   7.802  1.00  0.00     0.058 A 
BRANCH  12  14
HETATM   14  C   UNL     1      44.385 -11.446  10.034  1.00  0.00    -0.005 C 
HETATM   15  C   UNL     1      45.770 -10.768   9.981  1.00  0.00     0.021 C 
HETATM   16  C   UNL     1      44.376 -12.418  11.232  1.00  0.00     0.021 C 
HETATM   17  C   UNL     1      43.328 -10.348  10.278  1.00  0.00     0.021 C 
ENDBRANCH  12  14
ENDBRANCH   7   8
ENDBRANCH   1   7
BRANCH   3  18
HETATM   18  C   UNL     1      43.162 -17.948   4.961  1.00  0.00     0.037 A 
HETATM   19  C   UNL     1      43.049 -18.500   3.682  1.00  0.00     0.045 A 
HETATM   20  C   UNL     1      43.745 -19.676   3.340  1.00  0.00     0.050 A 
HETATM   21  C   UNL     1      44.564 -20.288   4.299  1.00  0.00     0.016 A 
HETATM   22  C   UNL     1      44.671 -19.751   5.579  1.00  0.00     0.003 A 
HETATM   23  C   UNL     1      43.970 -18.590   5.907  1.00  0.00     0.029 A 
BRANCH  20  24
HETATM   24  C   UNL     1      43.645 -20.246   1.948  1.00  0.00     0.417 C 
HETATM   25  F   UNL     1      42.462 -20.870   1.696  1.00  0.00    -0.166 F 
HETATM   26  F   UNL     1      43.781 -19.291   0.986  1.00  0.00    -0.166 F 
HETATM   27  F   UNL     1      44.612 -21.172   1.687  1.00  0.00    -0.166 F 
ENDBRANCH  20  24
ENDBRANCH   3  18
TORSDOF 5
ENDMDL
MODEL 7
REMARK VINA RESULT:      -7.7      2.072      2.617
REMARK  5 active torsions:
REMARK  status: ('A' for Active; 'I' for Inactive)
REMARK    1  A    between atoms: C_2  and  C_3 
REMARK    2  A    between atoms: C_7  and  C_8 
REMARK    3  A    between atoms: C_8  and  N_9 
REMARK       I    between atoms: N_9  and  C_10 
REMARK       I    between atoms: C_10  and  N_11 
REMARK    4  A    between atoms: N_11  and  C_12 
REMARK    5  A    between atoms: C_14  and  C_15 
ROOT
HETATM    1  N   UNL     1      41.665 -15.126   0.645  1.00  0.00    -0.333 N 
HETATM    2  C   UNL     1      41.866 -16.441   1.061  1.00  0.00     0.322 C 
HETATM    3  N   UNL     1      42.945 -16.609   1.897  1.00  0.00    -0.309 N 
HETATM    4  O   UNL     1      41.139 -17.345   0.657  1.00  0.00    -0.247 OA
HETATM    5  C   UNL     1      42.110 -13.939   1.368  1.00  0.00     0.155 C 
HETATM    6  H   UNL     1      43.606 -15.849   1.899  1.00  0.00     0.170 HD
ENDROOT
BRANCH   1   7
HETATM    7  C   UNL     1      40.814 -14.903  -0.516  1.00  0.00     0.185 C 
BRANCH   7   8
HETATM    8  C   UNL     1      41.362 -13.818  -1.363  1.00  0.00     0.047 A 
HETATM    9  N   UNL     1      42.529 -13.965  -2.059  1.00  0.00    -0.280 N 
HETATM   10  N   UNL     1      42.881 -12.868  -2.750  1.00  0.00    -0.178 NA
HETATM   11  H   UNL     1      43.122 -14.792  -2.103  1.00  0.00     0.189 HD
HETATM   12  C   UNL     1      41.916 -11.977  -2.482  1.00  0.00     0.064 A 
HETATM   13  C   UNL     1      40.938 -12.534  -1.617  1.00  0.00     0.058 A 
BRANCH  12  14
HETATM   14  C   UNL     1      41.943 -10.567  -3.054  1.00  0.00    -0.005 C 
HETATM   15  C   UNL     1      40.587  -9.846  -2.902  1.00  0.00     0.021 C 
HETATM   16  C   UNL     1      42.288 -10.621  -4.556  1.00  0.00     0.021 C 
HETATM   17  C   UNL     1      43.012  -9.725  -2.328  1.00  0.00     0.021 C 
ENDBRANCH  12  14
ENDBRANCH   7   8
ENDBRANCH   1   7
BRANCH   3  18
HETATM   18  C   UNL     1      43.383 -17.796   2.521  1.00  0.00     0.037 A 
HETATM   19  C   UNL     1      43.329 -19.058   1.925  1.00  0.00     0.045 A 
HETATM   20  C   UNL     1      43.789 -20.199   2.609  1.00  0.00     0.050 A 
HETATM   21  C   UNL     1      44.313 -20.056   3.901  1.00  0.00     0.016 A 
HETATM   22  C   UNL     1      44.358 -18.803   4.507  1.00  0.00     0.003 A 
HETATM   23  C   UNL     1      43.890 -17.682   3.821  1.00  0.00     0.029 A 
BRANCH  20  24
HETATM   24  C   UNL     1      43.761 -21.553   1.945  1.00  0.00     0.417 C 
HETATM   25  F   UNL     1      44.109 -22.576   2.774  1.00  0.00    -0.166 F 
HETATM   26  F   UNL     1      42.528 -21.865   1.458  1.00  0.00    -0.166 F 
HETATM   27  F   UNL     1      44.610 -21.637   0.882  1.00  0.00    -0.166 F 
ENDBRANCH  20  24
ENDBRANCH   3  18
TORSDOF 5
ENDMDL
MODEL 8
REMARK VINA RESULT:      -7.6      7.984     10.115
REMARK  5 active torsions:
REMARK  status: ('A' for Active; 'I' for Inactive)
REMARK    1  A    between atoms: C_2  and  C_3 
REMARK    2  A    between atoms: C_7  and  C_8 
REMARK    3  A    between atoms: C_8  and  N_9 
REMARK       I    between atoms: N_9  and  C_10 
REMARK       I    between atoms: C_10  and  N_11 
REMARK    4  A    between atoms: N_11  and  C_12 
REMARK    5  A    between atoms: C_14  and  C_15 
ROOT
HETATM    1  N   UNL     1      40.066 -11.440   5.954  1.00  0.00    -0.333 N 
HETATM    2  C   UNL     1      40.094 -11.081   7.301  1.00  0.00     0.322 C 
HETATM    3  N   UNL     1      41.226 -10.395   7.676  1.00  0.00    -0.309 N 
HETATM    4  O   UNL     1      39.183 -11.406   8.058  1.00  0.00    -0.247 OA
HETATM    5  C   UNL     1      40.788 -10.756   4.887  1.00  0.00     0.155 C 
HETATM    6  H   UNL     1      42.000 -10.463   7.035  1.00  0.00     0.170 HD
ENDROOT
BRANCH   1   7
HETATM    7  C   UNL     1      39.126 -12.477   5.548  1.00  0.00     0.185 C 
BRANCH   7   8
HETATM    8  C   UNL     1      39.819 -13.777   5.396  1.00  0.00     0.047 A 
HETATM    9  N   UNL     1      40.109 -14.570   6.469  1.00  0.00    -0.280 N 
HETATM   10  N   UNL     1      40.762 -15.698   6.140  1.00  0.00    -0.178 NA
HETATM   11  H   UNL     1      39.880 -14.396   7.447  1.00  0.00     0.189 HD
HETATM   12  C   UNL     1      40.911 -15.624   4.810  1.00  0.00     0.064 A 
HETATM   13  C   UNL     1      40.328 -14.435   4.300  1.00  0.00     0.058 A 
BRANCH  12  14
HETATM   14  C   UNL     1      41.635 -16.706   4.022  1.00  0.00    -0.005 C 
HETATM   15  C   UNL     1      43.089 -16.314   3.685  1.00  0.00     0.021 C 
HETATM   16  C   UNL     1      40.893 -16.969   2.695  1.00  0.00     0.021 C 
HETATM   17  C   UNL     1      41.673 -18.015   4.838  1.00  0.00     0.021 C 
ENDBRANCH  12  14
ENDBRANCH   7   8
ENDBRANCH   1   7
BRANCH   3  18
HETATM   18  C   UNL     1      41.534  -9.858   8.944  1.00  0.00     0.037 A 
HETATM   19  C   UNL     1      42.432 -10.439   9.842  1.00  0.00     0.045 A 
HETATM   20  C   UNL     1      42.693  -9.841  11.090  1.00  0.00     0.050 A 
HETATM   21  C   UNL     1      42.044  -8.644  11.424  1.00  0.00     0.016 A 
HETATM   22  C   UNL     1      41.138  -8.066  10.539  1.00  0.00     0.003 A 
HETATM   23  C   UNL     1      40.882  -8.673   9.309  1.00  0.00     0.029 A 
BRANCH  20  24
HETATM   24  C   UNL     1      43.691 -10.456  12.040  1.00  0.00     0.417 C 
HETATM   25  F   UNL     1      44.917 -10.663  11.485  1.00  0.00    -0.166 F 
HETATM   26  F   UNL     1      43.901  -9.683  13.141  1.00  0.00    -0.166 F 
HETATM   27  F   UNL     1      43.291 -11.671  12.511  1.00  0.00    -0.166 F 
ENDBRANCH  20  24
ENDBRANCH   3  18
TORSDOF 5
ENDMDL
MODEL 9
REMARK VINA RESULT:      -7.6      1.784      2.272
REMARK  5 active torsions:
REMARK  status: ('A' for Active; 'I' for Inactive)
REMARK    1  A    between atoms: C_2  and  C_3 
REMARK    2  A    between atoms: C_7  and  C_8 
REMARK    3  A    between atoms: C_8  and  N_9 
REMARK       I    between atoms: N_9  and  C_10 
REMARK       I    between atoms: C_10  and  N_11 
REMARK    4  A    between atoms: N_11  and  C_12 
REMARK    5  A    between atoms: C_14  and  C_15 
ROOT
HETATM    1  N   UNL     1      39.849 -14.880   2.817  1.00  0.00    -0.333 N 
HETATM    2  C   UNL     1      40.475 -16.124   2.866  1.00  0.00     0.322 C 
HETATM    3  N   UNL     1      41.541 -16.184   3.734  1.00  0.00    -0.309 N 
HETATM    4  O   UNL     1      40.097 -17.047   2.148  1.00  0.00    -0.247 OA
HETATM    5  C   UNL     1      39.864 -13.889   3.887  1.00  0.00     0.155 C 
HETATM    6  H   UNL     1      41.909 -15.292   4.020  1.00  0.00     0.170 HD
ENDROOT
BRANCH   1   7
HETATM    7  C   UNL     1      38.983 -14.600   1.679  1.00  0.00     0.185 C 
BRANCH   7   8
HETATM    8  C   UNL     1      39.782 -14.159   0.512  1.00  0.00     0.047 A 
HETATM    9  N   UNL     1      40.123 -15.017  -0.495  1.00  0.00    -0.280 N 
HETATM   10  N   UNL     1      40.869 -14.444  -1.455  1.00  0.00    -0.178 NA
HETATM   11  H   UNL     1      39.868 -15.999  -0.584  1.00  0.00     0.189 HD
HETATM   12  C   UNL     1      41.029 -13.178  -1.047  1.00  0.00     0.064 A 
HETATM   13  C   UNL     1      40.357 -12.953   0.183  1.00  0.00     0.058 A 
BRANCH  12  14
HETATM   14  C   UNL     1      41.848 -12.174  -1.845  1.00  0.00    -0.005 C 
HETATM   15  C   UNL     1      40.966 -11.259  -2.721  1.00  0.00     0.021 C 
HETATM   16  C   UNL     1      42.828 -12.921  -2.773  1.00  0.00     0.021 C 
HETATM   17  C   UNL     1      42.658 -11.276  -0.886  1.00  0.00     0.021 C 
ENDBRANCH  12  14
ENDBRANCH   7   8
ENDBRANCH   1   7
BRANCH   3  18
HETATM   18  C   UNL     1      42.345 -17.301   4.044  1.00  0.00     0.037 A 
HETATM   19  C   UNL     1      42.808 -18.218   3.097  1.00  0.00     0.045 A 
HETATM   20  C   UNL     1      43.612 -19.308   3.481  1.00  0.00     0.050 A 
HETATM   21  C   UNL     1      43.954 -19.462   4.832  1.00  0.00     0.016 A 
HETATM   22  C   UNL     1      43.487 -18.559   5.783  1.00  0.00     0.003 A 
HETATM   23  C   UNL     1      42.683 -17.488   5.390  1.00  0.00     0.029 A 
BRANCH  20  24
HETATM   24  C   UNL     1      44.137 -20.274   2.449  1.00  0.00     0.417 C 
HETATM   25  F   UNL     1      43.620 -21.528   2.561  1.00  0.00    -0.166 F 
HETATM   26  F   UNL     1      43.868 -19.868   1.176  1.00  0.00    -0.166 F 
HETATM   27  F   UNL     1      45.490 -20.427   2.509  1.00  0.00    -0.166 F 
ENDBRANCH  20  24
ENDBRANCH   3  18
TORSDOF 5
ENDMDL
MODEL 10
REMARK VINA RESULT:      -7.5      4.547      7.591
REMARK  5 active torsions:
REMARK  status: ('A' for Active; 'I' for Inactive)
REMARK    1  A    between atoms: C_2  and  C_3 
REMARK    2  A    between atoms: C_7  and  C_8 
REMARK    3  A    between atoms: C_8  and  N_9 
REMARK       I    between atoms: N_9  and  C_10 
REMARK       I    between atoms: C_10  and  N_11 
REMARK    4  A    between atoms: N_11  and  C_12 
REMARK    5  A    between atoms: C_14  and  C_15 
ROOT
HETATM    1  N   UNL     1      41.855 -14.305   5.345  1.00  0.00    -0.333 N 
HETATM    2  C   UNL     1      42.561 -15.176   4.518  1.00  0.00     0.322 C 
HETATM    3  N   UNL     1      42.279 -16.506   4.729  1.00  0.00    -0.309 N 
HETATM    4  O   UNL     1      43.384 -14.750   3.712  1.00  0.00    -0.247 OA
HETATM    5  C   UNL     1      40.572 -14.598   5.974  1.00  0.00     0.155 C 
HETATM    6  H   UNL     1      41.821 -16.712   5.603  1.00  0.00     0.170 HD
ENDROOT
BRANCH   1   7
HETATM    7  C   UNL     1      42.349 -12.940   5.473  1.00  0.00     0.185 C 
BRANCH   7   8
HETATM    8  C   UNL     1      43.113 -12.779   6.731  1.00  0.00     0.047 A 
HETATM    9  N   UNL     1      44.028 -13.706   7.144  1.00  0.00    -0.280 N 
HETATM   10  N   UNL     1      44.603 -13.402   8.320  1.00  0.00    -0.178 NA
HETATM   11  H   UNL     1      44.304 -14.560   6.662  1.00  0.00     0.189 HD
HETATM   12  C   UNL     1      44.031 -12.246   8.686  1.00  0.00     0.064 A 
HETATM   13  C   UNL     1      43.092 -11.816   7.713  1.00  0.00     0.058 A 
BRANCH  12  14
HETATM   14  C   UNL     1      44.384 -11.555   9.995  1.00  0.00    -0.005 C 
HETATM   15  C   UNL     1      44.380 -12.528  11.193  1.00  0.00     0.021 C 
HETATM   16  C   UNL     1      43.362 -10.437  10.286  1.00  0.00     0.021 C 
HETATM   17  C   UNL     1      45.791 -10.929   9.896  1.00  0.00     0.021 C 
ENDBRANCH  12  14
ENDBRANCH   7   8
ENDBRANCH   1   7
BRANCH   3  18
HETATM   18  C   UNL     1      42.786 -17.623   4.032  1.00  0.00     0.037 A 
HETATM   19  C   UNL     1      43.545 -18.636   4.624  1.00  0.00     0.045 A 
HETATM   20  C   UNL     1      44.014 -19.723   3.863  1.00  0.00     0.050 A 
HETATM   21  C   UNL     1      43.707 -19.785   2.497  1.00  0.00     0.016 A 
HETATM   22  C   UNL     1      42.963 -18.773   1.897  1.00  0.00     0.003 A 
HETATM   23  C   UNL     1      42.510 -17.696   2.661  1.00  0.00     0.029 A 
BRANCH  20  24
HETATM   24  C   UNL     1      44.802 -20.831   4.517  1.00  0.00     0.417 C 
HETATM   25  F   UNL     1      46.151 -20.666   4.432  1.00  0.00    -0.166 F 
HETATM   26  F   UNL     1      44.519 -20.954   5.843  1.00  0.00    -0.166 F 
HETATM   27  F   UNL     1      44.546 -22.054   3.970  1.00  0.00    -0.166 F 
ENDBRANCH  20  24
ENDBRANCH   3  18
TORSDOF 5
ENDMDL
