MODEL 1
REMARK VINA RESULT:      -9.2      0.000      0.000
REMARK  6 active torsions:
REMARK  status: ('A' for Active; 'I' for Inactive)
REMARK    1  A    between atoms: C_3  and  C_4 
REMARK       I    between atoms: C_4  and  N_5 
REMARK    2  A    between atoms: N_5  and  C_6 
REMARK    3  A    between atoms: C_14  and  N_15 
REMARK       I    between atoms: N_15  and  C_16 
REMARK    4  A    between atoms: C_16  and  C_17 
REMARK    5  A    between atoms: C_17  and  S_18 
REMARK    6  A    between atoms: S_18  and  C_19 
ROOT
HETATM    1  C   UNL     1      44.061 -22.115   1.986  1.00  0.00     0.001 A 
HETATM    2  C   UNL     1      43.611 -20.823   1.720  1.00  0.00     0.019 A 
HETATM    3  C   UNL     1      43.799 -19.793   2.661  1.00  0.00     0.059 A 
HETATM    4  C   UNL     1      44.399 -20.074   3.910  1.00  0.00     0.050 A 
HETATM    5  C   UNL     1      44.856 -21.377   4.148  1.00  0.00     0.030 A 
HETATM    6  C   UNL     1      44.694 -22.386   3.193  1.00  0.00     0.002 A 
ENDROOT
BRANCH   4   7
HETATM    7  N   UNL     1      44.489 -19.057   4.893  1.00  0.00    -0.326 N 
HETATM    8  C   UNL     1      44.193 -19.136   6.237  1.00  0.00     0.231 C 
HETATM    9  O   UNL     1      43.896 -20.177   6.830  1.00  0.00    -0.272 OA
HETATM   10  H   UNL     1      44.793 -18.144   4.545  1.00  0.00     0.169 HD
BRANCH   8  11
HETATM   11  C   UNL     1      44.196 -17.825   7.014  1.00  0.00     0.185 C 
BRANCH  11  12
HETATM   12  S   UNL     1      42.555 -17.133   7.362  1.00  0.00    -0.083 SA
BRANCH  12  13
HETATM   13  C   UNL     1      42.417 -15.980   6.090  1.00  0.00     0.168 A 
HETATM   14  N   UNL     1      43.179 -15.879   5.030  1.00  0.00    -0.223 NA
HETATM   15  C   UNL     1      42.708 -14.770   4.369  1.00  0.00     0.086 A 
HETATM   16  C   UNL     1      41.622 -14.210   5.039  1.00  0.00     0.063 A 
HETATM   17  C   UNL     1      43.158 -14.176   3.183  1.00  0.00     0.034 A 
HETATM   18  N   UNL     1      41.467 -15.005   6.145  1.00  0.00    -0.333 N 
HETATM   19  C   UNL     1      40.938 -13.082   4.584  1.00  0.00     0.032 A 
HETATM   20  H   UNL     1      40.791 -14.890   6.885  1.00  0.00     0.168 HD
HETATM   21  C   UNL     1      41.401 -12.505   3.395  1.00  0.00     0.002 A 
HETATM   22  C   UNL     1      42.494 -13.039   2.705  1.00  0.00     0.002 A 
ENDBRANCH  12  13
ENDBRANCH  11  12
ENDBRANCH   8  11
ENDBRANCH   4   7
BRANCH   3  23
HETATM   23  C   UNL     1      43.376 -18.401   2.305  1.00  0.00     0.258 C 
HETATM   24  N   UNL     1      42.093 -18.291   1.794  1.00  0.00    -0.323 N 
HETATM   25  H   UNL     1      41.609 -19.154   1.580  1.00  0.00     0.169 HD
HETATM   26  O   UNL     1      44.181 -17.486   2.424  1.00  0.00    -0.267 OA
BRANCH  24  27
HETATM   27  C   UNL     1      41.416 -17.108   1.433  1.00  0.00     0.035 A 
HETATM   28  C   UNL     1      41.735 -16.337   0.310  1.00  0.00     0.032 A 
HETATM   29  C   UNL     1      41.016 -15.173   0.024  1.00  0.00     0.044 A 
HETATM   30  C   UNL     1      39.984 -14.776   0.863  1.00  0.00     0.116 A 
HETATM   31  F   UNL     1      39.298 -13.660   0.588  1.00  0.00    -0.206 F 
HETATM   32  C   UNL     1      39.657 -15.522   1.988  1.00  0.00     0.044 A 
HETATM   33  C   UNL     1      40.375 -16.686   2.274  1.00  0.00     0.032 A 
ENDBRANCH  24  27
ENDBRANCH   3  23
TORSDOF 6
ENDMDL
MODEL 2
REMARK VINA RESULT:      -8.4      4.273      6.409
REMARK  6 active torsions:
REMARK  status: ('A' for Active; 'I' for Inactive)
REMARK    1  A    between atoms: C_3  and  C_4 
REMARK       I    between atoms: C_4  and  N_5 
REMARK    2  A    between atoms: N_5  and  C_6 
REMARK    3  A    between atoms: C_14  and  N_15 
REMARK       I    between atoms: N_15  and  C_16 
REMARK    4  A    between atoms: C_16  and  C_17 
REMARK    5  A    between atoms: C_17  and  S_18 
REMARK    6  A    between atoms: S_18  and  C_19 
ROOT
HETATM    1  C   UNL     1      41.778 -14.243   0.654  1.00  0.00     0.001 A 
HETATM    2  C   UNL     1      41.928 -15.553   1.105  1.00  0.00     0.019 A 
HETATM    3  C   UNL     1      42.394 -15.811   2.409  1.00  0.00     0.059 A 
HETATM    4  C   UNL     1      42.766 -14.741   3.254  1.00  0.00     0.050 A 
HETATM    5  C   UNL     1      42.594 -13.433   2.782  1.00  0.00     0.030 A 
HETATM    6  C   UNL     1      42.099 -13.186   1.498  1.00  0.00     0.002 A 
ENDROOT
BRANCH   4   7
HETATM    7  N   UNL     1      43.334 -15.010   4.524  1.00  0.00    -0.326 N 
HETATM    8  C   UNL     1      42.738 -14.926   5.765  1.00  0.00     0.231 C 
HETATM    9  O   UNL     1      41.541 -14.699   5.953  1.00  0.00    -0.272 OA
HETATM   10  H   UNL     1      44.321 -15.279   4.509  1.00  0.00     0.169 HD
BRANCH   8  11
HETATM   11  C   UNL     1      43.654 -15.085   6.973  1.00  0.00     0.185 C 
BRANCH  11  12
HETATM   12  S   UNL     1      45.135 -14.037   6.959  1.00  0.00    -0.083 SA
BRANCH  12  13
HETATM   13  C   UNL     1      44.734 -12.899   8.189  1.00  0.00     0.168 A 
HETATM   14  N   UNL     1      45.422 -12.632   9.271  1.00  0.00    -0.223 NA
HETATM   15  C   UNL     1      44.654 -11.719   9.953  1.00  0.00     0.086 A 
HETATM   16  C   UNL     1      43.490 -11.416   9.248  1.00  0.00     0.063 A 
HETATM   17  C   UNL     1      44.885 -11.098  11.188  1.00  0.00     0.034 A 
HETATM   18  N   UNL     1      43.568 -12.198   8.124  1.00  0.00    -0.333 N 
HETATM   19  C   UNL     1      42.533 -10.507   9.701  1.00  0.00     0.032 A 
HETATM   20  H   UNL     1      42.885 -12.268   7.386  1.00  0.00     0.168 HD
HETATM   21  C   UNL     1      42.785  -9.895  10.935  1.00  0.00     0.002 A 
HETATM   22  C   UNL     1      43.938 -10.186  11.670  1.00  0.00     0.002 A 
ENDBRANCH  12  13
ENDBRANCH  11  12
ENDBRANCH   8  11
ENDBRANCH   4   7
BRANCH   3  23
HETATM   23  C   UNL     1      42.463 -17.229   2.886  1.00  0.00     0.258 C 
HETATM   24  N   UNL     1      43.535 -17.959   2.401  1.00  0.00    -0.323 N 
HETATM   25  H   UNL     1      44.093 -17.527   1.674  1.00  0.00     0.169 HD
HETATM   26  O   UNL     1      41.565 -17.661   3.599  1.00  0.00    -0.267 OA
BRANCH  24  27
HETATM   27  C   UNL     1      43.881 -19.288   2.725  1.00  0.00     0.035 A 
HETATM   28  C   UNL     1      44.541 -19.658   3.902  1.00  0.00     0.032 A 
HETATM   29  C   UNL     1      44.852 -20.998   4.146  1.00  0.00     0.044 A 
HETATM   30  C   UNL     1      44.509 -21.967   3.213  1.00  0.00     0.116 A 
HETATM   31  F   UNL     1      44.808 -23.250   3.449  1.00  0.00    -0.206 F 
HETATM   32  C   UNL     1      43.861 -21.620   2.035  1.00  0.00     0.044 A 
HETATM   33  C   UNL     1      43.550 -20.280   1.790  1.00  0.00     0.032 A 
ENDBRANCH  24  27
ENDBRANCH   3  23
TORSDOF 6
ENDMDL
MODEL 3
REMARK VINA RESULT:      -8.2      3.319      6.551
REMARK  6 active torsions:
REMARK  status: ('A' for Active; 'I' for Inactive)
REMARK    1  A    between atoms: C_3  and  C_4 
REMARK       I    between atoms: C_4  and  N_5 
REMARK    2  A    between atoms: N_5  and  C_6 
REMARK    3  A    between atoms: C_14  and  N_15 
REMARK       I    between atoms: N_15  and  C_16 
REMARK    4  A    between atoms: C_16  and  C_17 
REMARK    5  A    between atoms: C_17  and  S_18 
REMARK    6  A    between atoms: S_18  and  C_19 
ROOT
HETATM    1  C   UNL     1      44.346 -14.519   7.257  1.00  0.00     0.001 A 
HETATM    2  C   UNL     1      44.037 -15.765   6.715  1.00  0.00     0.019 A 
HETATM    3  C   UNL     1      43.194 -15.866   5.591  1.00  0.00     0.059 A 
HETATM    4  C   UNL     1      42.612 -14.704   5.035  1.00  0.00     0.050 A 
HETATM    5  C   UNL     1      42.950 -13.462   5.589  1.00  0.00     0.030 A 
HETATM    6  C   UNL     1      43.813 -13.370   6.684  1.00  0.00     0.002 A 
ENDROOT
BRANCH   4   7
HETATM    7  N   UNL     1      41.682 -14.822   3.971  1.00  0.00    -0.326 N 
HETATM    8  C   UNL     1      40.311 -14.678   4.011  1.00  0.00     0.231 C 
HETATM    9  O   UNL     1      39.674 -14.303   4.997  1.00  0.00    -0.272 OA
HETATM   10  H   UNL     1      42.090 -15.068   3.066  1.00  0.00     0.169 HD
BRANCH   8  11
HETATM   11  C   UNL     1      39.550 -15.058   2.747  1.00  0.00     0.185 C 
BRANCH  11  12
HETATM   12  S   UNL     1      40.380 -16.271   1.683  1.00  0.00    -0.083 SA
BRANCH  12  13
HETATM   13  C   UNL     1      40.929 -15.255   0.405  1.00  0.00     0.168 A 
HETATM   14  N   UNL     1      41.629 -14.154   0.518  1.00  0.00    -0.223 NA
HETATM   15  C   UNL     1      41.747 -13.686  -0.768  1.00  0.00     0.086 A 
HETATM   16  C   UNL     1      41.122 -14.542  -1.674  1.00  0.00     0.063 A 
HETATM   17  C   UNL     1      42.378 -12.529  -1.247  1.00  0.00     0.034 A 
HETATM   18  N   UNL     1      40.598 -15.535  -0.886  1.00  0.00    -0.333 N 
HETATM   19  C   UNL     1      41.097 -14.317  -3.051  1.00  0.00     0.032 A 
HETATM   20  H   UNL     1      40.048 -16.323  -1.190  1.00  0.00     0.168 HD
HETATM   21  C   UNL     1      41.736 -13.158  -3.509  1.00  0.00     0.002 A 
HETATM   22  C   UNL     1      42.364 -12.276  -2.625  1.00  0.00     0.002 A 
ENDBRANCH  12  13
ENDBRANCH  11  12
ENDBRANCH   8  11
ENDBRANCH   4   7
BRANCH   3  23
HETATM   23  C   UNL     1      42.951 -17.215   4.987  1.00  0.00     0.258 C 
HETATM   24  N   UNL     1      44.030 -17.758   4.310  1.00  0.00    -0.323 N 
HETATM   25  H   UNL     1      44.831 -17.155   4.165  1.00  0.00     0.169 HD
HETATM   26  O   UNL     1      41.834 -17.710   5.071  1.00  0.00    -0.267 OA
BRANCH  24  27
HETATM   27  C   UNL     1      44.105 -19.027   3.700  1.00  0.00     0.035 A 
HETATM   28  C   UNL     1      44.703 -20.144   4.293  1.00  0.00     0.032 A 
HETATM   29  C   UNL     1      44.739 -21.368   3.619  1.00  0.00     0.044 A 
HETATM   30  C   UNL     1      44.185 -21.473   2.350  1.00  0.00     0.116 A 
HETATM   31  F   UNL     1      44.221 -22.646   1.706  1.00  0.00    -0.206 F 
HETATM   32  C   UNL     1      43.595 -20.374   1.740  1.00  0.00     0.044 A 
HETATM   33  C   UNL     1      43.558 -19.151   2.414  1.00  0.00     0.032 A 
ENDBRANCH  24  27
ENDBRANCH   3  23
TORSDOF 6
ENDMDL
MODEL 4
REMARK VINA RESULT:      -8.2      3.169      6.357
REMARK  6 active torsions:
REMARK  status: ('A' for Active; 'I' for Inactive)
REMARK    1  A    between atoms: C_3  and  C_4 
REMARK       I    between atoms: C_4  and  N_5 
REMARK    2  A    between atoms: N_5  and  C_6 
REMARK    3  A    between atoms: C_14  and  N_15 
REMARK       I    between atoms: N_15  and  C_16 
REMARK    4  A    between atoms: C_16  and  C_17 
REMARK    5  A    between atoms: C_17  and  S_18 
REMARK    6  A    between atoms: S_18  and  C_19 
ROOT
HETATM    1  C   UNL     1      40.872 -15.192  -3.116  1.00  0.00     0.001 A 
HETATM    2  C   UNL     1      41.178 -15.898  -1.954  1.00  0.00     0.019 A 
HETATM    3  C   UNL     1      41.026 -15.296  -0.690  1.00  0.00     0.059 A 
HETATM    4  C   UNL     1      40.612 -13.947  -0.593  1.00  0.00     0.050 A 
HETATM    5  C   UNL     1      40.297 -13.263  -1.775  1.00  0.00     0.030 A 
HETATM    6  C   UNL     1      40.420 -13.881  -3.023  1.00  0.00     0.002 A 
ENDROOT
BRANCH   4   7
HETATM    7  N   UNL     1      40.564 -13.314   0.674  1.00  0.00    -0.326 N 
HETATM    8  C   UNL     1      41.530 -12.543   1.285  1.00  0.00     0.231 C 
HETATM    9  O   UNL     1      42.582 -12.184   0.750  1.00  0.00    -0.272 OA
HETATM   10  H   UNL     1      39.704 -13.477   1.206  1.00  0.00     0.169 HD
BRANCH   8  11
HETATM   11  C   UNL     1      41.276 -12.157   2.737  1.00  0.00     0.185 C 
BRANCH  11  12
HETATM   12  S   UNL     1      39.949 -13.082   3.558  1.00  0.00    -0.083 SA
BRANCH  12  13
HETATM   13  C   UNL     1      40.862 -14.053   4.650  1.00  0.00     0.168 A 
HETATM   14  N   UNL     1      42.056 -13.798   5.123  1.00  0.00    -0.223 NA
HETATM   15  C   UNL     1      42.370 -14.899   5.883  1.00  0.00     0.086 A 
HETATM   16  C   UNL     1      41.327 -15.823   5.883  1.00  0.00     0.063 A 
HETATM   17  C   UNL     1      43.534 -15.184   6.610  1.00  0.00     0.034 A 
HETATM   18  N   UNL     1      40.377 -15.253   5.073  1.00  0.00    -0.333 N 
HETATM   19  C   UNL     1      41.369 -17.029   6.584  1.00  0.00     0.032 A 
HETATM   20  H   UNL     1      39.487 -15.648   4.813  1.00  0.00     0.168 HD
HETATM   21  C   UNL     1      42.539 -17.293   7.307  1.00  0.00     0.002 A 
HETATM   22  C   UNL     1      43.606 -16.390   7.319  1.00  0.00     0.002 A 
ENDBRANCH  12  13
ENDBRANCH  11  12
ENDBRANCH   8  11
ENDBRANCH   4   7
BRANCH   3  23
HETATM   23  C   UNL     1      41.286 -16.112   0.537  1.00  0.00     0.258 C 
HETATM   24  N   UNL     1      42.538 -16.700   0.596  1.00  0.00    -0.323 N 
HETATM   25  H   UNL     1      43.111 -16.644  -0.237  1.00  0.00     0.169 HD
HETATM   26  O   UNL     1      40.386 -16.258   1.356  1.00  0.00    -0.267 OA
BRANCH  24  27
HETATM   27  C   UNL     1      43.073 -17.467   1.652  1.00  0.00     0.035 A 
HETATM   28  C   UNL     1      43.360 -16.955   2.922  1.00  0.00     0.032 A 
HETATM   29  C   UNL     1      43.894 -17.782   3.914  1.00  0.00     0.044 A 
HETATM   30  C   UNL     1      44.147 -19.118   3.635  1.00  0.00     0.116 A 
HETATM   31  F   UNL     1      44.659 -19.909   4.587  1.00  0.00    -0.206 F 
HETATM   32  C   UNL     1      43.879 -19.644   2.379  1.00  0.00     0.044 A 
HETATM   33  C   UNL     1      43.344 -18.818   1.386  1.00  0.00     0.032 A 
ENDBRANCH  24  27
ENDBRANCH   3  23
TORSDOF 6
ENDMDL
MODEL 5
REMARK VINA RESULT:      -8.1      3.198      3.676
REMARK  6 active torsions:
REMARK  status: ('A' for Active; 'I' for Inactive)
REMARK    1  A    between atoms: C_3  and  C_4 
REMARK       I    between atoms: C_4  and  N_5 
REMARK    2  A    between atoms: N_5  and  C_6 
REMARK    3  A    between atoms: C_14  and  N_15 
REMARK       I    between atoms: N_15  and  C_16 
REMARK    4  A    between atoms: C_16  and  C_17 
REMARK    5  A    between atoms: C_17  and  S_18 
REMARK    6  A    between atoms: S_18  and  C_19 
ROOT
HETATM    1  C   UNL     1      44.064 -20.669   2.242  1.00  0.00     0.001 A 
HETATM    2  C   UNL     1      43.452 -19.465   1.898  1.00  0.00     0.019 A 
HETATM    3  C   UNL     1      43.433 -18.389   2.806  1.00  0.00     0.059 A 
HETATM    4  C   UNL     1      43.989 -18.540   4.097  1.00  0.00     0.050 A 
HETATM    5  C   UNL     1      44.611 -19.755   4.413  1.00  0.00     0.030 A 
HETATM    6  C   UNL     1      44.653 -20.807   3.493  1.00  0.00     0.002 A 
ENDROOT
BRANCH   4   7
HETATM    7  N   UNL     1      43.872 -17.490   5.042  1.00  0.00    -0.326 N 
HETATM    8  C   UNL     1      42.787 -17.157   5.825  1.00  0.00     0.231 C 
HETATM    9  O   UNL     1      41.749 -17.818   5.901  1.00  0.00    -0.272 OA
HETATM   10  H   UNL     1      44.700 -16.894   5.131  1.00  0.00     0.169 HD
BRANCH   8  11
HETATM   11  C   UNL     1      42.885 -15.853   6.607  1.00  0.00     0.185 C 
BRANCH  11  12
HETATM   12  S   UNL     1      43.834 -14.538   5.794  1.00  0.00    -0.083 SA
BRANCH  12  13
HETATM   13  C   UNL     1      44.116 -13.477   7.122  1.00  0.00     0.168 A 
HETATM   14  N   UNL     1      45.146 -13.482   7.931  1.00  0.00    -0.223 NA
HETATM   15  C   UNL     1      44.866 -12.502   8.852  1.00  0.00     0.086 A 
HETATM   16  C   UNL     1      43.650 -11.881   8.572  1.00  0.00     0.063 A 
HETATM   17  C   UNL     1      45.607 -12.079   9.965  1.00  0.00     0.034 A 
HETATM   18  N   UNL     1      43.189 -12.538   7.460  1.00  0.00    -0.333 N 
HETATM   19  C   UNL     1      43.125 -10.839   9.339  1.00  0.00     0.032 A 
HETATM   20  H   UNL     1      42.316 -12.380   6.981  1.00  0.00     0.168 HD
HETATM   21  C   UNL     1      43.883 -10.431  10.443  1.00  0.00     0.002 A 
HETATM   22  C   UNL     1      45.101 -11.040  10.756  1.00  0.00     0.002 A 
ENDBRANCH  12  13
ENDBRANCH  11  12
ENDBRANCH   8  11
ENDBRANCH   4   7
BRANCH   3  23
HETATM   23  C   UNL     1      42.839 -17.085   2.371  1.00  0.00     0.258 C 
HETATM   24  N   UNL     1      41.591 -17.178   1.777  1.00  0.00    -0.323 N 
HETATM   25  H   UNL     1      41.252 -18.109   1.566  1.00  0.00     0.169 HD
HETATM   26  O   UNL     1      43.495 -16.059   2.505  1.00  0.00    -0.267 OA
BRANCH  24  27
HETATM   27  C   UNL     1      40.777 -16.117   1.329  1.00  0.00     0.035 A 
HETATM   28  C   UNL     1      39.658 -15.644   2.023  1.00  0.00     0.032 A 
HETATM   29  C   UNL     1      38.900 -14.589   1.507  1.00  0.00     0.044 A 
HETATM   30  C   UNL     1      39.256 -14.012   0.296  1.00  0.00     0.116 A 
HETATM   31  F   UNL     1      38.528 -13.002  -0.196  1.00  0.00    -0.206 F 
HETATM   32  C   UNL     1      40.357 -14.473  -0.413  1.00  0.00     0.044 A 
HETATM   33  C   UNL     1      41.116 -15.527   0.102  1.00  0.00     0.032 A 
ENDBRANCH  24  27
ENDBRANCH   3  23
TORSDOF 6
ENDMDL
MODEL 6
REMARK VINA RESULT:      -8.0      3.867      6.809
REMARK  6 active torsions:
REMARK  status: ('A' for Active; 'I' for Inactive)
REMARK    1  A    between atoms: C_3  and  C_4 
REMARK       I    between atoms: C_4  and  N_5 
REMARK    2  A    between atoms: N_5  and  C_6 
REMARK    3  A    between atoms: C_14  and  N_15 
REMARK       I    between atoms: N_15  and  C_16 
REMARK    4  A    between atoms: C_16  and  C_17 
REMARK    5  A    between atoms: C_17  and  S_18 
REMARK    6  A    between atoms: S_18  and  C_19 
ROOT
HETATM    1  C   UNL     1      39.501 -15.692  -3.875  1.00  0.00     0.001 A 
HETATM    2  C   UNL     1      40.373 -15.778  -2.791  1.00  0.00     0.019 A 
HETATM    3  C   UNL     1      40.169 -14.987  -1.644  1.00  0.00     0.059 A 
HETATM    4  C   UNL     1      39.106 -14.056  -1.606  1.00  0.00     0.050 A 
HETATM    5  C   UNL     1      38.234 -13.998  -2.702  1.00  0.00     0.030 A 
HETATM    6  C   UNL     1      38.426 -14.812  -3.822  1.00  0.00     0.002 A 
ENDROOT
BRANCH   4   7
HETATM    7  N   UNL     1      38.969 -13.188  -0.494  1.00  0.00    -0.326 N 
HETATM    8  C   UNL     1      38.174 -13.343   0.622  1.00  0.00     0.231 C 
HETATM    9  O   UNL     1      37.517 -14.355   0.880  1.00  0.00    -0.272 OA
HETATM   10  H   UNL     1      39.519 -12.327  -0.547  1.00  0.00     0.169 HD
BRANCH   8  11
HETATM   11  C   UNL     1      38.082 -12.149   1.565  1.00  0.00     0.185 C 
BRANCH  11  12
HETATM   12  S   UNL     1      39.614 -11.196   1.752  1.00  0.00    -0.083 SA
BRANCH  12  13
HETATM   13  C   UNL     1      40.517 -12.240   2.783  1.00  0.00     0.168 A 
HETATM   14  N   UNL     1      40.080 -12.874   3.841  1.00  0.00    -0.223 NA
HETATM   15  C   UNL     1      41.189 -13.508   4.348  1.00  0.00     0.086 A 
HETATM   16  C   UNL     1      42.311 -13.265   3.557  1.00  0.00     0.063 A 
HETATM   17  C   UNL     1      41.319 -14.314   5.487  1.00  0.00     0.034 A 
HETATM   18  N   UNL     1      41.847 -12.440   2.565  1.00  0.00    -0.333 N 
HETATM   19  C   UNL     1      43.573 -13.796   3.830  1.00  0.00     0.032 A 
HETATM   20  H   UNL     1      42.384 -12.029   1.817  1.00  0.00     0.168 HD
HETATM   21  C   UNL     1      43.680 -14.602   4.971  1.00  0.00     0.002 A 
HETATM   22  C   UNL     1      42.575 -14.856   5.788  1.00  0.00     0.002 A 
ENDBRANCH  12  13
ENDBRANCH  11  12
ENDBRANCH   8  11
ENDBRANCH   4   7
BRANCH   3  23
HETATM   23  C   UNL     1      41.078 -15.167  -0.469  1.00  0.00     0.258 C 
HETATM   24  N   UNL     1      41.086 -16.441   0.076  1.00  0.00    -0.323 N 
HETATM   25  H   UNL     1      40.392 -17.092  -0.270  1.00  0.00     0.169 HD
HETATM   26  O   UNL     1      41.689 -14.198  -0.036  1.00  0.00    -0.267 OA
BRANCH  24  27
HETATM   27  C   UNL     1      41.883 -16.909   1.141  1.00  0.00     0.035 A 
HETATM   28  C   UNL     1      41.400 -17.146   2.433  1.00  0.00     0.032 A 
HETATM   29  C   UNL     1      42.259 -17.607   3.435  1.00  0.00     0.044 A 
HETATM   30  C   UNL     1      43.599 -17.824   3.148  1.00  0.00     0.116 A 
HETATM   31  F   UNL     1      44.420 -18.265   4.110  1.00  0.00    -0.206 F 
HETATM   32  C   UNL     1      44.101 -17.587   1.876  1.00  0.00     0.044 A 
HETATM   33  C   UNL     1      43.243 -17.127   0.873  1.00  0.00     0.032 A 
ENDBRANCH  24  27
ENDBRANCH   3  23
TORSDOF 6
ENDMDL
MODEL 7
REMARK VINA RESULT:      -7.9      1.745      2.431
REMARK  6 active torsions:
REMARK  status: ('A' for Active; 'I' for Inactive)
REMARK    1  A    between atoms: C_3  and  C_4 
REMARK       I    between atoms: C_4  and  N_5 
REMARK    2  A    between atoms: N_5  and  C_6 
REMARK    3  A    between atoms: C_14  and  N_15 
REMARK       I    between atoms: N_15  and  C_16 
REMARK    4  A    between atoms: C_16  and  C_17 
REMARK    5  A    between atoms: C_17  and  S_18 
REMARK    6  A    between atoms: S_18  and  C_19 
ROOT
HETATM    1  C   UNL     1      44.588 -20.818   2.850  1.00  0.00     0.001 A 
HETATM    2  C   UNL     1      44.013 -19.728   2.200  1.00  0.00     0.019 A 
HETATM    3  C   UNL     1      43.750 -18.535   2.902  1.00  0.00     0.059 A 
HETATM    4  C   UNL     1      44.017 -18.454   4.287  1.00  0.00     0.050 A 
HETATM    5  C   UNL     1      44.609 -19.558   4.915  1.00  0.00     0.030 A 
HETATM    6  C   UNL     1      44.897 -20.726   4.202  1.00  0.00     0.002 A 
ENDROOT
BRANCH   4   7
HETATM    7  N   UNL     1      43.652 -17.290   5.009  1.00  0.00    -0.326 N 
HETATM    8  C   UNL     1      42.395 -16.889   5.410  1.00  0.00     0.231 C 
HETATM    9  O   UNL     1      41.372 -17.566   5.290  1.00  0.00    -0.272 OA
HETATM   10  H   UNL     1      44.427 -16.661   5.236  1.00  0.00     0.169 HD
BRANCH   8  11
HETATM   11  C   UNL     1      42.283 -15.487   5.999  1.00  0.00     0.185 C 
BRANCH  11  12
HETATM   12  S   UNL     1      43.569 -14.324   5.468  1.00  0.00    -0.083 SA
BRANCH  12  13
HETATM   13  C   UNL     1      42.758 -13.515   4.181  1.00  0.00     0.168 A 
HETATM   14  N   UNL     1      43.155 -13.417   2.937  1.00  0.00    -0.223 NA
HETATM   15  C   UNL     1      42.209 -12.624   2.334  1.00  0.00     0.086 A 
HETATM   16  C   UNL     1      41.210 -12.260   3.235  1.00  0.00     0.063 A 
HETATM   17  C   UNL     1      42.133 -12.168   1.010  1.00  0.00     0.034 A 
HETATM   18  N   UNL     1      41.598 -12.841   4.415  1.00  0.00    -0.333 N 
HETATM   19  C   UNL     1      40.115 -11.466   2.889  1.00  0.00     0.032 A 
HETATM   20  H   UNL     1      41.132 -12.773   5.306  1.00  0.00     0.168 HD
HETATM   21  C   UNL     1      40.056 -11.025   1.561  1.00  0.00     0.002 A 
HETATM   22  C   UNL     1      41.047 -11.365   0.636  1.00  0.00     0.002 A 
ENDBRANCH  12  13
ENDBRANCH  11  12
ENDBRANCH   8  11
ENDBRANCH   4   7
BRANCH   3  23
HETATM   23  C   UNL     1      43.208 -17.358   2.151  1.00  0.00     0.258 C 
HETATM   24  N   UNL     1      41.838 -17.375   1.944  1.00  0.00    -0.323 N 
HETATM   25  H   UNL     1      41.347 -18.226   2.191  1.00  0.00     0.169 HD
HETATM   26  O   UNL     1      43.987 -16.515   1.726  1.00  0.00    -0.267 OA
BRANCH  24  27
HETATM   27  C   UNL     1      41.055 -16.378   1.326  1.00  0.00     0.035 A 
HETATM   28  C   UNL     1      39.985 -15.728   1.949  1.00  0.00     0.032 A 
HETATM   29  C   UNL     1      39.255 -14.752   1.264  1.00  0.00     0.044 A 
HETATM   30  C   UNL     1      39.591 -14.431  -0.044  1.00  0.00     0.116 A 
HETATM   31  F   UNL     1      38.891 -13.496  -0.698  1.00  0.00    -0.206 F 
HETATM   32  C   UNL     1      40.644 -15.071  -0.683  1.00  0.00     0.044 A 
HETATM   33  C   UNL     1      41.375 -16.046   0.001  1.00  0.00     0.032 A 
ENDBRANCH  24  27
ENDBRANCH   3  23
TORSDOF 6
ENDMDL
MODEL 8
REMARK VINA RESULT:      -7.1      4.197      7.816
REMARK  6 active torsions:
REMARK  status: ('A' for Active; 'I' for Inactive)
REMARK    1  A    between atoms: C_3  and  C_4 
REMARK       I    between atoms: C_4  and  N_5 
REMARK    2  A    between atoms: N_5  and  C_6 
REMARK    3  A    between atoms: C_14  and  N_15 
REMARK       I    between atoms: N_15  and  C_16 
REMARK    4  A    between atoms: C_16  and  C_17 
REMARK    5  A    between atoms: C_17  and  S_18 
REMARK    6  A    between atoms: S_18  and  C_19 
ROOT
HETATM    1  C   UNL     1      39.884 -13.293   6.061  1.00  0.00     0.001 A 
HETATM    2  C   UNL     1      40.849 -14.249   5.749  1.00  0.00     0.019 A 
HETATM    3  C   UNL     1      41.199 -14.499   4.408  1.00  0.00     0.059 A 
HETATM    4  C   UNL     1      40.534 -13.819   3.362  1.00  0.00     0.050 A 
HETATM    5  C   UNL     1      39.577 -12.853   3.703  1.00  0.00     0.030 A 
HETATM    6  C   UNL     1      39.260 -12.589   5.038  1.00  0.00     0.002 A 
ENDROOT
BRANCH   4   7
HETATM    7  N   UNL     1      40.815 -14.151   2.014  1.00  0.00    -0.326 N 
HETATM    8  C   UNL     1      40.500 -15.307   1.332  1.00  0.00     0.231 C 
HETATM    9  O   UNL     1      39.802 -16.218   1.782  1.00  0.00    -0.272 OA
HETATM   10  H   UNL     1      41.341 -13.443   1.495  1.00  0.00     0.169 HD
BRANCH   8  11
HETATM   11  C   UNL     1      41.107 -15.466  -0.058  1.00  0.00     0.185 C 
BRANCH  11  12
HETATM   12  S   UNL     1      41.474 -13.912  -0.919  1.00  0.00    -0.083 SA
BRANCH  12  13
HETATM   13  C   UNL     1      40.079 -13.763  -1.920  1.00  0.00     0.168 A 
HETATM   14  N   UNL     1      39.493 -12.654  -2.294  1.00  0.00    -0.223 NA
HETATM   15  C   UNL     1      38.397 -13.069  -3.014  1.00  0.00     0.086 A 
HETATM   16  C   UNL     1      38.344 -14.459  -3.090  1.00  0.00     0.063 A 
HETATM   17  C   UNL     1      37.396 -12.312  -3.638  1.00  0.00     0.034 A 
HETATM   18  N   UNL     1      39.433 -14.875  -2.369  1.00  0.00    -0.333 N 
HETATM   19  C   UNL     1      37.343 -15.153  -3.772  1.00  0.00     0.032 A 
HETATM   20  H   UNL     1      39.708 -15.826  -2.179  1.00  0.00     0.168 HD
HETATM   21  C   UNL     1      36.354 -14.378  -4.392  1.00  0.00     0.002 A 
HETATM   22  C   UNL     1      36.376 -12.982  -4.325  1.00  0.00     0.002 A 
ENDBRANCH  12  13
ENDBRANCH  11  12
ENDBRANCH   8  11
ENDBRANCH   4   7
BRANCH   3  23
HETATM   23  C   UNL     1      42.299 -15.473   4.116  1.00  0.00     0.258 C 
HETATM   24  N   UNL     1      41.922 -16.806   4.139  1.00  0.00    -0.323 N 
HETATM   25  H   UNL     1      40.991 -17.013   4.478  1.00  0.00     0.169 HD
HETATM   26  O   UNL     1      43.436 -15.051   3.943  1.00  0.00    -0.267 OA
BRANCH  24  27
HETATM   27  C   UNL     1      42.727 -17.926   3.846  1.00  0.00     0.035 A 
HETATM   28  C   UNL     1      43.488 -18.611   4.799  1.00  0.00     0.032 A 
HETATM   29  C   UNL     1      44.265 -19.712   4.426  1.00  0.00     0.044 A 
HETATM   30  C   UNL     1      44.285 -20.123   3.100  1.00  0.00     0.116 A 
HETATM   31  F   UNL     1      45.030 -21.177   2.744  1.00  0.00    -0.206 F 
HETATM   32  C   UNL     1      43.545 -19.451   2.137  1.00  0.00     0.044 A 
HETATM   33  C   UNL     1      42.768 -18.350   2.510  1.00  0.00     0.032 A 
ENDBRANCH  24  27
ENDBRANCH   3  23
TORSDOF 6
ENDMDL
MODEL 9
REMARK VINA RESULT:      -7.1      4.310      7.373
REMARK  6 active torsions:
REMARK  status: ('A' for Active; 'I' for Inactive)
REMARK    1  A    between atoms: C_3  and  C_4 
REMARK       I    between atoms: C_4  and  N_5 
REMARK    2  A    between atoms: N_5  and  C_6 
REMARK    3  A    between atoms: C_14  and  N_15 
REMARK       I    between atoms: N_15  and  C_16 
REMARK    4  A    between atoms: C_16  and  C_17 
REMARK    5  A    between atoms: C_17  and  S_18 
REMARK    6  A    between atoms: S_18  and  C_19 
ROOT
HETATM    1  C   UNL     1      42.010 -13.542   5.536  1.00  0.00     0.001 A 
HETATM    2  C   UNL     1      42.006 -14.909   5.265  1.00  0.00     0.019 A 
HETATM    3  C   UNL     1      42.102 -15.375   3.940  1.00  0.00     0.059 A 
HETATM    4  C   UNL     1      42.148 -14.456   2.867  1.00  0.00     0.050 A 
HETATM    5  C   UNL     1      42.166 -13.087   3.166  1.00  0.00     0.030 A 
HETATM    6  C   UNL     1      42.103 -12.635   4.487  1.00  0.00     0.002 A 
ENDROOT
BRANCH   4   7
HETATM    7  N   UNL     1      42.138 -14.930   1.531  1.00  0.00    -0.326 N 
HETATM    8  C   UNL     1      41.051 -15.221   0.733  1.00  0.00     0.231 C 
HETATM    9  O   UNL     1      39.877 -14.998   1.038  1.00  0.00    -0.272 OA
HETATM   10  H   UNL     1      43.062 -15.097   1.124  1.00  0.00     0.169 HD
BRANCH   8  11
HETATM   11  C   UNL     1      41.346 -15.905  -0.596  1.00  0.00     0.185 C 
BRANCH  11  12
HETATM   12  S   UNL     1      40.509 -15.184  -2.035  1.00  0.00    -0.083 SA
BRANCH  12  13
HETATM   13  C   UNL     1      41.319 -13.668  -2.152  1.00  0.00     0.168 A 
HETATM   14  N   UNL     1      42.095 -13.118  -1.252  1.00  0.00    -0.223 NA
HETATM   15  C   UNL     1      42.430 -11.897  -1.786  1.00  0.00     0.086 A 
HETATM   16  C   UNL     1      41.860 -11.726  -3.047  1.00  0.00     0.063 A 
HETATM   17  C   UNL     1      43.224 -10.872  -1.252  1.00  0.00     0.034 A 
HETATM   18  N   UNL     1      41.145 -12.878  -3.247  1.00  0.00    -0.333 N 
HETATM   19  C   UNL     1      42.046 -10.582  -3.824  1.00  0.00     0.032 A 
HETATM   20  H   UNL     1      40.572 -13.105  -4.046  1.00  0.00     0.168 HD
HETATM   21  C   UNL     1      42.846  -9.572  -3.274  1.00  0.00     0.002 A 
HETATM   22  C   UNL     1      43.423  -9.711  -2.008  1.00  0.00     0.002 A 
ENDBRANCH  12  13
ENDBRANCH  11  12
ENDBRANCH   8  11
ENDBRANCH   4   7
BRANCH   3  23
HETATM   23  C   UNL     1      42.177 -16.850   3.694  1.00  0.00     0.258 C 
HETATM   24  N   UNL     1      43.456 -17.383   3.710  1.00  0.00    -0.323 N 
HETATM   25  H   UNL     1      44.225 -16.726   3.748  1.00  0.00     0.169 HD
HETATM   26  O   UNL     1      41.148 -17.464   3.441  1.00  0.00    -0.267 OA
BRANCH  24  27
HETATM   27  C   UNL     1      43.818 -18.738   3.569  1.00  0.00     0.035 A 
HETATM   28  C   UNL     1      44.386 -19.505   4.592  1.00  0.00     0.032 A 
HETATM   29  C   UNL     1      44.721 -20.844   4.370  1.00  0.00     0.044 A 
HETATM   30  C   UNL     1      44.495 -21.413   3.124  1.00  0.00     0.116 A 
HETATM   31  F   UNL     1      44.818 -22.695   2.913  1.00  0.00    -0.206 F 
HETATM   32  C   UNL     1      43.941 -20.667   2.093  1.00  0.00     0.044 A 
HETATM   33  C   UNL     1      43.605 -19.329   2.315  1.00  0.00     0.032 A 
ENDBRANCH  24  27
ENDBRANCH   3  23
TORSDOF 6
ENDMDL
MODEL 10
REMARK VINA RESULT:      -7.1      3.260      6.706
REMARK  6 active torsions:
REMARK  status: ('A' for Active; 'I' for Inactive)
REMARK    1  A    between atoms: C_3  and  C_4 
REMARK       I    between atoms: C_4  and  N_5 
REMARK    2  A    between atoms: N_5  and  C_6 
REMARK    3  A    between atoms: C_14  and  N_15 
REMARK       I    between atoms: N_15  and  C_16 
REMARK    4  A    between atoms: C_16  and  C_17 
REMARK    5  A    between atoms: C_17  and  S_18 
REMARK    6  A    between atoms: S_18  and  C_19 
ROOT
HETATM    1  C   UNL     1      38.367 -13.136  -1.430  1.00  0.00     0.001 A 
HETATM    2  C   UNL     1      39.082 -14.121  -0.751  1.00  0.00     0.019 A 
HETATM    3  C   UNL     1      39.206 -14.077   0.651  1.00  0.00     0.059 A 
HETATM    4  C   UNL     1      38.651 -12.999   1.378  1.00  0.00     0.050 A 
HETATM    5  C   UNL     1      37.926 -12.028   0.674  1.00  0.00     0.030 A 
HETATM    6  C   UNL     1      37.780 -12.099  -0.714  1.00  0.00     0.002 A 
ENDROOT
BRANCH   4   7
HETATM    7  N   UNL     1      38.871 -12.904   2.775  1.00  0.00    -0.326 N 
HETATM    8  C   UNL     1      39.463 -11.878   3.482  1.00  0.00     0.231 C 
HETATM    9  O   UNL     1      39.807 -10.798   2.996  1.00  0.00    -0.272 OA
HETATM   10  H   UNL     1      38.566 -13.717   3.317  1.00  0.00     0.169 HD
BRANCH   8  11
HETATM   11  C   UNL     1      39.742 -12.141   4.957  1.00  0.00     0.185 C 
BRANCH  11  12
HETATM   12  S   UNL     1      41.484 -12.008   5.446  1.00  0.00    -0.083 SA
BRANCH  12  13
HETATM   13  C   UNL     1      41.922 -13.672   5.528  1.00  0.00     0.168 A 
HETATM   14  N   UNL     1      43.065 -14.168   5.929  1.00  0.00    -0.223 NA
HETATM   15  C   UNL     1      42.940 -15.523   5.739  1.00  0.00     0.086 A 
HETATM   16  C   UNL     1      41.681 -15.845   5.235  1.00  0.00     0.063 A 
HETATM   17  C   UNL     1      43.864 -16.550   5.975  1.00  0.00     0.034 A 
HETATM   18  N   UNL     1      41.055 -14.633   5.102  1.00  0.00    -0.333 N 
HETATM   19  C   UNL     1      41.277 -17.153   4.959  1.00  0.00     0.032 A 
HETATM   20  H   UNL     1      40.131 -14.465   4.737  1.00  0.00     0.168 HD
HETATM   21  C   UNL     1      42.213 -18.164   5.206  1.00  0.00     0.002 A 
HETATM   22  C   UNL     1      43.487 -17.871   5.702  1.00  0.00     0.002 A 
ENDBRANCH  12  13
ENDBRANCH  11  12
ENDBRANCH   8  11
ENDBRANCH   4   7
BRANCH   3  23
HETATM   23  C   UNL     1      39.911 -15.197   1.352  1.00  0.00     0.258 C 
HETATM   24  N   UNL     1      41.028 -15.687   0.696  1.00  0.00    -0.323 N 
HETATM   25  H   UNL     1      41.194 -15.350  -0.244  1.00  0.00     0.169 HD
HETATM   26  O   UNL     1      39.438 -15.638   2.392  1.00  0.00    -0.267 OA
BRANCH  24  27
HETATM   27  C   UNL     1      41.911 -16.691   1.147  1.00  0.00     0.035 A 
HETATM   28  C   UNL     1      41.581 -18.049   1.215  1.00  0.00     0.032 A 
HETATM   29  C   UNL     1      42.513 -18.981   1.679  1.00  0.00     0.044 A 
HETATM   30  C   UNL     1      43.772 -18.555   2.080  1.00  0.00     0.116 A 
HETATM   31  F   UNL     1      44.664 -19.450   2.524  1.00  0.00    -0.206 F 
HETATM   32  C   UNL     1      44.117 -17.211   2.029  1.00  0.00     0.044 A 
HETATM   33  C   UNL     1      43.185 -16.279   1.565  1.00  0.00     0.032 A 
ENDBRANCH  24  27
ENDBRANCH   3  23
TORSDOF 6
ENDMDL
