MODEL 1
REMARK VINA RESULT:      -8.1      0.000      0.000
REMARK  9 active torsions:
REMARK  status: ('A' for Active; 'I' for Inactive)
REMARK    1  A    between atoms: C_2  and  O_3 
REMARK    2  A    between atoms: O_3  and  C_4 
REMARK    3  A    between atoms: C_4  and  C_5 
REMARK    4  A    between atoms: C_7  and  C_8 
REMARK       I    between atoms: C_8  and  N_9 
REMARK    5  A    between atoms: N_9  and  N_10 
REMARK    6  A    between atoms: N_10  and  C_11 
REMARK    7  A    between atoms: C_11  and  N_12 
REMARK    8  A    between atoms: N_12  and  C_13 
REMARK    9  A    between atoms: C_13  and  C_14 
ROOT
HETATM    1  C   UNL     1      44.089 -15.814   6.545  1.00  0.00     0.078 A 
HETATM    2  O   UNL     1      42.831 -15.801   6.020  1.00  0.00    -0.307 OA
HETATM    3  C   UNL     1      42.458 -14.492   5.859  1.00  0.00     0.145 A 
HETATM    4  C   UNL     1      43.498 -13.675   6.273  1.00  0.00     0.045 A 
HETATM    5  C   UNL     1      44.541 -14.524   6.713  1.00  0.00     0.038 A 
ENDROOT
BRANCH   3   6
HETATM    6  C   UNL     1      41.134 -14.218   5.334  1.00  0.00     0.293 C 
HETATM    7  N   UNL     1      41.121 -13.650   4.068  1.00  0.00    -0.262 N 
HETATM    8  H   UNL     1      41.946 -13.639   3.475  1.00  0.00     0.190 HD
HETATM    9  O   UNL     1      40.079 -14.454   5.925  1.00  0.00    -0.264 OA
BRANCH   7  10
HETATM   10  N   UNL     1      39.884 -13.491   3.414  1.00  0.00    -0.274 N 
HETATM   11  H   UNL     1      39.181 -13.027   3.986  1.00  0.00     0.189 HD
BRANCH  10  12
HETATM   12  C   UNL     1      39.473 -14.419   2.493  1.00  0.00     0.186 C 
HETATM   13  S   UNL     1      38.673 -14.061   1.064  1.00  0.00    -0.040 SA
BRANCH  12  14
HETATM   14  N   UNL     1      39.681 -15.725   2.803  1.00  0.00    -0.364 N 
HETATM   15  H   UNL     1      39.629 -15.929   3.797  1.00  0.00     0.162 HD
BRANCH  14  16
HETATM   16  C   UNL     1      40.275 -16.789   1.998  1.00  0.00     0.154 C 
BRANCH  16  17
HETATM   17  C   UNL     1      41.601 -17.314   2.576  1.00  0.00     0.139 C 
HETATM   18  O   UNL     1      42.496 -16.204   2.805  1.00  0.00    -0.384 OA
HETATM   19  C   UNL     1      43.746 -16.487   2.163  1.00  0.00     0.168 C 
HETATM   20  C   UNL     1      43.457 -17.508   1.088  1.00  0.00     0.029 C 
HETATM   21  C   UNL     1      42.340 -18.316   1.698  1.00  0.00     0.035 C 
ENDBRANCH  16  17
ENDBRANCH  14  16
ENDBRANCH  12  14
ENDBRANCH  10  12
ENDBRANCH   7  10
ENDBRANCH   3   6
BRANCH   1  22
HETATM   22  C   UNL     1      44.691 -17.144   6.822  1.00  0.00     0.240 C 
BRANCH  22  23
HETATM   23  O   UNL     1      43.621 -18.083   6.770  1.00  0.00    -0.345 OA
BRANCH  23  24
HETATM   24  C   UNL     1      43.887 -19.290   6.181  1.00  0.00     0.069 A 
HETATM   25  C   UNL     1      43.861 -20.538   6.825  1.00  0.00     0.037 A 
HETATM   26  C   UNL     1      44.133 -21.715   6.116  1.00  0.00     0.010 A 
HETATM   27  C   UNL     1      44.418 -21.621   4.766  1.00  0.00    -0.052 A 
HETATM   28  C   UNL     1      44.446 -20.382   4.122  1.00  0.00    -0.049 A 
HETATM   29  C   UNL     1      44.776 -22.723   3.818  1.00  0.00     0.039 C 
HETATM   30  C   UNL     1      44.182 -19.214   4.816  1.00  0.00     0.044 A 
HETATM   31  C   UNL     1      44.837 -20.534   2.686  1.00  0.00     0.039 C 
HETATM   32  C   UNL     1      44.569 -22.030   2.462  1.00  0.00     0.009 C 
ENDBRANCH  23  24
ENDBRANCH  22  23
ENDBRANCH   1  22
TORSDOF 9
ENDMDL
MODEL 2
REMARK VINA RESULT:      -8.0      4.630      6.903
REMARK  9 active torsions:
REMARK  status: ('A' for Active; 'I' for Inactive)
REMARK    1  A    between atoms: C_2  and  O_3 
REMARK    2  A    between atoms: O_3  and  C_4 
REMARK    3  A    between atoms: C_4  and  C_5 
REMARK    4  A    between atoms: C_7  and  C_8 
REMARK       I    between atoms: C_8  and  N_9 
REMARK    5  A    between atoms: N_9  and  N_10 
REMARK    6  A    between atoms: N_10  and  C_11 
REMARK    7  A    between atoms: C_11  and  N_12 
REMARK    8  A    between atoms: N_12  and  C_13 
REMARK    9  A    between atoms: C_13  and  C_14 
ROOT
HETATM    1  C   UNL     1      41.215 -15.318   5.113  1.00  0.00     0.078 A 
HETATM    2  O   UNL     1      40.600 -14.619   6.108  1.00  0.00    -0.307 OA
HETATM    3  C   UNL     1      40.045 -13.497   5.550  1.00  0.00     0.145 A 
HETATM    4  C   UNL     1      40.302 -13.500   4.188  1.00  0.00     0.045 A 
HETATM    5  C   UNL     1      41.052 -14.667   3.910  1.00  0.00     0.038 A 
ENDROOT
BRANCH   3   6
HETATM    6  C   UNL     1      39.351 -12.570   6.423  1.00  0.00     0.293 C 
HETATM    7  N   UNL     1      39.396 -12.901   7.769  1.00  0.00    -0.262 N 
HETATM    8  H   UNL     1      40.043 -13.595   8.131  1.00  0.00     0.190 HD
HETATM    9  O   UNL     1      38.758 -11.558   6.046  1.00  0.00    -0.264 OA
BRANCH   7  10
HETATM   10  N   UNL     1      38.885 -11.982   8.706  1.00  0.00    -0.274 N 
HETATM   11  H   UNL     1      37.990 -11.580   8.431  1.00  0.00     0.189 HD
BRANCH  10  12
HETATM   12  C   UNL     1      39.743 -11.222   9.458  1.00  0.00     0.186 C 
HETATM   13  S   UNL     1      40.606  -9.905   8.886  1.00  0.00    -0.040 SA
BRANCH  12  14
HETATM   14  N   UNL     1      39.944 -11.614  10.743  1.00  0.00    -0.364 N 
HETATM   15  H   UNL     1      39.676 -12.575  10.931  1.00  0.00     0.162 HD
BRANCH  14  16
HETATM   16  C   UNL     1      40.166 -10.804  11.938  1.00  0.00     0.154 C 
BRANCH  16  17
HETATM   17  C   UNL     1      41.341 -11.306  12.796  1.00  0.00     0.139 C 
HETATM   18  O   UNL     1      41.292 -10.674  14.092  1.00  0.00    -0.384 OA
HETATM   19  C   UNL     1      42.570 -10.083  14.360  1.00  0.00     0.168 C 
HETATM   20  C   UNL     1      43.237  -9.875  13.021  1.00  0.00     0.029 C 
HETATM   21  C   UNL     1      42.726 -11.043  12.217  1.00  0.00     0.035 C 
ENDBRANCH  16  17
ENDBRANCH  14  16
ENDBRANCH  12  14
ENDBRANCH  10  12
ENDBRANCH   7  10
ENDBRANCH   3   6
BRANCH   1  22
HETATM   22  C   UNL     1      41.907 -16.576   5.499  1.00  0.00     0.240 C 
BRANCH  22  23
HETATM   23  O   UNL     1      43.088 -16.639   4.705  1.00  0.00    -0.345 OA
BRANCH  23  24
HETATM   24  C   UNL     1      43.606 -17.884   4.467  1.00  0.00     0.069 A 
HETATM   25  C   UNL     1      44.396 -18.627   5.360  1.00  0.00     0.037 A 
HETATM   26  C   UNL     1      44.856 -19.903   5.016  1.00  0.00     0.010 A 
HETATM   27  C   UNL     1      44.508 -20.421   3.781  1.00  0.00    -0.052 A 
HETATM   28  C   UNL     1      43.724 -19.686   2.889  1.00  0.00    -0.049 A 
HETATM   29  C   UNL     1      44.911 -21.732   3.181  1.00  0.00     0.039 C 
HETATM   30  C   UNL     1      43.268 -18.421   3.220  1.00  0.00     0.044 A 
HETATM   31  C   UNL     1      43.537 -20.428   1.604  1.00  0.00     0.039 C 
HETATM   32  C   UNL     1      43.898 -21.858   2.032  1.00  0.00     0.009 C 
ENDBRANCH  23  24
ENDBRANCH  22  23
ENDBRANCH   1  22
TORSDOF 9
ENDMDL
MODEL 3
REMARK VINA RESULT:      -7.8      3.807      6.019
REMARK  9 active torsions:
REMARK  status: ('A' for Active; 'I' for Inactive)
REMARK    1  A    between atoms: C_2  and  O_3 
REMARK    2  A    between atoms: O_3  and  C_4 
REMARK    3  A    between atoms: C_4  and  C_5 
REMARK    4  A    between atoms: C_7  and  C_8 
REMARK       I    between atoms: C_8  and  N_9 
REMARK    5  A    between atoms: N_9  and  N_10 
REMARK    6  A    between atoms: N_10  and  C_11 
REMARK    7  A    between atoms: C_11  and  N_12 
REMARK    8  A    between atoms: N_12  and  C_13 
REMARK    9  A    between atoms: C_13  and  C_14 
ROOT
HETATM    1  C   UNL     1      41.948 -14.685   4.959  1.00  0.00     0.078 A 
HETATM    2  O   UNL     1      41.752 -13.648   5.821  1.00  0.00    -0.307 OA
HETATM    3  C   UNL     1      40.455 -13.228   5.680  1.00  0.00     0.145 A 
HETATM    4  C   UNL     1      39.827 -14.018   4.730  1.00  0.00     0.045 A 
HETATM    5  C   UNL     1      40.786 -14.950   4.269  1.00  0.00     0.038 A 
ENDROOT
BRANCH   3   6
HETATM    6  C   UNL     1      40.009 -12.105   6.483  1.00  0.00     0.293 C 
HETATM    7  N   UNL     1      40.930 -11.664   7.421  1.00  0.00    -0.262 N 
HETATM    8  H   UNL     1      41.904 -11.949   7.394  1.00  0.00     0.190 HD
HETATM    9  O   UNL     1      38.912 -11.554   6.375  1.00  0.00    -0.264 OA
BRANCH   7  10
HETATM   10  N   UNL     1      40.649 -10.485   8.139  1.00  0.00    -0.274 N 
HETATM   11  H   UNL     1      41.209  -9.687   7.841  1.00  0.00     0.189 HD
BRANCH  10  12
HETATM   12  C   UNL     1      40.257 -10.558   9.451  1.00  0.00     0.186 C 
HETATM   13  S   UNL     1      38.997  -9.682  10.123  1.00  0.00    -0.040 SA
BRANCH  12  14
HETATM   14  N   UNL     1      40.991 -11.359  10.266  1.00  0.00    -0.364 N 
HETATM   15  H   UNL     1      40.549 -12.248  10.483  1.00  0.00     0.162 HD
BRANCH  14  16
HETATM   16  C   UNL     1      42.128 -11.025  11.120  1.00  0.00     0.154 C 
BRANCH  16  17
HETATM   17  C   UNL     1      43.368 -10.581  10.326  1.00  0.00     0.139 C 
HETATM   18  O   UNL     1      43.493 -11.393   9.139  1.00  0.00    -0.384 OA
HETATM   19  C   UNL     1      44.818 -11.939   9.098  1.00  0.00     0.168 C 
HETATM   20  C   UNL     1      45.338 -11.914  10.516  1.00  0.00     0.029 C 
HETATM   21  C   UNL     1      44.689 -10.676  11.079  1.00  0.00     0.035 C 
ENDBRANCH  16  17
ENDBRANCH  14  16
ENDBRANCH  12  14
ENDBRANCH  10  12
ENDBRANCH   7  10
ENDBRANCH   3   6
BRANCH   1  22
HETATM   22  C   UNL     1      43.305 -15.291   4.930  1.00  0.00     0.240 C 
BRANCH  22  23
HETATM   23  O   UNL     1      43.226 -16.480   5.710  1.00  0.00    -0.345 OA
BRANCH  23  24
HETATM   24  C   UNL     1      43.681 -17.632   5.128  1.00  0.00     0.069 A 
HETATM   25  C   UNL     1      44.591 -18.536   5.702  1.00  0.00     0.037 A 
HETATM   26  C   UNL     1      44.973 -19.697   5.020  1.00  0.00     0.010 A 
HETATM   27  C   UNL     1      44.429 -19.940   3.772  1.00  0.00    -0.052 A 
HETATM   28  C   UNL     1      43.525 -19.044   3.196  1.00  0.00    -0.049 A 
HETATM   29  C   UNL     1      44.713 -21.080   2.845  1.00  0.00     0.039 C 
HETATM   30  C   UNL     1      43.144 -17.892   3.863  1.00  0.00     0.044 A 
HETATM   31  C   UNL     1      43.126 -19.492   1.826  1.00  0.00     0.039 C 
HETATM   32  C   UNL     1      43.531 -20.973   1.869  1.00  0.00     0.009 C 
ENDBRANCH  23  24
ENDBRANCH  22  23
ENDBRANCH   1  22
TORSDOF 9
ENDMDL
MODEL 4
REMARK VINA RESULT:      -7.7      2.100      2.645
REMARK  9 active torsions:
REMARK  status: ('A' for Active; 'I' for Inactive)
REMARK    1  A    between atoms: C_2  and  O_3 
REMARK    2  A    between atoms: O_3  and  C_4 
REMARK    3  A    between atoms: C_4  and  C_5 
REMARK    4  A    between atoms: C_7  and  C_8 
REMARK       I    between atoms: C_8  and  N_9 
REMARK    5  A    between atoms: N_9  and  N_10 
REMARK    6  A    between atoms: N_10  and  C_11 
REMARK    7  A    between atoms: C_11  and  N_12 
REMARK    8  A    between atoms: N_12  and  C_13 
REMARK    9  A    between atoms: C_13  and  C_14 
ROOT
HETATM    1  C   UNL     1      42.189 -16.129   5.998  1.00  0.00     0.078 A 
HETATM    2  O   UNL     1      42.822 -15.399   5.037  1.00  0.00    -0.307 OA
HETATM    3  C   UNL     1      41.911 -14.518   4.513  1.00  0.00     0.145 A 
HETATM    4  C   UNL     1      40.699 -14.687   5.163  1.00  0.00     0.045 A 
HETATM    5  C   UNL     1      40.879 -15.720   6.113  1.00  0.00     0.038 A 
ENDROOT
BRANCH   3   6
HETATM    6  C   UNL     1      42.345 -13.640   3.444  1.00  0.00     0.293 C 
HETATM    7  N   UNL     1      41.346 -12.840   2.911  1.00  0.00    -0.262 N 
HETATM    8  H   UNL     1      40.452 -12.715   3.377  1.00  0.00     0.190 HD
HETATM    9  O   UNL     1      43.497 -13.574   3.011  1.00  0.00    -0.264 OA
BRANCH   7  10
HETATM   10  N   UNL     1      41.702 -11.847   1.977  1.00  0.00    -0.274 N 
HETATM   11  H   UNL     1      42.132 -11.028   2.403  1.00  0.00     0.189 HD
BRANCH  10  12
HETATM   12  C   UNL     1      40.960 -11.682   0.837  1.00  0.00     0.186 C 
HETATM   13  S   UNL     1      39.782 -10.509   0.624  1.00  0.00    -0.040 SA
BRANCH  12  14
HETATM   14  N   UNL     1      41.161 -12.580  -0.162  1.00  0.00    -0.364 N 
HETATM   15  H   UNL     1      40.557 -12.449  -0.967  1.00  0.00     0.162 HD
BRANCH  14  16
HETATM   16  C   UNL     1      41.856 -13.865  -0.131  1.00  0.00     0.154 C 
BRANCH  16  17
HETATM   17  C   UNL     1      40.898 -15.068  -0.081  1.00  0.00     0.139 C 
HETATM   18  O   UNL     1      40.005 -14.923   1.044  1.00  0.00    -0.384 OA
HETATM   19  C   UNL     1      40.057 -16.124   1.823  1.00  0.00     0.168 C 
HETATM   20  C   UNL     1      41.371 -16.794   1.497  1.00  0.00     0.029 C 
HETATM   21  C   UNL     1      41.571 -16.428   0.048  1.00  0.00     0.035 C 
ENDBRANCH  16  17
ENDBRANCH  14  16
ENDBRANCH  12  14
ENDBRANCH  10  12
ENDBRANCH   7  10
ENDBRANCH   3   6
BRANCH   1  22
HETATM   22  C   UNL     1      42.991 -17.169   6.693  1.00  0.00     0.240 C 
BRANCH  22  23
HETATM   23  O   UNL     1      44.164 -17.358   5.906  1.00  0.00    -0.345 OA
BRANCH  23  24
HETATM   24  C   UNL     1      44.285 -18.556   5.255  1.00  0.00     0.069 A 
HETATM   25  C   UNL     1      44.711 -19.763   5.836  1.00  0.00     0.037 A 
HETATM   26  C   UNL     1      44.779 -20.937   5.076  1.00  0.00     0.010 A 
HETATM   27  C   UNL     1      44.409 -20.885   3.744  1.00  0.00    -0.052 A 
HETATM   28  C   UNL     1      43.987 -19.687   3.162  1.00  0.00    -0.049 A 
HETATM   29  C   UNL     1      44.437 -21.988   2.732  1.00  0.00     0.039 C 
HETATM   30  C   UNL     1      43.920 -18.521   3.905  1.00  0.00     0.044 A 
HETATM   31  C   UNL     1      43.703 -19.871   1.705  1.00  0.00     0.039 C 
HETATM   32  C   UNL     1      43.554 -21.397   1.623  1.00  0.00     0.009 C 
ENDBRANCH  23  24
ENDBRANCH  22  23
ENDBRANCH   1  22
TORSDOF 9
ENDMDL
MODEL 5
REMARK VINA RESULT:      -7.5      2.958      3.611
REMARK  9 active torsions:
REMARK  status: ('A' for Active; 'I' for Inactive)
REMARK    1  A    between atoms: C_2  and  O_3 
REMARK    2  A    between atoms: O_3  and  C_4 
REMARK    3  A    between atoms: C_4  and  C_5 
REMARK    4  A    between atoms: C_7  and  C_8 
REMARK       I    between atoms: C_8  and  N_9 
REMARK    5  A    between atoms: N_9  and  N_10 
REMARK    6  A    between atoms: N_10  and  C_11 
REMARK    7  A    between atoms: C_11  and  N_12 
REMARK    8  A    between atoms: N_12  and  C_13 
REMARK    9  A    between atoms: C_13  and  C_14 
ROOT
HETATM    1  C   UNL     1      42.275 -16.493   6.004  1.00  0.00     0.078 A 
HETATM    2  O   UNL     1      41.534 -16.927   4.946  1.00  0.00    -0.307 OA
HETATM    3  C   UNL     1      41.303 -15.852   4.128  1.00  0.00     0.145 A 
HETATM    4  C   UNL     1      41.918 -14.735   4.671  1.00  0.00     0.045 A 
HETATM    5  C   UNL     1      42.540 -15.147   5.873  1.00  0.00     0.038 A 
ENDROOT
BRANCH   3   6
HETATM    6  C   UNL     1      40.505 -16.060   2.935  1.00  0.00     0.293 C 
HETATM    7  N   UNL     1      39.338 -15.312   2.884  1.00  0.00    -0.262 N 
HETATM    8  H   UNL     1      39.173 -14.529   3.510  1.00  0.00     0.190 HD
HETATM    9  O   UNL     1      40.799 -16.824   2.015  1.00  0.00    -0.264 OA
BRANCH   7  10
HETATM   10  N   UNL     1      38.578 -15.330   1.698  1.00  0.00    -0.274 N 
HETATM   11  H   UNL     1      38.445 -16.265   1.317  1.00  0.00     0.189 HD
BRANCH  10  12
HETATM   12  C   UNL     1      38.637 -14.269   0.831  1.00  0.00     0.186 C 
HETATM   13  S   UNL     1      37.964 -12.762   1.116  1.00  0.00    -0.040 SA
BRANCH  12  14
HETATM   14  N   UNL     1      39.236 -14.491  -0.368  1.00  0.00    -0.364 N 
HETATM   15  H   UNL     1      39.522 -15.454  -0.518  1.00  0.00     0.162 HD
BRANCH  14  16
HETATM   16  C   UNL     1      39.813 -13.535  -1.310  1.00  0.00     0.154 C 
BRANCH  16  17
HETATM   17  C   UNL     1      39.234 -13.663  -2.730  1.00  0.00     0.139 C 
HETATM   18  O   UNL     1      37.929 -14.275  -2.661  1.00  0.00    -0.384 OA
HETATM   19  C   UNL     1      37.902 -15.391  -3.560  1.00  0.00     0.168 C 
HETATM   20  C   UNL     1      39.338 -15.804  -3.778  1.00  0.00     0.029 C 
HETATM   21  C   UNL     1      40.070 -14.489  -3.699  1.00  0.00     0.035 C 
ENDBRANCH  16  17
ENDBRANCH  14  16
ENDBRANCH  12  14
ENDBRANCH  10  12
ENDBRANCH   7  10
ENDBRANCH   3   6
BRANCH   1  22
HETATM   22  C   UNL     1      42.630 -17.499   7.038  1.00  0.00     0.240 C 
BRANCH  22  23
HETATM   23  O   UNL     1      43.964 -17.910   6.751  1.00  0.00    -0.345 OA
BRANCH  23  24
HETATM   24  C   UNL     1      44.120 -19.139   6.168  1.00  0.00     0.069 A 
HETATM   25  C   UNL     1      44.017 -20.376   6.826  1.00  0.00     0.037 A 
HETATM   26  C   UNL     1      44.177 -21.576   6.122  1.00  0.00     0.010 A 
HETATM   27  C   UNL     1      44.429 -21.516   4.764  1.00  0.00    -0.052 A 
HETATM   28  C   UNL     1      44.534 -20.289   4.106  1.00  0.00    -0.049 A 
HETATM   29  C   UNL     1      44.674 -22.651   3.818  1.00  0.00     0.039 C 
HETATM   30  C   UNL     1      44.381 -19.098   4.794  1.00  0.00     0.044 A 
HETATM   31  C   UNL     1      44.870 -20.483   2.661  1.00  0.00     0.039 C 
HETATM   32  C   UNL     1      44.482 -21.955   2.461  1.00  0.00     0.009 C 
ENDBRANCH  23  24
ENDBRANCH  22  23
ENDBRANCH   1  22
TORSDOF 9
ENDMDL
MODEL 6
REMARK VINA RESULT:      -7.3      4.223      6.757
REMARK  9 active torsions:
REMARK  status: ('A' for Active; 'I' for Inactive)
REMARK    1  A    between atoms: C_2  and  O_3 
REMARK    2  A    between atoms: O_3  and  C_4 
REMARK    3  A    between atoms: C_4  and  C_5 
REMARK    4  A    between atoms: C_7  and  C_8 
REMARK       I    between atoms: C_8  and  N_9 
REMARK    5  A    between atoms: N_9  and  N_10 
REMARK    6  A    between atoms: N_10  and  C_11 
REMARK    7  A    between atoms: C_11  and  N_12 
REMARK    8  A    between atoms: N_12  and  C_13 
REMARK    9  A    between atoms: C_13  and  C_14 
ROOT
HETATM    1  C   UNL     1      41.618 -13.352   4.519  1.00  0.00     0.078 A 
HETATM    2  O   UNL     1      41.347 -12.771   5.722  1.00  0.00    -0.307 OA
HETATM    3  C   UNL     1      40.037 -12.368   5.706  1.00  0.00     0.145 A 
HETATM    4  C   UNL     1      39.477 -12.712   4.486  1.00  0.00     0.045 A 
HETATM    5  C   UNL     1      40.491 -13.342   3.727  1.00  0.00     0.038 A 
ENDROOT
BRANCH   3   6
HETATM    6  C   UNL     1      39.515 -11.692   6.878  1.00  0.00     0.293 C 
HETATM    7  N   UNL     1      39.422 -12.487   8.010  1.00  0.00    -0.262 N 
HETATM    8  H   UNL     1      39.886 -13.389   8.074  1.00  0.00     0.190 HD
HETATM    9  O   UNL     1      39.172 -10.509   6.914  1.00  0.00    -0.264 OA
BRANCH   7  10
HETATM   10  N   UNL     1      39.073 -11.881   9.233  1.00  0.00    -0.274 N 
HETATM   11  H   UNL     1      38.089 -11.626   9.292  1.00  0.00     0.189 HD
BRANCH  10  12
HETATM   12  C   UNL     1      39.991 -11.115   9.904  1.00  0.00     0.186 C 
HETATM   13  S   UNL     1      39.625 -10.051  11.145  1.00  0.00    -0.040 SA
BRANCH  12  14
HETATM   14  N   UNL     1      41.279 -11.189   9.478  1.00  0.00    -0.364 N 
HETATM   15  H   UNL     1      41.649 -12.134   9.436  1.00  0.00     0.162 HD
BRANCH  14  16
HETATM   16  C   UNL     1      42.291 -10.139   9.390  1.00  0.00     0.154 C 
BRANCH  16  17
HETATM   17  C   UNL     1      43.526 -10.418  10.264  1.00  0.00     0.139 C 
HETATM   18  O   UNL     1      43.714 -11.843  10.388  1.00  0.00    -0.384 OA
HETATM   19  C   UNL     1      43.817 -12.169  11.780  1.00  0.00     0.168 C 
HETATM   20  C   UNL     1      43.155 -11.042  12.536  1.00  0.00     0.029 C 
HETATM   21  C   UNL     1      43.465  -9.845  11.674  1.00  0.00     0.035 C 
ENDBRANCH  16  17
ENDBRANCH  14  16
ENDBRANCH  12  14
ENDBRANCH  10  12
ENDBRANCH   7  10
ENDBRANCH   3   6
BRANCH   1  22
HETATM   22  C   UNL     1      43.002 -13.851   4.307  1.00  0.00     0.240 C 
BRANCH  22  23
HETATM   23  O   UNL     1      43.092 -15.084   5.017  1.00  0.00    -0.345 OA
BRANCH  23  24
HETATM   24  C   UNL     1      43.339 -16.207   4.275  1.00  0.00     0.069 A 
HETATM   25  C   UNL     1      43.325 -16.280   2.872  1.00  0.00     0.037 A 
HETATM   26  C   UNL     1      43.613 -17.483   2.216  1.00  0.00     0.010 A 
HETATM   27  C   UNL     1      43.919 -18.595   2.979  1.00  0.00    -0.052 A 
HETATM   28  C   UNL     1      43.932 -18.528   4.374  1.00  0.00    -0.049 A 
HETATM   29  C   UNL     1      44.218 -19.985   2.510  1.00  0.00     0.039 C 
HETATM   30  C   UNL     1      43.646 -17.343   5.031  1.00  0.00     0.044 A 
HETATM   31  C   UNL     1      44.229 -19.866   4.972  1.00  0.00     0.039 C 
HETATM   32  C   UNL     1      44.847 -20.597   3.771  1.00  0.00     0.009 C 
ENDBRANCH  23  24
ENDBRANCH  22  23
ENDBRANCH   1  22
TORSDOF 9
ENDMDL
MODEL 7
REMARK VINA RESULT:      -7.2      2.886      3.300
REMARK  9 active torsions:
REMARK  status: ('A' for Active; 'I' for Inactive)
REMARK    1  A    between atoms: C_2  and  O_3 
REMARK    2  A    between atoms: O_3  and  C_4 
REMARK    3  A    between atoms: C_4  and  C_5 
REMARK    4  A    between atoms: C_7  and  C_8 
REMARK       I    between atoms: C_8  and  N_9 
REMARK    5  A    between atoms: N_9  and  N_10 
REMARK    6  A    between atoms: N_10  and  C_11 
REMARK    7  A    between atoms: C_11  and  N_12 
REMARK    8  A    between atoms: N_12  and  C_13 
REMARK    9  A    between atoms: C_13  and  C_14 
ROOT
HETATM    1  C   UNL     1      43.542 -15.685   6.940  1.00  0.00     0.078 A 
HETATM    2  O   UNL     1      42.753 -15.160   5.961  1.00  0.00    -0.307 OA
HETATM    3  C   UNL     1      43.397 -14.065   5.446  1.00  0.00     0.145 A 
HETATM    4  C   UNL     1      44.610 -13.911   6.099  1.00  0.00     0.045 A 
HETATM    5  C   UNL     1      44.701 -14.949   7.056  1.00  0.00     0.038 A 
ENDROOT
BRANCH   3   6
HETATM    6  C   UNL     1      42.737 -13.313   4.397  1.00  0.00     0.293 C 
HETATM    7  N   UNL     1      43.135 -13.645   3.110  1.00  0.00    -0.262 N 
HETATM    8  H   UNL     1      43.667 -14.487   2.913  1.00  0.00     0.190 HD
HETATM    9  O   UNL     1      41.885 -12.443   4.584  1.00  0.00    -0.264 OA
BRANCH   7  10
HETATM   10  N   UNL     1      42.440 -13.080   2.023  1.00  0.00    -0.274 N 
HETATM   11  H   UNL     1      42.057 -12.158   2.224  1.00  0.00     0.189 HD
BRANCH  10  12
HETATM   12  C   UNL     1      41.775 -13.890   1.140  1.00  0.00     0.186 C 
HETATM   13  S   UNL     1      41.510 -15.530   1.360  1.00  0.00    -0.040 SA
BRANCH  12  14
HETATM   14  N   UNL     1      41.358 -13.321  -0.020  1.00  0.00    -0.364 N 
HETATM   15  H   UNL     1      41.968 -12.586  -0.365  1.00  0.00     0.162 HD
BRANCH  14  16
HETATM   16  C   UNL     1      40.045 -13.365  -0.659  1.00  0.00     0.154 C 
BRANCH  16  17
HETATM   17  C   UNL     1      40.122 -13.561  -2.183  1.00  0.00     0.139 C 
HETATM   18  O   UNL     1      39.067 -14.450  -2.606  1.00  0.00    -0.384 OA
HETATM   19  C   UNL     1      39.645 -15.506  -3.383  1.00  0.00     0.168 C 
HETATM   20  C   UNL     1      41.102 -15.581  -2.991  1.00  0.00     0.029 C 
HETATM   21  C   UNL     1      41.434 -14.140  -2.697  1.00  0.00     0.035 C 
ENDBRANCH  16  17
ENDBRANCH  14  16
ENDBRANCH  12  14
ENDBRANCH  10  12
ENDBRANCH   7  10
ENDBRANCH   3   6
BRANCH   1  22
HETATM   22  C   UNL     1      43.025 -16.882   7.654  1.00  0.00     0.240 C 
BRANCH  22  23
HETATM   23  O   UNL     1      42.280 -17.626   6.694  1.00  0.00    -0.345 OA
BRANCH  23  24
HETATM   24  C   UNL     1      42.994 -18.429   5.846  1.00  0.00     0.069 A 
HETATM   25  C   UNL     1      44.013 -19.319   6.226  1.00  0.00     0.037 A 
HETATM   26  C   UNL     1      44.665 -20.108   5.271  1.00  0.00     0.010 A 
HETATM   27  C   UNL     1      44.278 -19.999   3.948  1.00  0.00    -0.052 A 
HETATM   28  C   UNL     1      43.267 -19.115   3.565  1.00  0.00    -0.049 A 
HETATM   29  C   UNL     1      44.850 -20.702   2.755  1.00  0.00     0.039 C 
HETATM   30  C   UNL     1      42.619 -18.329   4.502  1.00  0.00     0.044 A 
HETATM   31  C   UNL     1      43.073 -19.132   2.082  1.00  0.00     0.039 C 
HETATM   32  C   UNL     1      43.751 -20.459   1.710  1.00  0.00     0.009 C 
ENDBRANCH  23  24
ENDBRANCH  22  23
ENDBRANCH   1  22
TORSDOF 9
ENDMDL
MODEL 8
REMARK VINA RESULT:      -7.1      2.538      3.344
REMARK  9 active torsions:
REMARK  status: ('A' for Active; 'I' for Inactive)
REMARK    1  A    between atoms: C_2  and  O_3 
REMARK    2  A    between atoms: O_3  and  C_4 
REMARK    3  A    between atoms: C_4  and  C_5 
REMARK    4  A    between atoms: C_7  and  C_8 
REMARK       I    between atoms: C_8  and  N_9 
REMARK    5  A    between atoms: N_9  and  N_10 
REMARK    6  A    between atoms: N_10  and  C_11 
REMARK    7  A    between atoms: C_11  and  N_12 
REMARK    8  A    between atoms: N_12  and  C_13 
REMARK    9  A    between atoms: C_13  and  C_14 
ROOT
HETATM    1  C   UNL     1      42.211 -15.531   4.979  1.00  0.00     0.078 A 
HETATM    2  O   UNL     1      42.330 -14.461   4.144  1.00  0.00    -0.307 OA
HETATM    3  C   UNL     1      41.193 -13.706   4.267  1.00  0.00     0.145 A 
HETATM    4  C   UNL     1      40.358 -14.301   5.200  1.00  0.00     0.045 A 
HETATM    5  C   UNL     1      41.012 -15.471   5.654  1.00  0.00     0.038 A 
ENDROOT
BRANCH   3   6
HETATM    6  C   UNL     1      41.071 -12.514   3.450  1.00  0.00     0.293 C 
HETATM    7  N   UNL     1      42.083 -12.347   2.517  1.00  0.00    -0.262 N 
HETATM    8  H   UNL     1      42.720 -13.100   2.274  1.00  0.00     0.190 HD
HETATM    9  O   UNL     1      40.159 -11.689   3.540  1.00  0.00    -0.264 OA
BRANCH   7  10
HETATM   10  N   UNL     1      41.968 -11.305   1.577  1.00  0.00    -0.274 N 
HETATM   11  H   UNL     1      41.433 -10.508   1.920  1.00  0.00     0.189 HD
BRANCH  10  12
HETATM   12  C   UNL     1      41.931 -11.592   0.237  1.00  0.00     0.186 C 
HETATM   13  S   UNL     1      41.582 -10.484  -0.971  1.00  0.00    -0.040 SA
BRANCH  12  14
HETATM   14  N   UNL     1      42.134 -12.888  -0.118  1.00  0.00    -0.364 N 
HETATM   15  H   UNL     1      42.929 -13.324   0.341  1.00  0.00     0.162 HD
BRANCH  14  16
HETATM   16  C   UNL     1      41.613 -13.631  -1.262  1.00  0.00     0.154 C 
BRANCH  16  17
HETATM   17  C   UNL     1      40.706 -14.806  -0.855  1.00  0.00     0.139 C 
HETATM   18  O   UNL     1      39.859 -14.399   0.241  1.00  0.00    -0.384 OA
HETATM   19  C   UNL     1      39.992 -15.357   1.299  1.00  0.00     0.168 C 
HETATM   20  C   UNL     1      41.315 -16.053   1.086  1.00  0.00     0.029 C 
HETATM   21  C   UNL     1      41.437 -16.068  -0.417  1.00  0.00     0.035 C 
ENDBRANCH  16  17
ENDBRANCH  14  16
ENDBRANCH  12  14
ENDBRANCH  10  12
ENDBRANCH   7  10
ENDBRANCH   3   6
BRANCH   1  22
HETATM   22  C   UNL     1      43.335 -16.504   4.994  1.00  0.00     0.240 C 
BRANCH  22  23
HETATM   23  O   UNL     1      43.519 -16.918   3.643  1.00  0.00    -0.345 OA
BRANCH  23  24
HETATM   24  C   UNL     1      43.743 -18.252   3.432  1.00  0.00     0.069 A 
HETATM   25  C   UNL     1      43.724 -18.898   2.184  1.00  0.00     0.037 A 
HETATM   26  C   UNL     1      43.987 -20.270   2.085  1.00  0.00     0.010 A 
HETATM   27  C   UNL     1      44.276 -20.973   3.241  1.00  0.00    -0.052 A 
HETATM   28  C   UNL     1      44.295 -20.335   4.483  1.00  0.00    -0.049 A 
HETATM   29  C   UNL     1      44.548 -22.437   3.389  1.00  0.00     0.039 C 
HETATM   30  C   UNL     1      44.033 -18.980   4.591  1.00  0.00     0.044 A 
HETATM   31  C   UNL     1      44.570 -21.312   5.582  1.00  0.00     0.039 C 
HETATM   32  C   UNL     1      45.170 -22.485   4.793  1.00  0.00     0.009 C 
ENDBRANCH  23  24
ENDBRANCH  22  23
ENDBRANCH   1  22
TORSDOF 9
ENDMDL
MODEL 9
REMARK VINA RESULT:      -7.1      3.196      5.968
REMARK  9 active torsions:
REMARK  status: ('A' for Active; 'I' for Inactive)
REMARK    1  A    between atoms: C_2  and  O_3 
REMARK    2  A    between atoms: O_3  and  C_4 
REMARK    3  A    between atoms: C_4  and  C_5 
REMARK    4  A    between atoms: C_7  and  C_8 
REMARK       I    between atoms: C_8  and  N_9 
REMARK    5  A    between atoms: N_9  and  N_10 
REMARK    6  A    between atoms: N_10  and  C_11 
REMARK    7  A    between atoms: C_11  and  N_12 
REMARK    8  A    between atoms: N_12  and  C_13 
REMARK    9  A    between atoms: C_13  and  C_14 
ROOT
HETATM    1  C   UNL     1      40.898 -15.445   2.622  1.00  0.00     0.078 A 
HETATM    2  O   UNL     1      40.799 -15.226   3.963  1.00  0.00    -0.307 OA
HETATM    3  C   UNL     1      40.829 -13.871   4.169  1.00  0.00     0.145 A 
HETATM    4  C   UNL     1      40.932 -13.234   2.943  1.00  0.00     0.045 A 
HETATM    5  C   UNL     1      40.977 -14.244   1.953  1.00  0.00     0.038 A 
ENDROOT
BRANCH   3   6
HETATM    6  C   UNL     1      40.764 -13.385   5.533  1.00  0.00     0.293 C 
HETATM    7  N   UNL     1      41.659 -12.367   5.827  1.00  0.00    -0.262 N 
HETATM    8  H   UNL     1      42.151 -11.857   5.099  1.00  0.00     0.190 HD
HETATM    9  O   UNL     1      39.992 -13.808   6.396  1.00  0.00    -0.264 OA
BRANCH   7  10
HETATM   10  N   UNL     1      41.564 -11.726   7.078  1.00  0.00    -0.274 N 
HETATM   11  H   UNL     1      41.050 -12.267   7.771  1.00  0.00     0.189 HD
BRANCH  10  12
HETATM   12  C   UNL     1      41.516 -10.358   7.145  1.00  0.00     0.186 C 
HETATM   13  S   UNL     1      41.402  -9.339   5.819  1.00  0.00    -0.040 SA
BRANCH  12  14
HETATM   14  N   UNL     1      41.630  -9.800   8.378  1.00  0.00    -0.364 N 
HETATM   15  H   UNL     1      41.690  -8.786   8.370  1.00  0.00     0.162 HD
BRANCH  14  16
HETATM   16  C   UNL     1      42.002 -10.418   9.648  1.00  0.00     0.154 C 
BRANCH  16  17
HETATM   17  C   UNL     1      43.521 -10.428   9.891  1.00  0.00     0.139 C 
HETATM   18  O   UNL     1      44.161 -11.252   8.893  1.00  0.00    -0.384 OA
HETATM   19  C   UNL     1      44.992 -12.211   9.558  1.00  0.00     0.168 C 
HETATM   20  C   UNL     1      44.456 -12.344  10.964  1.00  0.00     0.029 C 
HETATM   21  C   UNL     1      43.956 -10.952  11.254  1.00  0.00     0.035 C 
ENDBRANCH  16  17
ENDBRANCH  14  16
ENDBRANCH  12  14
ENDBRANCH  10  12
ENDBRANCH   7  10
ENDBRANCH   3   6
BRANCH   1  22
HETATM   22  C   UNL     1      40.905 -16.861   2.168  1.00  0.00     0.240 C 
BRANCH  22  23
HETATM   23  O   UNL     1      42.236 -17.134   1.739  1.00  0.00    -0.345 OA
BRANCH  23  24
HETATM   24  C   UNL     1      42.939 -18.061   2.461  1.00  0.00     0.069 A 
HETATM   25  C   UNL     1      43.441 -17.878   3.760  1.00  0.00     0.037 A 
HETATM   26  C   UNL     1      44.132 -18.907   4.411  1.00  0.00     0.010 A 
HETATM   27  C   UNL     1      44.300 -20.111   3.751  1.00  0.00    -0.052 A 
HETATM   28  C   UNL     1      43.804 -20.297   2.459  1.00  0.00    -0.049 A 
HETATM   29  C   UNL     1      45.031 -21.330   4.222  1.00  0.00     0.039 C 
HETATM   30  C   UNL     1      43.123 -19.284   1.806  1.00  0.00     0.044 A 
HETATM   31  C   UNL     1      44.163 -21.652   1.938  1.00  0.00     0.039 C 
HETATM   32  C   UNL     1      44.508 -22.389   3.240  1.00  0.00     0.009 C 
ENDBRANCH  23  24
ENDBRANCH  22  23
ENDBRANCH   1  22
TORSDOF 9
ENDMDL
MODEL 10
REMARK VINA RESULT:      -7.1      3.616      4.475
REMARK  9 active torsions:
REMARK  status: ('A' for Active; 'I' for Inactive)
REMARK    1  A    between atoms: C_2  and  O_3 
REMARK    2  A    between atoms: O_3  and  C_4 
REMARK    3  A    between atoms: C_4  and  C_5 
REMARK    4  A    between atoms: C_7  and  C_8 
REMARK       I    between atoms: C_8  and  N_9 
REMARK    5  A    between atoms: N_9  and  N_10 
REMARK    6  A    between atoms: N_10  and  C_11 
REMARK    7  A    between atoms: C_11  and  N_12 
REMARK    8  A    between atoms: N_12  and  C_13 
REMARK    9  A    between atoms: C_13  and  C_14 
ROOT
HETATM    1  C   UNL     1      40.993 -15.426   4.850  1.00  0.00     0.078 A 
HETATM    2  O   UNL     1      40.691 -15.682   3.545  1.00  0.00    -0.307 OA
HETATM    3  C   UNL     1      39.850 -14.692   3.109  1.00  0.00     0.145 A 
HETATM    4  C   UNL     1      39.634 -13.797   4.145  1.00  0.00     0.045 A 
HETATM    5  C   UNL     1      40.366 -14.270   5.260  1.00  0.00     0.038 A 
ENDROOT
BRANCH   3   6
HETATM    6  C   UNL     1      39.363 -14.760   1.744  1.00  0.00     0.293 C 
HETATM    7  N   UNL     1      40.357 -14.834   0.780  1.00  0.00    -0.262 N 
HETATM    8  H   UNL     1      41.320 -15.050   1.016  1.00  0.00     0.190 HD
HETATM    9  O   UNL     1      38.174 -14.757   1.420  1.00  0.00    -0.264 OA
BRANCH   7  10
HETATM   10  N   UNL     1      39.981 -15.059  -0.559  1.00  0.00    -0.274 N 
HETATM   11  H   UNL     1      40.098 -16.027  -0.854  1.00  0.00     0.189 HD
BRANCH  10  12
HETATM   12  C   UNL     1      40.136 -14.065  -1.490  1.00  0.00     0.186 C 
HETATM   13  S   UNL     1      39.740 -14.203  -3.113  1.00  0.00    -0.040 SA
BRANCH  12  14
HETATM   14  N   UNL     1      40.712 -12.911  -1.065  1.00  0.00    -0.364 N 
HETATM   15  H   UNL     1      40.203 -12.072  -1.325  1.00  0.00     0.162 HD
BRANCH  14  16
HETATM   16  C   UNL     1      42.074 -12.670  -0.593  1.00  0.00     0.154 C 
BRANCH  16  17
HETATM   17  C   UNL     1      42.944 -11.926  -1.620  1.00  0.00     0.139 C 
HETATM   18  O   UNL     1      43.747 -10.937  -0.941  1.00  0.00    -0.384 OA
HETATM   19  C   UNL     1      43.553  -9.672  -1.585  1.00  0.00     0.168 C 
HETATM   20  C   UNL     1      42.231  -9.756  -2.310  1.00  0.00     0.029 C 
HETATM   21  C   UNL     1      42.176 -11.205  -2.721  1.00  0.00     0.035 C 
ENDBRANCH  16  17
ENDBRANCH  14  16
ENDBRANCH  12  14
ENDBRANCH  10  12
ENDBRANCH   7  10
ENDBRANCH   3   6
BRANCH   1  22
HETATM   22  C   UNL     1      41.887 -16.394   5.538  1.00  0.00     0.240 C 
BRANCH  22  23
HETATM   23  O   UNL     1      43.085 -16.443   4.768  1.00  0.00    -0.345 OA
BRANCH  23  24
HETATM   24  C   UNL     1      43.604 -17.684   4.513  1.00  0.00     0.069 A 
HETATM   25  C   UNL     1      44.447 -18.411   5.370  1.00  0.00     0.037 A 
HETATM   26  C   UNL     1      44.904 -19.685   5.013  1.00  0.00     0.010 A 
HETATM   27  C   UNL     1      44.500 -20.216   3.801  1.00  0.00    -0.052 A 
HETATM   28  C   UNL     1      43.663 -19.497   2.945  1.00  0.00    -0.049 A 
HETATM   29  C   UNL     1      44.886 -21.527   3.191  1.00  0.00     0.039 C 
HETATM   30  C   UNL     1      43.209 -18.235   3.289  1.00  0.00     0.044 A 
HETATM   31  C   UNL     1      43.419 -20.251   1.676  1.00  0.00     0.039 C 
HETATM   32  C   UNL     1      43.818 -21.673   2.096  1.00  0.00     0.009 C 
ENDBRANCH  23  24
ENDBRANCH  22  23
ENDBRANCH   1  22
TORSDOF 9
ENDMDL
