MODEL 1
REMARK VINA RESULT:      -7.7      0.000      0.000
REMARK  7 active torsions:
REMARK  status: ('A' for Active; 'I' for Inactive)
REMARK    1  A    between atoms: O_2  and  C_3 
REMARK    2  A    between atoms: C_4  and  O_5 
REMARK    3  A    between atoms: C_6  and  C_7 
REMARK    4  A    between atoms: C_7  and  N_8 
REMARK    5  A    between atoms: C_11  and  C_12 
REMARK    6  A    between atoms: C_12  and  N_13 
REMARK    7  A    between atoms: N_13  and  C_14 
ROOT
HETATM    1  N   UNL     1      42.504 -16.657   7.210  1.00  0.00    -0.067 N 
HETATM    2  H   UNL     1      42.228 -15.988   7.955  1.00  0.00     0.280 HD
HETATM    3  C   UNL     1      43.515 -15.956   6.337  1.00  0.00     0.241 C 
HETATM    4  C   UNL     1      44.606 -16.993   6.079  1.00  0.00     0.026 C 
HETATM    5  C   UNL     1      44.633 -17.755   7.403  1.00  0.00     0.035 C 
HETATM    6  C   UNL     1      43.181 -17.839   7.856  1.00  0.00     0.235 C 
ENDROOT
BRANCH   1   7
HETATM    7  C   UNL     1      41.178 -16.995   6.572  1.00  0.00     0.276 C 
BRANCH   7   8
HETATM    8  C   UNL     1      40.910 -16.255   5.296  1.00  0.00     0.005 A 
HETATM    9  C   UNL     1      40.379 -14.964   5.320  1.00  0.00     0.107 A 
HETATM   10  C   UNL     1      40.058 -14.268   4.146  1.00  0.00     0.103 A 
HETATM   11  C   UNL     1      40.322 -14.862   2.914  1.00  0.00     0.058 A 
HETATM   12  C   UNL     1      40.876 -16.143   2.875  1.00  0.00     0.014 A 
HETATM   13  C   UNL     1      41.155 -16.845   4.050  1.00  0.00     0.030 A 
HETATM   14 BR   UNL     1      41.262 -16.949   1.208  1.00  0.00    -0.051 Br
BRANCH   9  15
HETATM   15  O   UNL     1      40.182 -14.364   6.540  1.00  0.00    -0.357 OA
HETATM   16  H   UNL     1      39.338 -13.865   6.437  1.00  0.00     0.218 HD
ENDBRANCH   9  15
BRANCH  10  17
HETATM   17  O   UNL     1      39.512 -13.029   4.344  1.00  0.00    -0.353 OA
HETATM   18  C   UNL     1      39.112 -12.321   3.171  1.00  0.00     0.210 C 
ENDBRANCH  10  17
ENDBRANCH   7   8
ENDBRANCH   1   7
BRANCH   4  19
HETATM   19  C   UNL     1      44.289 -17.859   4.845  1.00  0.00     0.100 C 
BRANCH  19  20
HETATM   20  N   UNL     1      44.809 -19.229   5.026  1.00  0.00    -0.279 NA
HETATM   21  H   UNL     1      44.381 -19.628   5.870  1.00  0.00     0.129 HD
BRANCH  20  22
HETATM   22  C   UNL     1      44.490 -20.085   3.965  1.00  0.00     0.079 A 
HETATM   23  N   UNL     1      44.778 -21.385   4.131  1.00  0.00    -0.357 N 
HETATM   24  H   UNL     1      45.205 -21.645   5.018  1.00  0.00     0.166 HD
HETATM   25  C   UNL     1      44.528 -22.322   3.206  1.00  0.00     0.089 A 
HETATM   26  C   UNL     1      43.939 -21.960   2.002  1.00  0.00     0.017 A 
HETATM   27  C   UNL     1      43.608 -20.626   1.788  1.00  0.00     0.005 A 
HETATM   28  C   UNL     1      43.875 -19.682   2.780  1.00  0.00     0.042 A 
ENDBRANCH  20  22
ENDBRANCH  19  20
ENDBRANCH   4  19
TORSDOF 7
ENDMDL
MODEL 2
REMARK VINA RESULT:      -7.6      4.673      7.363
REMARK  7 active torsions:
REMARK  status: ('A' for Active; 'I' for Inactive)
REMARK    1  A    between atoms: O_2  and  C_3 
REMARK    2  A    between atoms: C_4  and  O_5 
REMARK    3  A    between atoms: C_6  and  C_7 
REMARK    4  A    between atoms: C_7  and  N_8 
REMARK    5  A    between atoms: C_11  and  C_12 
REMARK    6  A    between atoms: C_12  and  N_13 
REMARK    7  A    between atoms: N_13  and  C_14 
ROOT
HETATM    1  N   UNL     1      42.317 -16.075   2.838  1.00  0.00    -0.067 N 
HETATM    2  H   UNL     1      42.216 -16.156   3.869  1.00  0.00     0.280 HD
HETATM    3  C   UNL     1      41.177 -16.843   2.218  1.00  0.00     0.241 C 
HETATM    4  C   UNL     1      40.667 -15.954   1.086  1.00  0.00     0.026 C 
HETATM    5  C   UNL     1      40.865 -14.557   1.671  1.00  0.00     0.035 C 
HETATM    6  C   UNL     1      42.168 -14.624   2.456  1.00  0.00     0.235 C 
ENDROOT
BRANCH   1   7
HETATM    7  C   UNL     1      43.706 -16.619   2.606  1.00  0.00     0.276 C 
BRANCH   7   8
HETATM    8  C   UNL     1      43.930 -17.983   3.186  1.00  0.00     0.005 A 
HETATM    9  C   UNL     1      44.069 -18.157   4.565  1.00  0.00     0.107 A 
HETATM   10  C   UNL     1      44.341 -19.410   5.134  1.00  0.00     0.103 A 
HETATM   11  C   UNL     1      44.426 -20.526   4.304  1.00  0.00     0.058 A 
HETATM   12  C   UNL     1      44.265 -20.370   2.927  1.00  0.00     0.014 A 
HETATM   13  C   UNL     1      44.034 -19.112   2.364  1.00  0.00     0.030 A 
HETATM   14 BR   UNL     1      44.355 -21.882   1.794  1.00  0.00    -0.051 Br
BRANCH   9  15
HETATM   15  O   UNL     1      43.919 -17.060   5.377  1.00  0.00    -0.357 OA
HETATM   16  H   UNL     1      44.833 -16.852   5.682  1.00  0.00     0.218 HD
ENDBRANCH   9  15
BRANCH  10  17
HETATM   17  O   UNL     1      44.484 -19.402   6.495  1.00  0.00    -0.353 OA
HETATM   18  C   UNL     1      43.672 -20.326   7.220  1.00  0.00     0.210 C 
ENDBRANCH  10  17
ENDBRANCH   7   8
ENDBRANCH   1   7
BRANCH   4  19
HETATM   19  C   UNL     1      41.426 -16.214  -0.229  1.00  0.00     0.100 C 
BRANCH  19  20
HETATM   20  N   UNL     1      41.319 -15.048  -1.128  1.00  0.00    -0.279 NA
HETATM   21  H   UNL     1      42.192 -14.973  -1.665  1.00  0.00     0.129 HD
BRANCH  20  22
HETATM   22  C   UNL     1      40.279 -15.160  -2.059  1.00  0.00     0.079 A 
HETATM   23  N   UNL     1      39.183 -14.422  -1.832  1.00  0.00    -0.357 N 
HETATM   24  H   UNL     1      39.196 -13.835  -1.000  1.00  0.00     0.166 HD
HETATM   25  C   UNL     1      38.111 -14.423  -2.636  1.00  0.00     0.089 A 
HETATM   26  C   UNL     1      38.103 -15.220  -3.773  1.00  0.00     0.017 A 
HETATM   27  C   UNL     1      39.224 -15.993  -4.059  1.00  0.00     0.005 A 
HETATM   28  C   UNL     1      40.324 -15.957  -3.203  1.00  0.00     0.042 A 
ENDBRANCH  20  22
ENDBRANCH  19  20
ENDBRANCH   4  19
TORSDOF 7
ENDMDL
MODEL 3
REMARK VINA RESULT:      -7.3      2.673      4.287
REMARK  7 active torsions:
REMARK  status: ('A' for Active; 'I' for Inactive)
REMARK    1  A    between atoms: O_2  and  C_3 
REMARK    2  A    between atoms: C_4  and  O_5 
REMARK    3  A    between atoms: C_6  and  C_7 
REMARK    4  A    between atoms: C_7  and  N_8 
REMARK    5  A    between atoms: C_11  and  C_12 
REMARK    6  A    between atoms: C_12  and  N_13 
REMARK    7  A    between atoms: N_13  and  C_14 
ROOT
HETATM    1  N   UNL     1      42.138 -15.986   2.474  1.00  0.00    -0.067 N 
HETATM    2  H   UNL     1      41.892 -15.005   2.232  1.00  0.00     0.280 HD
HETATM    3  C   UNL     1      41.727 -16.847   1.306  1.00  0.00     0.241 C 
HETATM    4  C   UNL     1      42.887 -17.818   1.098  1.00  0.00     0.026 C 
HETATM    5  C   UNL     1      44.091 -16.948   1.456  1.00  0.00     0.035 C 
HETATM    6  C   UNL     1      43.636 -16.079   2.621  1.00  0.00     0.235 C 
ENDROOT
BRANCH   1   7
HETATM    7  C   UNL     1      41.390 -16.197   3.768  1.00  0.00     0.276 C 
BRANCH   7   8
HETATM    8  C   UNL     1      42.249 -16.089   4.992  1.00  0.00     0.005 A 
HETATM    9  C   UNL     1      42.682 -14.843   5.450  1.00  0.00     0.107 A 
HETATM   10  C   UNL     1      43.537 -14.711   6.554  1.00  0.00     0.103 A 
HETATM   11  C   UNL     1      43.927 -15.855   7.248  1.00  0.00     0.058 A 
HETATM   12  C   UNL     1      43.482 -17.105   6.815  1.00  0.00     0.014 A 
HETATM   13  C   UNL     1      42.663 -17.230   5.690  1.00  0.00     0.030 A 
HETATM   14 BR   UNL     1      43.986 -18.661   7.764  1.00  0.00    -0.051 Br
BRANCH   9  15
HETATM   15  O   UNL     1      42.239 -13.720   4.796  1.00  0.00    -0.357 OA
HETATM   16  H   UNL     1      41.311 -13.602   5.108  1.00  0.00     0.218 HD
ENDBRANCH   9  15
BRANCH  10  17
HETATM   17  O   UNL     1      43.897 -13.425   6.851  1.00  0.00    -0.353 OA
HETATM   18  C   UNL     1      44.865 -13.263   7.888  1.00  0.00     0.210 C 
ENDBRANCH  10  17
ENDBRANCH   7   8
ENDBRANCH   1   7
BRANCH   4  19
HETATM   19  C   UNL     1      42.731 -19.085   1.960  1.00  0.00     0.100 C 
BRANCH  19  20
HETATM   20  N   UNL     1      43.850 -20.017   1.719  1.00  0.00    -0.279 NA
HETATM   21  H   UNL     1      44.668 -19.470   1.425  1.00  0.00     0.129 HD
BRANCH  20  22
HETATM   22  C   UNL     1      44.229 -20.734   2.860  1.00  0.00     0.079 A 
HETATM   23  N   UNL     1      44.293 -22.068   2.743  1.00  0.00    -0.357 N 
HETATM   24  H   UNL     1      44.062 -22.454   1.829  1.00  0.00     0.166 HD
HETATM   25  C   UNL     1      44.643 -22.883   3.747  1.00  0.00     0.089 A 
HETATM   26  C   UNL     1      44.964 -22.349   4.987  1.00  0.00     0.017 A 
HETATM   27  C   UNL     1      44.927 -20.968   5.155  1.00  0.00     0.005 A 
HETATM   28  C   UNL     1      44.567 -20.153   4.083  1.00  0.00     0.042 A 
ENDBRANCH  20  22
ENDBRANCH  19  20
ENDBRANCH   4  19
TORSDOF 7
ENDMDL
MODEL 4
REMARK VINA RESULT:      -7.1      3.170      5.800
REMARK  7 active torsions:
REMARK  status: ('A' for Active; 'I' for Inactive)
REMARK    1  A    between atoms: O_2  and  C_3 
REMARK    2  A    between atoms: C_4  and  O_5 
REMARK    3  A    between atoms: C_6  and  C_7 
REMARK    4  A    between atoms: C_7  and  N_8 
REMARK    5  A    between atoms: C_11  and  C_12 
REMARK    6  A    between atoms: C_12  and  N_13 
REMARK    7  A    between atoms: N_13  and  C_14 
ROOT
HETATM    1  N   UNL     1      42.019 -14.351   5.902  1.00  0.00    -0.067 N 
HETATM    2  H   UNL     1      42.374 -14.713   6.810  1.00  0.00     0.280 HD
HETATM    3  C   UNL     1      40.679 -14.999   5.659  1.00  0.00     0.241 C 
HETATM    4  C   UNL     1      39.780 -13.875   5.149  1.00  0.00     0.026 C 
HETATM    5  C   UNL     1      40.297 -12.677   5.943  1.00  0.00     0.035 C 
HETATM    6  C   UNL     1      41.805 -12.865   6.031  1.00  0.00     0.235 C 
ENDROOT
BRANCH   1   7
HETATM    7  C   UNL     1      43.132 -14.720   4.951  1.00  0.00     0.276 C 
BRANCH   7   8
HETATM    8  C   UNL     1      43.512 -16.170   4.991  1.00  0.00     0.005 A 
HETATM    9  C   UNL     1      43.891 -16.775   6.191  1.00  0.00     0.107 A 
HETATM   10  C   UNL     1      44.311 -18.111   6.252  1.00  0.00     0.103 A 
HETATM   11  C   UNL     1      44.303 -18.876   5.088  1.00  0.00     0.058 A 
HETATM   12  C   UNL     1      43.903 -18.292   3.886  1.00  0.00     0.014 A 
HETATM   13  C   UNL     1      43.524 -16.948   3.827  1.00  0.00     0.030 A 
HETATM   14 BR   UNL     1      43.865 -19.328   2.305  1.00  0.00    -0.051 Br
BRANCH   9  15
HETATM   15  O   UNL     1      43.834 -16.027   7.342  1.00  0.00    -0.357 OA
HETATM   16  H   UNL     1      44.678 -16.228   7.810  1.00  0.00     0.218 HD
ENDBRANCH   9  15
BRANCH  10  17
HETATM   17  O   UNL     1      44.684 -18.539   7.498  1.00  0.00    -0.353 OA
HETATM   18  C   UNL     1      43.902 -19.590   8.064  1.00  0.00     0.210 C 
ENDBRANCH  10  17
ENDBRANCH   7   8
ENDBRANCH   1   7
BRANCH   4  19
HETATM   19  C   UNL     1      39.872 -13.721   3.619  1.00  0.00     0.100 C 
BRANCH  19  20
HETATM   20  N   UNL     1      39.187 -14.841   2.943  1.00  0.00    -0.279 NA
HETATM   21  H   UNL     1      38.391 -14.462   2.417  1.00  0.00     0.129 HD
BRANCH  20  22
HETATM   22  C   UNL     1      40.001 -15.511   2.021  1.00  0.00     0.079 A 
HETATM   23  N   UNL     1      40.601 -14.760   1.087  1.00  0.00    -0.357 N 
HETATM   24  H   UNL     1      40.418 -13.759   1.124  1.00  0.00     0.166 HD
HETATM   25  C   UNL     1      41.410 -15.259   0.142  1.00  0.00     0.089 A 
HETATM   26  C   UNL     1      41.661 -16.624   0.103  1.00  0.00     0.017 A 
HETATM   27  C   UNL     1      41.073 -17.444   1.061  1.00  0.00     0.005 A 
HETATM   28  C   UNL     1      40.245 -16.885   2.034  1.00  0.00     0.042 A 
ENDBRANCH  20  22
ENDBRANCH  19  20
ENDBRANCH   4  19
TORSDOF 7
ENDMDL
MODEL 5
REMARK VINA RESULT:      -7.1      4.465      7.306
REMARK  7 active torsions:
REMARK  status: ('A' for Active; 'I' for Inactive)
REMARK    1  A    between atoms: O_2  and  C_3 
REMARK    2  A    between atoms: C_4  and  O_5 
REMARK    3  A    between atoms: C_6  and  C_7 
REMARK    4  A    between atoms: C_7  and  N_8 
REMARK    5  A    between atoms: C_11  and  C_12 
REMARK    6  A    between atoms: C_12  and  N_13 
REMARK    7  A    between atoms: N_13  and  C_14 
ROOT
HETATM    1  N   UNL     1      42.075 -16.192   3.372  1.00  0.00    -0.067 N 
HETATM    2  H   UNL     1      42.038 -16.439   4.381  1.00  0.00     0.280 HD
HETATM    3  C   UNL     1      40.902 -16.866   2.706  1.00  0.00     0.241 C 
HETATM    4  C   UNL     1      40.318 -15.815   1.766  1.00  0.00     0.026 C 
HETATM    5  C   UNL     1      40.546 -14.527   2.556  1.00  0.00     0.035 C 
HETATM    6  C   UNL     1      41.895 -14.700   3.240  1.00  0.00     0.235 C 
ENDROOT
BRANCH   1   7
HETATM    7  C   UNL     1      43.449 -16.672   2.971  1.00  0.00     0.276 C 
BRANCH   7   8
HETATM    8  C   UNL     1      43.771 -18.057   3.443  1.00  0.00     0.005 A 
HETATM    9  C   UNL     1      43.953 -18.323   4.802  1.00  0.00     0.107 A 
HETATM   10  C   UNL     1      44.316 -19.594   5.271  1.00  0.00     0.103 A 
HETATM   11  C   UNL     1      44.452 -20.638   4.359  1.00  0.00     0.058 A 
HETATM   12  C   UNL     1      44.249 -20.392   3.000  1.00  0.00     0.014 A 
HETATM   13  C   UNL     1      43.926 -19.114   2.537  1.00  0.00     0.030 A 
HETATM   14 BR   UNL     1      44.406 -21.808   1.756  1.00  0.00    -0.051 Br
BRANCH   9  15
HETATM   15  O   UNL     1      43.754 -17.300   5.697  1.00  0.00    -0.357 OA
HETATM   16  H   UNL     1      44.650 -17.115   6.064  1.00  0.00     0.218 HD
ENDBRANCH   9  15
BRANCH  10  17
HETATM   17  O   UNL     1      44.491 -19.677   6.626  1.00  0.00    -0.353 OA
HETATM   18  C   UNL     1      43.695 -20.647   7.306  1.00  0.00     0.210 C 
ENDBRANCH  10  17
ENDBRANCH   7   8
ENDBRANCH   1   7
BRANCH   4  19
HETATM   19  C   UNL     1      40.994 -15.848   0.383  1.00  0.00     0.100 C 
BRANCH  19  20
HETATM   20  N   UNL     1      40.205 -15.080  -0.600  1.00  0.00    -0.279 NA
HETATM   21  H   UNL     1      39.510 -14.521  -0.090  1.00  0.00     0.129 HD
BRANCH  20  22
HETATM   22  C   UNL     1      40.976 -14.184  -1.350  1.00  0.00     0.079 A 
HETATM   23  N   UNL     1      40.825 -14.226  -2.682  1.00  0.00    -0.357 N 
HETATM   24  H   UNL     1      40.159 -14.906  -3.042  1.00  0.00     0.166 HD
HETATM   25  C   UNL     1      41.492 -13.428  -3.527  1.00  0.00     0.089 A 
HETATM   26  C   UNL     1      42.394 -12.496  -3.029  1.00  0.00     0.017 A 
HETATM   27  C   UNL     1      42.573 -12.405  -1.652  1.00  0.00     0.005 A 
HETATM   28  C   UNL     1      41.853 -13.246  -0.805  1.00  0.00     0.042 A 
ENDBRANCH  20  22
ENDBRANCH  19  20
ENDBRANCH   4  19
TORSDOF 7
ENDMDL
MODEL 6
REMARK VINA RESULT:      -7.1      2.882      4.792
REMARK  7 active torsions:
REMARK  status: ('A' for Active; 'I' for Inactive)
REMARK    1  A    between atoms: O_2  and  C_3 
REMARK    2  A    between atoms: C_4  and  O_5 
REMARK    3  A    between atoms: C_6  and  C_7 
REMARK    4  A    between atoms: C_7  and  N_8 
REMARK    5  A    between atoms: C_11  and  C_12 
REMARK    6  A    between atoms: C_12  and  N_13 
REMARK    7  A    between atoms: N_13  and  C_14 
ROOT
HETATM    1  N   UNL     1      41.974 -15.881   2.603  1.00  0.00    -0.067 N 
HETATM    2  H   UNL     1      41.619 -14.930   2.382  1.00  0.00     0.280 HD
HETATM    3  C   UNL     1      41.628 -16.767   1.432  1.00  0.00     0.241 C 
HETATM    4  C   UNL     1      42.880 -17.605   1.182  1.00  0.00     0.026 C 
HETATM    5  C   UNL     1      43.992 -16.615   1.524  1.00  0.00     0.035 C 
HETATM    6  C   UNL     1      43.476 -15.815   2.713  1.00  0.00     0.235 C 
ENDROOT
BRANCH   1   7
HETATM    7  C   UNL     1      41.286 -16.189   3.911  1.00  0.00     0.276 C 
BRANCH   7   8
HETATM    8  C   UNL     1      42.211 -16.229   5.090  1.00  0.00     0.005 A 
HETATM    9  C   UNL     1      42.444 -17.425   5.772  1.00  0.00     0.107 A 
HETATM   10  C   UNL     1      43.253 -17.485   6.915  1.00  0.00     0.103 A 
HETATM   11  C   UNL     1      43.886 -16.326   7.358  1.00  0.00     0.058 A 
HETATM   12  C   UNL     1      43.681 -15.128   6.671  1.00  0.00     0.014 A 
HETATM   13  C   UNL     1      42.842 -15.069   5.556  1.00  0.00     0.030 A 
HETATM   14 BR   UNL     1      44.555 -13.553   7.249  1.00  0.00    -0.051 Br
BRANCH   9  15
HETATM   15  O   UNL     1      41.865 -18.573   5.288  1.00  0.00    -0.357 OA
HETATM   16  H   UNL     1      42.516 -19.284   5.494  1.00  0.00     0.218 HD
ENDBRANCH   9  15
BRANCH  10  17
HETATM   17  O   UNL     1      43.349 -18.725   7.486  1.00  0.00    -0.353 OA
HETATM   18  C   UNL     1      44.390 -18.899   8.447  1.00  0.00     0.210 C 
ENDBRANCH  10  17
ENDBRANCH   7   8
ENDBRANCH   1   7
BRANCH   4  19
HETATM   19  C   UNL     1      42.882 -18.892   2.028  1.00  0.00     0.100 C 
BRANCH  19  20
HETATM   20  N   UNL     1      44.206 -19.544   1.977  1.00  0.00    -0.279 NA
HETATM   21  H   UNL     1      44.925 -18.828   2.132  1.00  0.00     0.129 HD
BRANCH  20  22
HETATM   22  C   UNL     1      44.381 -20.518   2.968  1.00  0.00     0.079 A 
HETATM   23  N   UNL     1      44.495 -20.080   4.231  1.00  0.00    -0.357 N 
HETATM   24  H   UNL     1      44.441 -19.073   4.368  1.00  0.00     0.166 HD
HETATM   25  C   UNL     1      44.663 -20.893   5.283  1.00  0.00     0.089 A 
HETATM   26  C   UNL     1      44.727 -22.266   5.088  1.00  0.00     0.017 A 
HETATM   27  C   UNL     1      44.600 -22.770   3.798  1.00  0.00     0.005 A 
HETATM   28  C   UNL     1      44.415 -21.892   2.730  1.00  0.00     0.042 A 
ENDBRANCH  20  22
ENDBRANCH  19  20
ENDBRANCH   4  19
TORSDOF 7
ENDMDL
MODEL 7
REMARK VINA RESULT:      -7.0      2.078      2.380
REMARK  7 active torsions:
REMARK  status: ('A' for Active; 'I' for Inactive)
REMARK    1  A    between atoms: O_2  and  C_3 
REMARK    2  A    between atoms: C_4  and  O_5 
REMARK    3  A    between atoms: C_6  and  C_7 
REMARK    4  A    between atoms: C_7  and  N_8 
REMARK    5  A    between atoms: C_11  and  C_12 
REMARK    6  A    between atoms: C_12  and  N_13 
REMARK    7  A    between atoms: N_13  and  C_14 
ROOT
HETATM    1  N   UNL     1      42.838 -16.849   6.370  1.00  0.00    -0.067 N 
HETATM    2  H   UNL     1      42.791 -15.812   6.413  1.00  0.00     0.280 HD
HETATM    3  C   UNL     1      44.214 -17.210   5.867  1.00  0.00     0.241 C 
HETATM    4  C   UNL     1      44.668 -18.371   6.749  1.00  0.00     0.026 C 
HETATM    5  C   UNL     1      44.049 -18.002   8.096  1.00  0.00     0.035 C 
HETATM    6  C   UNL     1      42.692 -17.392   7.769  1.00  0.00     0.235 C 
ENDROOT
BRANCH   1   7
HETATM    7  C   UNL     1      41.677 -17.188   5.467  1.00  0.00     0.276 C 
BRANCH   7   8
HETATM    8  C   UNL     1      40.982 -15.991   4.893  1.00  0.00     0.005 A 
HETATM    9  C   UNL     1      40.753 -15.889   3.519  1.00  0.00     0.107 A 
HETATM   10  C   UNL     1      40.163 -14.755   2.944  1.00  0.00     0.103 A 
HETATM   11  C   UNL     1      39.744 -13.716   3.772  1.00  0.00     0.058 A 
HETATM   12  C   UNL     1      39.944 -13.815   5.150  1.00  0.00     0.014 A 
HETATM   13  C   UNL     1      40.569 -14.931   5.711  1.00  0.00     0.030 A 
HETATM   14 BR   UNL     1      39.357 -12.422   6.286  1.00  0.00    -0.051 Br
BRANCH   9  15
HETATM   15  O   UNL     1      41.113 -16.947   2.721  1.00  0.00    -0.357 OA
HETATM   16  H   UNL     1      41.876 -17.361   3.188  1.00  0.00     0.218 HD
ENDBRANCH   9  15
BRANCH  10  17
HETATM   17  O   UNL     1      40.044 -14.799   1.581  1.00  0.00    -0.353 OA
HETATM   18  C   UNL     1      38.820 -14.302   1.038  1.00  0.00     0.210 C 
ENDBRANCH  10  17
ENDBRANCH   7   8
ENDBRANCH   1   7
BRANCH   4  19
HETATM   19  C   UNL     1      44.213 -19.729   6.183  1.00  0.00     0.100 C 
BRANCH  19  20
HETATM   20  N   UNL     1      45.202 -20.246   5.215  1.00  0.00    -0.279 NA
HETATM   21  H   UNL     1      45.601 -21.113   5.594  1.00  0.00     0.129 HD
BRANCH  20  22
HETATM   22  C   UNL     1      44.644 -20.564   3.971  1.00  0.00     0.079 A 
HETATM   23  N   UNL     1      44.809 -21.823   3.540  1.00  0.00    -0.357 N 
HETATM   24  H   UNL     1      45.326 -22.449   4.155  1.00  0.00     0.166 HD
HETATM   25  C   UNL     1      44.330 -22.275   2.373  1.00  0.00     0.089 A 
HETATM   26  C   UNL     1      43.619 -21.418   1.543  1.00  0.00     0.017 A 
HETATM   27  C   UNL     1      43.409 -20.105   1.954  1.00  0.00     0.005 A 
HETATM   28  C   UNL     1      43.915 -19.676   3.180  1.00  0.00     0.042 A 
ENDBRANCH  20  22
ENDBRANCH  19  20
ENDBRANCH   4  19
TORSDOF 7
ENDMDL
MODEL 8
REMARK VINA RESULT:      -6.9      4.805      7.511
REMARK  7 active torsions:
REMARK  status: ('A' for Active; 'I' for Inactive)
REMARK    1  A    between atoms: O_2  and  C_3 
REMARK    2  A    between atoms: C_4  and  O_5 
REMARK    3  A    between atoms: C_6  and  C_7 
REMARK    4  A    between atoms: C_7  and  N_8 
REMARK    5  A    between atoms: C_11  and  C_12 
REMARK    6  A    between atoms: C_12  and  N_13 
REMARK    7  A    between atoms: N_13  and  C_14 
ROOT
HETATM    1  N   UNL     1      41.571 -16.302   3.533  1.00  0.00    -0.067 N 
HETATM    2  H   UNL     1      41.250 -16.750   4.414  1.00  0.00     0.280 HD
HETATM    3  C   UNL     1      40.917 -17.044   2.394  1.00  0.00     0.241 C 
HETATM    4  C   UNL     1      40.450 -15.959   1.427  1.00  0.00     0.026 C 
HETATM    5  C   UNL     1      40.051 -14.837   2.385  1.00  0.00     0.035 C 
HETATM    6  C   UNL     1      41.075 -14.879   3.512  1.00  0.00     0.235 C 
ENDROOT
BRANCH   1   7
HETATM    7  C   UNL     1      43.073 -16.416   3.641  1.00  0.00     0.276 C 
BRANCH   7   8
HETATM    8  C   UNL     1      43.552 -17.774   4.057  1.00  0.00     0.005 A 
HETATM    9  C   UNL     1      44.075 -18.664   3.116  1.00  0.00     0.107 A 
HETATM   10  C   UNL     1      44.473 -19.964   3.461  1.00  0.00     0.103 A 
HETATM   11  C   UNL     1      44.393 -20.365   4.793  1.00  0.00     0.058 A 
HETATM   12  C   UNL     1      43.895 -19.477   5.748  1.00  0.00     0.014 A 
HETATM   13  C   UNL     1      43.462 -18.198   5.389  1.00  0.00     0.030 A 
HETATM   14 BR   UNL     1      43.804 -20.003   7.562  1.00  0.00    -0.051 Br
BRANCH   9  15
HETATM   15  O   UNL     1      44.208 -18.234   1.819  1.00  0.00    -0.357 OA
HETATM   16  H   UNL     1      44.913 -18.810   1.439  1.00  0.00     0.218 HD
ENDBRANCH   9  15
BRANCH  10  17
HETATM   17  O   UNL     1      44.929 -20.720   2.416  1.00  0.00    -0.353 OA
HETATM   18  C   UNL     1      44.448 -22.063   2.353  1.00  0.00     0.210 C 
ENDBRANCH  10  17
ENDBRANCH   7   8
ENDBRANCH   1   7
BRANCH   4  19
HETATM   19  C   UNL     1      41.551 -15.582   0.418  1.00  0.00     0.100 C 
BRANCH  19  20
HETATM   20  N   UNL     1      41.164 -15.989  -0.947  1.00  0.00    -0.279 NA
HETATM   21  H   UNL     1      40.212 -16.372  -0.913  1.00  0.00     0.129 HD
BRANCH  20  22
HETATM   22  C   UNL     1      41.140 -14.924  -1.856  1.00  0.00     0.079 A 
HETATM   23  N   UNL     1      42.209 -14.115  -1.867  1.00  0.00    -0.357 N 
HETATM   24  H   UNL     1      42.956 -14.342  -1.213  1.00  0.00     0.166 HD
HETATM   25  C   UNL     1      42.330 -13.058  -2.683  1.00  0.00     0.089 A 
HETATM   26  C   UNL     1      41.310 -12.760  -3.577  1.00  0.00     0.017 A 
HETATM   27  C   UNL     1      40.187 -13.579  -3.614  1.00  0.00     0.005 A 
HETATM   28  C   UNL     1      40.103 -14.675  -2.756  1.00  0.00     0.042 A 
ENDBRANCH  20  22
ENDBRANCH  19  20
ENDBRANCH   4  19
TORSDOF 7
ENDMDL
MODEL 9
REMARK VINA RESULT:      -6.8      3.725      7.168
REMARK  7 active torsions:
REMARK  status: ('A' for Active; 'I' for Inactive)
REMARK    1  A    between atoms: O_2  and  C_3 
REMARK    2  A    between atoms: C_4  and  O_5 
REMARK    3  A    between atoms: C_6  and  C_7 
REMARK    4  A    between atoms: C_7  and  N_8 
REMARK    5  A    between atoms: C_11  and  C_12 
REMARK    6  A    between atoms: C_12  and  N_13 
REMARK    7  A    between atoms: N_13  and  C_14 
ROOT
HETATM    1  N   UNL     1      42.045 -17.256   1.366  1.00  0.00    -0.067 N 
HETATM    2  H   UNL     1      42.023 -18.252   1.069  1.00  0.00     0.280 HD
HETATM    3  C   UNL     1      41.636 -16.428   0.174  1.00  0.00     0.241 C 
HETATM    4  C   UNL     1      40.675 -15.379   0.729  1.00  0.00     0.026 C 
HETATM    5  C   UNL     1      39.956 -16.162   1.826  1.00  0.00     0.035 C 
HETATM    6  C   UNL     1      41.017 -17.058   2.451  1.00  0.00     0.235 C 
ENDROOT
BRANCH   1   7
HETATM    7  C   UNL     1      43.468 -17.095   1.846  1.00  0.00     0.276 C 
BRANCH   7   8
HETATM    8  C   UNL     1      43.866 -18.074   2.908  1.00  0.00     0.005 A 
HETATM    9  C   UNL     1      44.018 -19.430   2.607  1.00  0.00     0.107 A 
HETATM   10  C   UNL     1      44.329 -20.381   3.589  1.00  0.00     0.103 A 
HETATM   11  C   UNL     1      44.543 -19.956   4.899  1.00  0.00     0.058 A 
HETATM   12  C   UNL     1      44.419 -18.601   5.209  1.00  0.00     0.014 A 
HETATM   13  C   UNL     1      44.070 -17.665   4.232  1.00  0.00     0.030 A 
HETATM   14 BR   UNL     1      44.732 -18.011   6.978  1.00  0.00    -0.051 Br
BRANCH   9  15
HETATM   15  O   UNL     1      43.867 -19.826   1.301  1.00  0.00    -0.357 OA
HETATM   16  H   UNL     1      43.864 -18.985   0.786  1.00  0.00     0.218 HD
ENDBRANCH   9  15
BRANCH  10  17
HETATM   17  O   UNL     1      44.405 -21.670   3.135  1.00  0.00    -0.353 OA
HETATM   18  C   UNL     1      44.664 -22.671   4.120  1.00  0.00     0.210 C 
ENDBRANCH  10  17
ENDBRANCH   7   8
ENDBRANCH   1   7
BRANCH   4  19
HETATM   19  C   UNL     1      41.422 -14.124   1.219  1.00  0.00     0.100 C 
BRANCH  19  20
HETATM   20  N   UNL     1      40.864 -13.657   2.503  1.00  0.00    -0.279 NA
HETATM   21  H   UNL     1      40.016 -14.200   2.704  1.00  0.00     0.129 HD
BRANCH  20  22
HETATM   22  C   UNL     1      41.732 -13.845   3.585  1.00  0.00     0.079 A 
HETATM   23  N   UNL     1      41.175 -14.195   4.754  1.00  0.00    -0.357 N 
HETATM   24  H   UNL     1      40.162 -14.299   4.759  1.00  0.00     0.166 HD
HETATM   25  C   UNL     1      41.878 -14.413   5.873  1.00  0.00     0.089 A 
HETATM   26  C   UNL     1      43.260 -14.278   5.856  1.00  0.00     0.017 A 
HETATM   27  C   UNL     1      43.886 -13.931   4.663  1.00  0.00     0.005 A 
HETATM   28  C   UNL     1      43.120 -13.722   3.516  1.00  0.00     0.042 A 
ENDBRANCH  20  22
ENDBRANCH  19  20
ENDBRANCH   4  19
TORSDOF 7
ENDMDL
MODEL 10
REMARK VINA RESULT:      -6.7      3.127      7.184
REMARK  7 active torsions:
REMARK  status: ('A' for Active; 'I' for Inactive)
REMARK    1  A    between atoms: O_2  and  C_3 
REMARK    2  A    between atoms: C_4  and  O_5 
REMARK    3  A    between atoms: C_6  and  C_7 
REMARK    4  A    between atoms: C_7  and  N_8 
REMARK    5  A    between atoms: C_11  and  C_12 
REMARK    6  A    between atoms: C_12  and  N_13 
REMARK    7  A    between atoms: N_13  and  C_14 
ROOT
HETATM    1  N   UNL     1      42.008 -16.345   0.644  1.00  0.00    -0.067 N 
HETATM    2  H   UNL     1      42.968 -16.707   0.479  1.00  0.00     0.280 HD
HETATM    3  C   UNL     1      42.150 -14.986   1.283  1.00  0.00     0.241 C 
HETATM    4  C   UNL     1      41.124 -14.103   0.575  1.00  0.00     0.026 C 
HETATM    5  C   UNL     1      41.159 -14.662  -0.846  1.00  0.00     0.035 C 
HETATM    6  C   UNL     1      41.329 -16.167  -0.691  1.00  0.00     0.235 C 
ENDROOT
BRANCH   1   7
HETATM    7  C   UNL     1      41.394 -17.431   1.493  1.00  0.00     0.276 C 
BRANCH   7   8
HETATM    8  C   UNL     1      42.391 -18.218   2.289  1.00  0.00     0.005 A 
HETATM    9  C   UNL     1      42.874 -17.733   3.506  1.00  0.00     0.107 A 
HETATM   10  C   UNL     1      43.853 -18.413   4.244  1.00  0.00     0.103 A 
HETATM   11  C   UNL     1      44.324 -19.638   3.775  1.00  0.00     0.058 A 
HETATM   12  C   UNL     1      43.831 -20.147   2.573  1.00  0.00     0.014 A 
HETATM   13  C   UNL     1      42.885 -19.443   1.824  1.00  0.00     0.030 A 
HETATM   14 BR   UNL     1      44.445 -21.821   1.941  1.00  0.00    -0.051 Br
BRANCH   9  15
HETATM   15  O   UNL     1      42.356 -16.556   3.988  1.00  0.00    -0.357 OA
HETATM   16  H   UNL     1      42.792 -15.855   3.449  1.00  0.00     0.218 HD
ENDBRANCH   9  15
BRANCH  10  17
HETATM   17  O   UNL     1      44.245 -17.785   5.395  1.00  0.00    -0.353 OA
HETATM   18  C   UNL     1      44.528 -18.629   6.510  1.00  0.00     0.210 C 
ENDBRANCH  10  17
ENDBRANCH   7   8
ENDBRANCH   1   7
BRANCH   4  19
HETATM   19  C   UNL     1      39.745 -14.171   1.259  1.00  0.00     0.100 C 
BRANCH  19  20
HETATM   20  N   UNL     1      39.823 -14.956   2.507  1.00  0.00    -0.279 NA
HETATM   21  H   UNL     1      40.728 -15.442   2.527  1.00  0.00     0.129 HD
BRANCH  20  22
HETATM   22  C   UNL     1      39.762 -14.166   3.662  1.00  0.00     0.079 A 
HETATM   23  N   UNL     1      39.989 -14.785   4.830  1.00  0.00    -0.357 N 
HETATM   24  H   UNL     1      40.191 -15.782   4.782  1.00  0.00     0.166 HD
HETATM   25  C   UNL     1      39.967 -14.160   6.015  1.00  0.00     0.089 A 
HETATM   26  C   UNL     1      39.698 -12.799   6.070  1.00  0.00     0.017 A 
HETATM   27  C   UNL     1      39.470 -12.109   4.884  1.00  0.00     0.005 A 
HETATM   28  C   UNL     1      39.512 -12.793   3.669  1.00  0.00     0.042 A 
ENDBRANCH  20  22
ENDBRANCH  19  20
ENDBRANCH   4  19
TORSDOF 7
ENDMDL
