MODEL 1
REMARK VINA RESULT:      -7.9      0.000      0.000
REMARK  4 active torsions:
REMARK  status: ('A' for Active; 'I' for Inactive)
REMARK    1  A    between atoms: C_5  and  C_6 
REMARK       I    between atoms: C_6  and  N_7 
REMARK    2  A    between atoms: N_7  and  C_8 
REMARK    3  A    between atoms: C_8  and  N_9 
REMARK    4  A    between atoms: N_9  and  C_10 
ROOT
HETATM    1  C   UNL     1      44.116 -17.075   5.691  1.00  0.00     0.257 C 
HETATM    2  N   UNL     1      43.406 -15.938   5.318  1.00  0.00    -0.299 N 
HETATM    3  O   UNL     1      44.818 -17.207   6.686  1.00  0.00    -0.267 OA
HETATM    4  H   UNL     1      42.973 -15.965   4.399  1.00  0.00     0.171 HD
ENDROOT
BRANCH   2   5
HETATM    5  C   UNL     1      43.229 -14.716   5.936  1.00  0.00     0.180 C 
HETATM    6  S   UNL     1      42.361 -13.409   5.362  1.00  0.00    -0.040 SA
BRANCH   5   7
HETATM    7  N   UNL     1      43.832 -14.569   7.163  1.00  0.00    -0.318 N 
HETATM    8  H   UNL     1      43.533 -15.250   7.849  1.00  0.00     0.170 HD
BRANCH   7   9
HETATM    9  C   UNL     1      44.789 -13.625   7.566  1.00  0.00     0.129 A 
HETATM   10  N   UNL     1      45.943 -13.510   6.871  1.00  0.00    -0.243 NA
HETATM   11  C   UNL     1      46.836 -12.589   7.301  1.00  0.00     0.119 A 
HETATM   12  C   UNL     1      46.635 -11.773   8.399  1.00  0.00     0.026 A 
HETATM   13  C   UNL     1      45.440 -11.895   9.107  1.00  0.00    -0.057 A 
HETATM   14  C   UNL     1      45.177 -11.066  10.328  1.00  0.00     0.048 C 
HETATM   15  C   UNL     1      44.504 -12.843   8.680  1.00  0.00     0.057 A 
ENDBRANCH   7   9
ENDBRANCH   5   7
ENDBRANCH   2   5
BRANCH   1  16
HETATM   16  C   UNL     1      44.038 -18.192   4.708  1.00  0.00     0.032 A 
HETATM   17  C   UNL     1      44.716 -19.380   4.994  1.00  0.00     0.017 A 
HETATM   18  C   UNL     1      44.715 -20.427   4.071  1.00  0.00     0.007 A 
HETATM   19  C   UNL     1      44.025 -20.303   2.859  1.00  0.00    -0.062 A 
HETATM   20  C   UNL     1      44.034 -21.413   1.849  1.00  0.00     0.048 C 
HETATM   21  C   UNL     1      43.319 -19.123   2.591  1.00  0.00     0.007 A 
HETATM   22  C   UNL     1      43.320 -18.072   3.511  1.00  0.00     0.017 A 
ENDBRANCH   1  16
TORSDOF 4
ENDMDL
MODEL 2
REMARK VINA RESULT:      -7.5      2.962      4.425
REMARK  4 active torsions:
REMARK  status: ('A' for Active; 'I' for Inactive)
REMARK    1  A    between atoms: C_5  and  C_6 
REMARK       I    between atoms: C_6  and  N_7 
REMARK    2  A    between atoms: N_7  and  C_8 
REMARK    3  A    between atoms: C_8  and  N_9 
REMARK    4  A    between atoms: N_9  and  C_10 
ROOT
HETATM    1  C   UNL     1      44.363 -17.866   5.798  1.00  0.00     0.257 C 
HETATM    2  N   UNL     1      43.638 -16.715   5.505  1.00  0.00    -0.299 N 
HETATM    3  O   UNL     1      45.034 -18.073   6.801  1.00  0.00    -0.267 OA
HETATM    4  H   UNL     1      43.237 -16.667   4.572  1.00  0.00     0.171 HD
ENDROOT
BRANCH   2   5
HETATM    5  C   UNL     1      43.410 -15.559   6.224  1.00  0.00     0.180 C 
HETATM    6  S   UNL     1      44.548 -14.598   6.982  1.00  0.00    -0.040 SA
BRANCH   5   7
HETATM    7  N   UNL     1      42.098 -15.155   6.315  1.00  0.00    -0.318 N 
HETATM    8  H   UNL     1      41.724 -15.194   7.254  1.00  0.00     0.170 HD
BRANCH   7   9
HETATM    9  C   UNL     1      41.245 -14.699   5.298  1.00  0.00     0.129 A 
HETATM   10  N   UNL     1      41.136 -15.410   4.154  1.00  0.00    -0.243 NA
HETATM   11  C   UNL     1      40.305 -14.928   3.201  1.00  0.00     0.119 A 
HETATM   12  C   UNL     1      39.574 -13.762   3.334  1.00  0.00     0.026 A 
HETATM   13  C   UNL     1      39.689 -13.038   4.520  1.00  0.00    -0.057 A 
HETATM   14  C   UNL     1      38.951 -11.746   4.711  1.00  0.00     0.048 C 
HETATM   15  C   UNL     1      40.545 -13.518   5.517  1.00  0.00     0.057 A 
ENDBRANCH   7   9
ENDBRANCH   5   7
ENDBRANCH   2   5
BRANCH   1  16
HETATM   16  C   UNL     1      44.346 -18.889   4.716  1.00  0.00     0.032 A 
HETATM   17  C   UNL     1      43.803 -18.539   3.477  1.00  0.00     0.017 A 
HETATM   18  C   UNL     1      43.716 -19.489   2.456  1.00  0.00     0.007 A 
HETATM   19  C   UNL     1      44.184 -20.792   2.660  1.00  0.00    -0.062 A 
HETATM   20  C   UNL     1      44.077 -21.827   1.578  1.00  0.00     0.048 C 
HETATM   21  C   UNL     1      44.759 -21.129   3.892  1.00  0.00     0.007 A 
HETATM   22  C   UNL     1      44.845 -20.183   4.916  1.00  0.00     0.017 A 
ENDBRANCH   1  16
TORSDOF 4
ENDMDL
MODEL 3
REMARK VINA RESULT:      -7.4      2.538      3.617
REMARK  4 active torsions:
REMARK  status: ('A' for Active; 'I' for Inactive)
REMARK    1  A    between atoms: C_5  and  C_6 
REMARK       I    between atoms: C_6  and  N_7 
REMARK    2  A    between atoms: N_7  and  C_8 
REMARK    3  A    between atoms: C_8  and  N_9 
REMARK    4  A    between atoms: N_9  and  C_10 
ROOT
HETATM    1  C   UNL     1      43.574 -17.575   2.256  1.00  0.00     0.257 C 
HETATM    2  N   UNL     1      42.415 -17.041   2.812  1.00  0.00    -0.299 N 
HETATM    3  O   UNL     1      44.326 -17.026   1.462  1.00  0.00    -0.267 OA
HETATM    4  H   UNL     1      41.847 -17.681   3.360  1.00  0.00     0.171 HD
ENDROOT
BRANCH   2   5
HETATM    5  C   UNL     1      41.828 -15.796   2.703  1.00  0.00     0.180 C 
HETATM    6  S   UNL     1      40.910 -15.217   1.432  1.00  0.00    -0.040 SA
BRANCH   5   7
HETATM    7  N   UNL     1      42.019 -14.945   3.767  1.00  0.00    -0.318 N 
HETATM    8  H   UNL     1      41.644 -14.017   3.619  1.00  0.00     0.170 HD
BRANCH   7   9
HETATM    9  C   UNL     1      42.641 -15.201   4.998  1.00  0.00     0.129 A 
HETATM   10  N   UNL     1      42.247 -16.266   5.733  1.00  0.00    -0.243 NA
HETATM   11  C   UNL     1      42.874 -16.469   6.915  1.00  0.00     0.119 A 
HETATM   12  C   UNL     1      43.879 -15.655   7.405  1.00  0.00     0.026 A 
HETATM   13  C   UNL     1      44.282 -14.563   6.638  1.00  0.00    -0.057 A 
HETATM   14  C   UNL     1      45.340 -13.622   7.130  1.00  0.00     0.048 C 
HETATM   15  C   UNL     1      43.645 -14.334   5.413  1.00  0.00     0.057 A 
ENDBRANCH   7   9
ENDBRANCH   5   7
ENDBRANCH   2   5
BRANCH   1  16
HETATM   16  C   UNL     1      43.839 -18.989   2.644  1.00  0.00     0.032 A 
HETATM   17  C   UNL     1      44.339 -19.245   3.924  1.00  0.00     0.017 A 
HETATM   18  C   UNL     1      44.656 -20.551   4.304  1.00  0.00     0.007 A 
HETATM   19  C   UNL     1      44.462 -21.614   3.414  1.00  0.00    -0.062 A 
HETATM   20  C   UNL     1      44.819 -23.019   3.803  1.00  0.00     0.048 C 
HETATM   21  C   UNL     1      43.929 -21.357   2.145  1.00  0.00     0.007 A 
HETATM   22  C   UNL     1      43.614 -20.051   1.760  1.00  0.00     0.017 A 
ENDBRANCH   1  16
TORSDOF 4
ENDMDL
MODEL 4
REMARK VINA RESULT:      -7.2      3.565      5.687
REMARK  4 active torsions:
REMARK  status: ('A' for Active; 'I' for Inactive)
REMARK    1  A    between atoms: C_5  and  C_6 
REMARK       I    between atoms: C_6  and  N_7 
REMARK    2  A    between atoms: N_7  and  C_8 
REMARK    3  A    between atoms: C_8  and  N_9 
REMARK    4  A    between atoms: N_9  and  C_10 
ROOT
HETATM    1  C   UNL     1      43.448 -17.191   4.868  1.00  0.00     0.257 C 
HETATM    2  N   UNL     1      42.807 -16.155   4.197  1.00  0.00    -0.299 N 
HETATM    3  O   UNL     1      43.906 -17.156   6.003  1.00  0.00    -0.267 OA
HETATM    4  H   UNL     1      42.598 -16.321   3.216  1.00  0.00     0.171 HD
ENDROOT
BRANCH   2   5
HETATM    5  C   UNL     1      42.454 -14.879   4.589  1.00  0.00     0.180 C 
HETATM    6  S   UNL     1      43.287 -13.874   5.633  1.00  0.00    -0.040 SA
BRANCH   5   7
HETATM    7  N   UNL     1      41.289 -14.384   4.051  1.00  0.00    -0.318 N 
HETATM    8  H   UNL     1      40.684 -13.937   4.728  1.00  0.00     0.170 HD
BRANCH   7   9
HETATM    9  C   UNL     1      40.855 -14.411   2.717  1.00  0.00     0.129 A 
HETATM   10  N   UNL     1      41.765 -14.519   1.724  1.00  0.00    -0.243 NA
HETATM   11  C   UNL     1      41.298 -14.537   0.454  1.00  0.00     0.119 A 
HETATM   12  C   UNL     1      39.958 -14.449   0.124  1.00  0.00     0.026 A 
HETATM   13  C   UNL     1      39.026 -14.344   1.155  1.00  0.00    -0.057 A 
HETATM   14  C   UNL     1      37.562 -14.207   0.862  1.00  0.00     0.048 C 
HETATM   15  C   UNL     1      39.489 -14.321   2.475  1.00  0.00     0.057 A 
ENDBRANCH   7   9
ENDBRANCH   5   7
ENDBRANCH   2   5
BRANCH   1  16
HETATM   16  C   UNL     1      43.634 -18.423   4.051  1.00  0.00     0.032 A 
HETATM   17  C   UNL     1      44.472 -19.428   4.543  1.00  0.00     0.017 A 
HETATM   18  C   UNL     1      44.716 -20.571   3.779  1.00  0.00     0.007 A 
HETATM   19  C   UNL     1      44.116 -20.728   2.524  1.00  0.00    -0.062 A 
HETATM   20  C   UNL     1      44.388 -21.942   1.685  1.00  0.00     0.048 C 
HETATM   21  C   UNL     1      43.250 -19.734   2.051  1.00  0.00     0.007 A 
HETATM   22  C   UNL     1      43.004 -18.587   2.811  1.00  0.00     0.017 A 
ENDBRANCH   1  16
TORSDOF 4
ENDMDL
MODEL 5
REMARK VINA RESULT:      -7.1      2.731      8.711
REMARK  4 active torsions:
REMARK  status: ('A' for Active; 'I' for Inactive)
REMARK    1  A    between atoms: C_5  and  C_6 
REMARK       I    between atoms: C_6  and  N_7 
REMARK    2  A    between atoms: N_7  and  C_8 
REMARK    3  A    between atoms: C_8  and  N_9 
REMARK    4  A    between atoms: N_9  and  C_10 
ROOT
HETATM    1  C   UNL     1      44.880 -11.685   9.309  1.00  0.00     0.257 C 
HETATM    2  N   UNL     1      44.353 -12.849   8.759  1.00  0.00    -0.299 N 
HETATM    3  O   UNL     1      45.813 -11.025   8.869  1.00  0.00    -0.267 OA
HETATM    4  H   UNL     1      43.658 -13.333   9.321  1.00  0.00     0.171 HD
ENDROOT
BRANCH   2   5
HETATM    5  C   UNL     1      44.647 -13.539   7.599  1.00  0.00     0.180 C 
HETATM    6  S   UNL     1      46.062 -13.470   6.712  1.00  0.00    -0.040 SA
BRANCH   5   7
HETATM    7  N   UNL     1      43.665 -14.382   7.134  1.00  0.00    -0.318 N 
HETATM    8  H   UNL     1      42.844 -13.901   6.792  1.00  0.00     0.170 HD
BRANCH   7   9
HETATM    9  C   UNL     1      43.667 -15.784   7.067  1.00  0.00     0.129 A 
HETATM   10  N   UNL     1      43.658 -16.504   8.211  1.00  0.00    -0.243 NA
HETATM   11  C   UNL     1      43.665 -17.852   8.095  1.00  0.00     0.119 A 
HETATM   12  C   UNL     1      43.684 -18.522   6.886  1.00  0.00     0.026 A 
HETATM   13  C   UNL     1      43.688 -17.771   5.711  1.00  0.00    -0.057 A 
HETATM   14  C   UNL     1      43.747 -18.437   4.369  1.00  0.00     0.048 C 
HETATM   15  C   UNL     1      43.683 -16.376   5.809  1.00  0.00     0.057 A 
ENDBRANCH   7   9
ENDBRANCH   5   7
ENDBRANCH   2   5
BRANCH   1  16
HETATM   16  C   UNL     1      44.258 -11.286  10.602  1.00  0.00     0.032 A 
HETATM   17  C   UNL     1      43.869 -12.291  11.492  1.00  0.00     0.017 A 
HETATM   18  C   UNL     1      43.230 -11.957  12.688  1.00  0.00     0.007 A 
HETATM   19  C   UNL     1      42.986 -10.617  13.012  1.00  0.00    -0.062 A 
HETATM   20  C   UNL     1      42.280 -10.248  14.284  1.00  0.00     0.048 C 
HETATM   21  C   UNL     1      43.408  -9.613  12.132  1.00  0.00     0.007 A 
HETATM   22  C   UNL     1      44.045  -9.942  10.934  1.00  0.00     0.017 A 
ENDBRANCH   1  16
TORSDOF 4
ENDMDL
MODEL 6
REMARK VINA RESULT:      -7.1      4.729      6.911
REMARK  4 active torsions:
REMARK  status: ('A' for Active; 'I' for Inactive)
REMARK    1  A    between atoms: C_5  and  C_6 
REMARK       I    between atoms: C_6  and  N_7 
REMARK    2  A    between atoms: N_7  and  C_8 
REMARK    3  A    between atoms: C_8  and  N_9 
REMARK    4  A    between atoms: N_9  and  C_10 
ROOT
HETATM    1  C   UNL     1      43.475 -17.573   2.112  1.00  0.00     0.257 C 
HETATM    2  N   UNL     1      43.065 -16.545   2.956  1.00  0.00    -0.299 N 
HETATM    3  O   UNL     1      43.496 -17.552   0.888  1.00  0.00    -0.267 OA
HETATM    4  H   UNL     1      42.999 -16.778   3.943  1.00  0.00     0.171 HD
ENDROOT
BRANCH   2   5
HETATM    5  C   UNL     1      42.646 -15.254   2.702  1.00  0.00     0.180 C 
HETATM    6  S   UNL     1      43.289 -13.842   3.322  1.00  0.00    -0.040 SA
BRANCH   5   7
HETATM    7  N   UNL     1      41.586 -15.124   1.835  1.00  0.00    -0.318 N 
HETATM    8  H   UNL     1      40.707 -15.452   2.214  1.00  0.00     0.170 HD
BRANCH   7   9
HETATM    9  C   UNL     1      41.572 -14.599   0.534  1.00  0.00     0.129 A 
HETATM   10  N   UNL     1      41.923 -13.309   0.334  1.00  0.00    -0.243 NA
HETATM   11  C   UNL     1      41.890 -12.847  -0.937  1.00  0.00     0.119 A 
HETATM   12  C   UNL     1      41.519 -13.614  -2.027  1.00  0.00     0.026 A 
HETATM   13  C   UNL     1      41.164 -14.945  -1.812  1.00  0.00    -0.057 A 
HETATM   14  C   UNL     1      40.716 -15.818  -2.946  1.00  0.00     0.048 C 
HETATM   15  C   UNL     1      41.190 -15.441  -0.504  1.00  0.00     0.057 A 
ENDBRANCH   7   9
ENDBRANCH   5   7
ENDBRANCH   2   5
BRANCH   1  16
HETATM   16  C   UNL     1      43.847 -18.830   2.820  1.00  0.00     0.032 A 
HETATM   17  C   UNL     1      44.125 -18.766   4.189  1.00  0.00     0.017 A 
HETATM   18  C   UNL     1      44.534 -19.912   4.874  1.00  0.00     0.007 A 
HETATM   19  C   UNL     1      44.655 -21.135   4.203  1.00  0.00    -0.062 A 
HETATM   20  C   UNL     1      45.115 -22.368   4.924  1.00  0.00     0.048 C 
HETATM   21  C   UNL     1      44.342 -21.201   2.839  1.00  0.00     0.007 A 
HETATM   22  C   UNL     1      43.935 -20.056   2.149  1.00  0.00     0.017 A 
ENDBRANCH   1  16
TORSDOF 4
ENDMDL
MODEL 7
REMARK VINA RESULT:      -7.1      2.090      8.010
REMARK  4 active torsions:
REMARK  status: ('A' for Active; 'I' for Inactive)
REMARK    1  A    between atoms: C_5  and  C_6 
REMARK       I    between atoms: C_6  and  N_7 
REMARK    2  A    between atoms: N_7  and  C_8 
REMARK    3  A    between atoms: C_8  and  N_9 
REMARK    4  A    between atoms: N_9  and  C_10 
ROOT
HETATM    1  C   UNL     1      44.572 -12.887   7.805  1.00  0.00     0.257 C 
HETATM    2  N   UNL     1      43.427 -13.196   7.076  1.00  0.00    -0.299 N 
HETATM    3  O   UNL     1      45.713 -13.263   7.570  1.00  0.00    -0.267 OA
HETATM    4  H   UNL     1      42.545 -12.897   7.484  1.00  0.00     0.171 HD
ENDROOT
BRANCH   2   5
HETATM    5  C   UNL     1      43.239 -13.914   5.912  1.00  0.00     0.180 C 
HETATM    6  S   UNL     1      42.178 -13.566   4.669  1.00  0.00    -0.040 SA
BRANCH   5   7
HETATM    7  N   UNL     1      44.021 -15.036   5.764  1.00  0.00    -0.318 N 
HETATM    8  H   UNL     1      44.776 -14.922   5.100  1.00  0.00     0.170 HD
BRANCH   7   9
HETATM    9  C   UNL     1      43.910 -16.278   6.408  1.00  0.00     0.129 A 
HETATM   10  N   UNL     1      43.534 -16.322   7.706  1.00  0.00    -0.243 NA
HETATM   11  C   UNL     1      43.445 -17.542   8.284  1.00  0.00     0.119 A 
HETATM   12  C   UNL     1      43.718 -18.728   7.628  1.00  0.00     0.026 A 
HETATM   13  C   UNL     1      44.100 -18.673   6.289  1.00  0.00    -0.057 A 
HETATM   14  C   UNL     1      44.446 -19.921   5.532  1.00  0.00     0.048 C 
HETATM   15  C   UNL     1      44.199 -17.421   5.673  1.00  0.00     0.057 A 
ENDBRANCH   7   9
ENDBRANCH   5   7
ENDBRANCH   2   5
BRANCH   1  16
HETATM   16  C   UNL     1      44.316 -12.073   9.026  1.00  0.00     0.032 A 
HETATM   17  C   UNL     1      43.214 -11.214   9.034  1.00  0.00     0.017 A 
HETATM   18  C   UNL     1      42.975 -10.392  10.138  1.00  0.00     0.007 A 
HETATM   19  C   UNL     1      43.827 -10.432  11.249  1.00  0.00    -0.062 A 
HETATM   20  C   UNL     1      43.593  -9.539  12.432  1.00  0.00     0.048 C 
HETATM   21  C   UNL     1      44.910 -11.320  11.250  1.00  0.00     0.007 A 
HETATM   22  C   UNL     1      45.153 -12.142  10.147  1.00  0.00     0.017 A 
ENDBRANCH   1  16
TORSDOF 4
ENDMDL
MODEL 8
REMARK VINA RESULT:      -6.9      3.422      4.268
REMARK  4 active torsions:
REMARK  status: ('A' for Active; 'I' for Inactive)
REMARK    1  A    between atoms: C_5  and  C_6 
REMARK       I    between atoms: C_6  and  N_7 
REMARK    2  A    between atoms: N_7  and  C_8 
REMARK    3  A    between atoms: C_8  and  N_9 
REMARK    4  A    between atoms: N_9  and  C_10 
ROOT
HETATM    1  C   UNL     1      43.199 -17.439   2.896  1.00  0.00     0.257 C 
HETATM    2  N   UNL     1      41.815 -17.305   2.930  1.00  0.00    -0.299 N 
HETATM    3  O   UNL     1      44.001 -16.648   2.417  1.00  0.00    -0.267 OA
HETATM    4  H   UNL     1      41.296 -18.114   3.259  1.00  0.00     0.171 HD
ENDROOT
BRANCH   2   5
HETATM    5  C   UNL     1      40.976 -16.286   2.523  1.00  0.00     0.180 C 
HETATM    6  S   UNL     1      40.672 -15.790   0.957  1.00  0.00    -0.040 SA
BRANCH   5   7
HETATM    7  N   UNL     1      40.315 -15.614   3.525  1.00  0.00    -0.318 N 
HETATM    8  H   UNL     1      39.359 -15.917   3.657  1.00  0.00     0.170 HD
BRANCH   7   9
HETATM    9  C   UNL     1      40.793 -14.599   4.367  1.00  0.00     0.129 A 
HETATM   10  N   UNL     1      42.106 -14.276   4.341  1.00  0.00    -0.243 NA
HETATM   11  C   UNL     1      42.519 -13.293   5.174  1.00  0.00     0.119 A 
HETATM   12  C   UNL     1      41.683 -12.614   6.041  1.00  0.00     0.026 A 
HETATM   13  C   UNL     1      40.330 -12.950   6.058  1.00  0.00    -0.057 A 
HETATM   14  C   UNL     1      39.378 -12.277   7.001  1.00  0.00     0.048 C 
HETATM   15  C   UNL     1      39.882 -13.965   5.205  1.00  0.00     0.057 A 
ENDBRANCH   7   9
ENDBRANCH   5   7
ENDBRANCH   2   5
BRANCH   1  16
HETATM   16  C   UNL     1      43.700 -18.730   3.448  1.00  0.00     0.032 A 
HETATM   17  C   UNL     1      43.904 -18.829   4.827  1.00  0.00     0.017 A 
HETATM   18  C   UNL     1      44.427 -20.003   5.375  1.00  0.00     0.007 A 
HETATM   19  C   UNL     1      44.737 -21.092   4.552  1.00  0.00    -0.062 A 
HETATM   20  C   UNL     1      45.320 -22.350   5.126  1.00  0.00     0.048 C 
HETATM   21  C   UNL     1      44.498 -21.000   3.175  1.00  0.00     0.007 A 
HETATM   22  C   UNL     1      43.978 -19.826   2.623  1.00  0.00     0.017 A 
ENDBRANCH   1  16
TORSDOF 4
ENDMDL
MODEL 9
REMARK VINA RESULT:      -6.9      6.427      7.959
REMARK  4 active torsions:
REMARK  status: ('A' for Active; 'I' for Inactive)
REMARK    1  A    between atoms: C_5  and  C_6 
REMARK       I    between atoms: C_6  and  N_7 
REMARK    2  A    between atoms: N_7  and  C_8 
REMARK    3  A    between atoms: C_8  and  N_9 
REMARK    4  A    between atoms: N_9  and  C_10 
ROOT
HETATM    1  C   UNL     1      41.877 -15.528   1.454  1.00  0.00     0.257 C 
HETATM    2  N   UNL     1      41.856 -15.447   0.065  1.00  0.00    -0.299 N 
HETATM    3  O   UNL     1      41.455 -14.692   2.244  1.00  0.00    -0.267 OA
HETATM    4  H   UNL     1      42.358 -16.178  -0.431  1.00  0.00     0.171 HD
ENDROOT
BRANCH   2   5
HETATM    5  C   UNL     1      41.335 -14.502  -0.797  1.00  0.00     0.180 C 
HETATM    6  S   UNL     1      39.759 -13.950  -0.861  1.00  0.00    -0.040 SA
BRANCH   5   7
HETATM    7  N   UNL     1      42.221 -13.954  -1.695  1.00  0.00    -0.318 N 
HETATM    8  H   UNL     1      42.715 -14.640  -2.251  1.00  0.00     0.170 HD
BRANCH   7   9
HETATM    9  C   UNL     1      42.506 -12.601  -1.935  1.00  0.00     0.129 A 
HETATM   10  N   UNL     1      42.906 -11.814  -0.911  1.00  0.00    -0.243 NA
HETATM   11  C   UNL     1      43.165 -10.516  -1.192  1.00  0.00     0.119 A 
HETATM   12  C   UNL     1      43.041  -9.960  -2.452  1.00  0.00     0.026 A 
HETATM   13  C   UNL     1      42.633 -10.780  -3.502  1.00  0.00    -0.057 A 
HETATM   14  C   UNL     1      42.443 -10.229  -4.884  1.00  0.00     0.048 C 
HETATM   15  C   UNL     1      42.358 -12.125  -3.233  1.00  0.00     0.057 A 
ENDBRANCH   7   9
ENDBRANCH   5   7
ENDBRANCH   2   5
BRANCH   1  16
HETATM   16  C   UNL     1      42.558 -16.743   1.984  1.00  0.00     0.032 A 
HETATM   17  C   UNL     1      43.563 -17.332   1.211  1.00  0.00     0.017 A 
HETATM   18  C   UNL     1      44.184 -18.505   1.647  1.00  0.00     0.007 A 
HETATM   19  C   UNL     1      43.816 -19.091   2.864  1.00  0.00    -0.062 A 
HETATM   20  C   UNL     1      44.461 -20.363   3.332  1.00  0.00     0.048 C 
HETATM   21  C   UNL     1      42.833 -18.478   3.650  1.00  0.00     0.007 A 
HETATM   22  C   UNL     1      42.207 -17.306   3.217  1.00  0.00     0.017 A 
ENDBRANCH   1  16
TORSDOF 4
ENDMDL
MODEL 10
REMARK VINA RESULT:      -6.8      5.248      7.543
REMARK  4 active torsions:
REMARK  status: ('A' for Active; 'I' for Inactive)
REMARK    1  A    between atoms: C_5  and  C_6 
REMARK       I    between atoms: C_6  and  N_7 
REMARK    2  A    between atoms: N_7  and  C_8 
REMARK    3  A    between atoms: C_8  and  N_9 
REMARK    4  A    between atoms: N_9  and  C_10 
ROOT
HETATM    1  C   UNL     1      41.262 -16.767   2.245  1.00  0.00     0.257 C 
HETATM    2  N   UNL     1      41.761 -15.469   2.218  1.00  0.00    -0.299 N 
HETATM    3  O   UNL     1      40.123 -17.121   1.964  1.00  0.00    -0.267 OA
HETATM    4  H   UNL     1      42.695 -15.343   2.598  1.00  0.00     0.171 HD
ENDROOT
BRANCH   2   5
HETATM    5  C   UNL     1      41.194 -14.269   1.835  1.00  0.00     0.180 C 
HETATM    6  S   UNL     1      39.874 -13.509   2.522  1.00  0.00    -0.040 SA
BRANCH   5   7
HETATM    7  N   UNL     1      41.793 -13.632   0.774  1.00  0.00    -0.318 N 
HETATM    8  H   UNL     1      42.439 -12.903   1.047  1.00  0.00     0.170 HD
BRANCH   7   9
HETATM    9  C   UNL     1      41.632 -13.869  -0.600  1.00  0.00     0.129 A 
HETATM   10  N   UNL     1      41.125 -15.051  -1.016  1.00  0.00    -0.243 NA
HETATM   11  C   UNL     1      40.993 -15.234  -2.350  1.00  0.00     0.119 A 
HETATM   12  C   UNL     1      41.346 -14.290  -3.297  1.00  0.00     0.026 A 
HETATM   13  C   UNL     1      41.863 -13.072  -2.858  1.00  0.00    -0.057 A 
HETATM   14  C   UNL     1      42.299 -12.021  -3.836  1.00  0.00     0.048 C 
HETATM   15  C   UNL     1      42.009 -12.863  -1.483  1.00  0.00     0.057 A 
ENDBRANCH   7   9
ENDBRANCH   5   7
ENDBRANCH   2   5
BRANCH   1  16
HETATM   16  C   UNL     1      42.232 -17.783   2.742  1.00  0.00     0.032 A 
HETATM   17  C   UNL     1      42.440 -17.887   4.120  1.00  0.00     0.017 A 
HETATM   18  C   UNL     1      43.384 -18.786   4.620  1.00  0.00     0.007 A 
HETATM   19  C   UNL     1      44.119 -19.600   3.749  1.00  0.00    -0.062 A 
HETATM   20  C   UNL     1      45.151 -20.554   4.273  1.00  0.00     0.048 C 
HETATM   21  C   UNL     1      43.882 -19.516   2.371  1.00  0.00     0.007 A 
HETATM   22  C   UNL     1      42.941 -18.616   1.866  1.00  0.00     0.017 A 
ENDBRANCH   1  16
TORSDOF 4
ENDMDL
