MODEL 1
REMARK VINA RESULT:      -8.9      0.000      0.000
REMARK  6 active torsions:
REMARK  status: ('A' for Active; 'I' for Inactive)
REMARK    1  A    between atoms: C_3  and  O_4 
REMARK    2  A    between atoms: O_4  and  C_5 
REMARK    3  A    between atoms: C_5  and  C_6 
REMARK       I    between atoms: C_6  and  N_7 
REMARK    4  A    between atoms: N_7  and  C_8 
REMARK    5  A    between atoms: C_15  and  C_16 
REMARK       I    between atoms: C_16  and  N_17 
REMARK    6  A    between atoms: C_23  and  C_24 
ROOT
HETATM    1  C   UNL     1      41.469 -15.335   3.437  1.00  0.00     0.246 C 
HETATM    2  N   UNL     1      40.804 -15.885   2.349  1.00  0.00    -0.325 N 
HETATM    3  O   UNL     1      41.500 -14.150   3.749  1.00  0.00    -0.271 OA
HETATM    4  H   UNL     1      40.804 -16.895   2.287  1.00  0.00     0.169 HD
ENDROOT
BRANCH   2   5
HETATM    5  C   UNL     1      40.135 -15.197   1.312  1.00  0.00     0.035 A 
HETATM    6  C   UNL     1      40.656 -15.035   0.021  1.00  0.00     0.046 A 
HETATM    7  C   UNL     1      39.898 -14.360  -0.961  1.00  0.00     0.030 A 
HETATM    8  C   UNL     1      38.642 -13.874  -0.621  1.00  0.00     0.063 A 
HETATM    9  C   UNL     1      40.073 -14.004  -2.333  1.00  0.00     0.156 A 
HETATM   10  N   UNL     1      38.159 -13.290  -1.760  1.00  0.00    -0.277 N 
HETATM   11  C   UNL     1      38.091 -14.012   0.653  1.00  0.00     0.034 A 
HETATM   12  H   UNL     1      37.261 -12.835  -1.882  1.00  0.00     0.189 HD
HETATM   13  N   UNL     1      38.993 -13.345  -2.810  1.00  0.00    -0.168 NA
HETATM   14  C   UNL     1      38.866 -14.679   1.612  1.00  0.00     0.032 A 
BRANCH   9  15
HETATM   15  C   UNL     1      41.238 -14.275  -3.189  1.00  0.00     0.270 C 
HETATM   16  N   UNL     1      41.938 -13.156  -3.549  1.00  0.00    -0.365 N 
HETATM   17  H   UNL     1      41.622 -12.255  -3.209  1.00  0.00     0.159 HD
HETATM   18  H   UNL     1      42.759 -13.247  -4.125  1.00  0.00     0.159 HD
HETATM   19  O   UNL     1      41.586 -15.388  -3.567  1.00  0.00    -0.266 OA
ENDBRANCH   9  15
ENDBRANCH   2   5
BRANCH   1  20
HETATM   20  C   UNL     1      42.253 -16.375   4.237  1.00  0.00     0.278 C 
BRANCH  20  21
HETATM   21  O   UNL     1      43.506 -16.635   3.615  1.00  0.00    -0.342 OA
BRANCH  21  22
HETATM   22  C   UNL     1      43.781 -17.967   3.420  1.00  0.00     0.075 A 
HETATM   23  C   UNL     1      43.769 -18.432   2.097  1.00  0.00    -0.029 A 
HETATM   24  C   UNL     1      43.440 -17.519   0.950  1.00  0.00     0.051 C 
HETATM   25  C   UNL     1      44.086 -19.776   1.844  1.00  0.00     0.010 A 
HETATM   26  C   UNL     1      44.400 -20.644   2.891  1.00  0.00     0.008 A 
HETATM   27  C   UNL     1      44.420 -20.189   4.215  1.00  0.00    -0.052 A 
HETATM   28  C   UNL     1      44.111 -18.841   4.464  1.00  0.00     0.044 A 
BRANCH  27  29
HETATM   29  C   UNL     1      44.762 -21.148   5.342  1.00  0.00     0.010 C 
HETATM   30  C   UNL     1      43.834 -20.974   6.547  1.00  0.00     0.015 C 
HETATM   31  C   UNL     1      44.752 -22.598   4.851  1.00  0.00     0.015 C 
ENDBRANCH  27  29
ENDBRANCH  21  22
ENDBRANCH  20  21
ENDBRANCH   1  20
TORSDOF 6
ENDMDL
MODEL 2
REMARK VINA RESULT:      -8.7      1.219      2.148
REMARK  6 active torsions:
REMARK  status: ('A' for Active; 'I' for Inactive)
REMARK    1  A    between atoms: C_3  and  O_4 
REMARK    2  A    between atoms: O_4  and  C_5 
REMARK    3  A    between atoms: C_5  and  C_6 
REMARK       I    between atoms: C_6  and  N_7 
REMARK    4  A    between atoms: N_7  and  C_8 
REMARK    5  A    between atoms: C_15  and  C_16 
REMARK       I    between atoms: C_16  and  N_17 
REMARK    6  A    between atoms: C_23  and  C_24 
ROOT
HETATM    1  C   UNL     1      40.776 -16.578   2.585  1.00  0.00     0.246 C 
HETATM    2  N   UNL     1      40.569 -15.246   2.250  1.00  0.00    -0.325 N 
HETATM    3  O   UNL     1      40.491 -17.554   1.902  1.00  0.00    -0.271 OA
HETATM    4  H   UNL     1      40.947 -14.558   2.888  1.00  0.00     0.169 HD
ENDROOT
BRANCH   2   5
HETATM    5  C   UNL     1      39.883 -14.740   1.124  1.00  0.00     0.035 A 
HETATM    6  C   UNL     1      40.449 -14.641  -0.155  1.00  0.00     0.046 A 
HETATM    7  C   UNL     1      39.674 -14.152  -1.229  1.00  0.00     0.030 A 
HETATM    8  C   UNL     1      38.356 -13.784  -0.991  1.00  0.00     0.063 A 
HETATM    9  C   UNL     1      39.880 -13.909  -2.621  1.00  0.00     0.156 A 
HETATM   10  N   UNL     1      37.871 -13.369  -2.201  1.00  0.00    -0.277 N 
HETATM   11  C   UNL     1      37.758 -13.865   0.267  1.00  0.00     0.034 A 
HETATM   12  H   UNL     1      36.937 -13.033  -2.405  1.00  0.00     0.189 HD
HETATM   13  N   UNL     1      38.760 -13.426  -3.206  1.00  0.00    -0.168 NA
HETATM   14  C   UNL     1      38.551 -14.346   1.318  1.00  0.00     0.032 A 
BRANCH   9  15
HETATM   15  C   UNL     1      41.111 -14.124  -3.397  1.00  0.00     0.270 C 
HETATM   16  N   UNL     1      41.716 -12.970  -3.813  1.00  0.00    -0.365 N 
HETATM   17  H   UNL     1      41.296 -12.083  -3.562  1.00  0.00     0.159 HD
HETATM   18  H   UNL     1      42.572 -13.019  -4.342  1.00  0.00     0.159 HD
HETATM   19  O   UNL     1      41.586 -15.221  -3.668  1.00  0.00    -0.266 OA
ENDBRANCH   9  15
ENDBRANCH   2   5
BRANCH   1  20
HETATM   20  C   UNL     1      41.376 -16.748   3.981  1.00  0.00     0.278 C 
BRANCH  20  21
HETATM   21  O   UNL     1      42.785 -16.554   3.939  1.00  0.00    -0.342 OA
BRANCH  21  22
HETATM   22  C   UNL     1      43.523 -17.677   4.226  1.00  0.00     0.075 A 
HETATM   23  C   UNL     1      44.148 -17.725   5.482  1.00  0.00    -0.029 A 
HETATM   24  C   UNL     1      44.037 -16.584   6.453  1.00  0.00     0.051 C 
HETATM   25  C   UNL     1      44.877 -18.870   5.837  1.00  0.00     0.010 A 
HETATM   26  C   UNL     1      44.990 -19.946   4.955  1.00  0.00     0.008 A 
HETATM   27  C   UNL     1      44.367 -19.911   3.702  1.00  0.00    -0.052 A 
HETATM   28  C   UNL     1      43.630 -18.767   3.352  1.00  0.00     0.044 A 
BRANCH  27  29
HETATM   29  C   UNL     1      44.503 -21.090   2.754  1.00  0.00     0.010 C 
HETATM   30  C   UNL     1      44.568 -22.425   3.502  1.00  0.00     0.015 C 
HETATM   31  C   UNL     1      43.372 -21.099   1.722  1.00  0.00     0.015 C 
ENDBRANCH  27  29
ENDBRANCH  21  22
ENDBRANCH  20  21
ENDBRANCH   1  20
TORSDOF 6
ENDMDL
MODEL 3
REMARK VINA RESULT:      -8.6      2.915      5.037
REMARK  6 active torsions:
REMARK  status: ('A' for Active; 'I' for Inactive)
REMARK    1  A    between atoms: C_3  and  O_4 
REMARK    2  A    between atoms: O_4  and  C_5 
REMARK    3  A    between atoms: C_5  and  C_6 
REMARK       I    between atoms: C_6  and  N_7 
REMARK    4  A    between atoms: N_7  and  C_8 
REMARK    5  A    between atoms: C_15  and  C_16 
REMARK       I    between atoms: C_16  and  N_17 
REMARK    6  A    between atoms: C_23  and  C_24 
ROOT
HETATM    1  C   UNL     1      41.102 -16.183   1.440  1.00  0.00     0.246 C 
HETATM    2  N   UNL     1      41.257 -14.803   1.473  1.00  0.00    -0.325 N 
HETATM    3  O   UNL     1      40.131 -16.817   1.836  1.00  0.00    -0.271 OA
HETATM    4  H   UNL     1      42.083 -14.434   1.019  1.00  0.00     0.169 HD
ENDROOT
BRANCH   2   5
HETATM    5  C   UNL     1      40.398 -13.856   2.073  1.00  0.00     0.035 A 
HETATM    6  C   UNL     1      40.468 -13.486   3.424  1.00  0.00     0.046 A 
HETATM    7  C   UNL     1      39.588 -12.504   3.928  1.00  0.00     0.030 A 
HETATM    8  C   UNL     1      38.671 -11.919   3.064  1.00  0.00     0.063 A 
HETATM    9  C   UNL     1      39.354 -11.882   5.191  1.00  0.00     0.156 A 
HETATM   10  N   UNL     1      37.980 -11.017   3.825  1.00  0.00    -0.277 N 
HETATM   11  C   UNL     1      38.568 -12.262   1.715  1.00  0.00     0.034 A 
HETATM   12  H   UNL     1      37.233 -10.403   3.521  1.00  0.00     0.189 HD
HETATM   13  N   UNL     1      38.359 -10.969   5.112  1.00  0.00    -0.168 NA
HETATM   14  C   UNL     1      39.448 -13.245   1.242  1.00  0.00     0.032 A 
BRANCH   9  15
HETATM   15  C   UNL     1      40.051 -12.138   6.461  1.00  0.00     0.270 C 
HETATM   16  N   UNL     1      39.330 -12.886   7.352  1.00  0.00    -0.365 N 
HETATM   17  H   UNL     1      38.406 -13.204   7.083  1.00  0.00     0.159 HD
HETATM   18  H   UNL     1      39.733 -13.121   8.244  1.00  0.00     0.159 HD
HETATM   19  O   UNL     1      41.176 -11.738   6.736  1.00  0.00    -0.266 OA
ENDBRANCH   9  15
ENDBRANCH   2   5
BRANCH   1  20
HETATM   20  C   UNL     1      42.333 -16.902   0.886  1.00  0.00     0.278 C 
BRANCH  20  21
HETATM   21  O   UNL     1      43.457 -16.673   1.728  1.00  0.00    -0.342 OA
BRANCH  21  22
HETATM   22  C   UNL     1      43.730 -17.696   2.604  1.00  0.00     0.075 A 
HETATM   23  C   UNL     1      43.616 -17.410   3.972  1.00  0.00    -0.029 A 
HETATM   24  C   UNL     1      43.242 -16.037   4.455  1.00  0.00     0.051 C 
HETATM   25  C   UNL     1      43.842 -18.434   4.905  1.00  0.00     0.010 A 
HETATM   26  C   UNL     1      44.186 -19.719   4.482  1.00  0.00     0.008 A 
HETATM   27  C   UNL     1      44.298 -20.017   3.119  1.00  0.00    -0.052 A 
HETATM   28  C   UNL     1      44.062 -18.992   2.187  1.00  0.00     0.044 A 
BRANCH  27  29
HETATM   29  C   UNL     1      44.674 -21.421   2.678  1.00  0.00     0.010 C 
HETATM   30  C   UNL     1      44.596 -22.427   3.831  1.00  0.00     0.015 C 
HETATM   31  C   UNL     1      43.812 -21.877   1.499  1.00  0.00     0.015 C 
ENDBRANCH  27  29
ENDBRANCH  21  22
ENDBRANCH  20  21
ENDBRANCH   1  20
TORSDOF 6
ENDMDL
MODEL 4
REMARK VINA RESULT:      -8.5      2.020      2.760
REMARK  6 active torsions:
REMARK  status: ('A' for Active; 'I' for Inactive)
REMARK    1  A    between atoms: C_3  and  O_4 
REMARK    2  A    between atoms: O_4  and  C_5 
REMARK    3  A    between atoms: C_5  and  C_6 
REMARK       I    between atoms: C_6  and  N_7 
REMARK    4  A    between atoms: N_7  and  C_8 
REMARK    5  A    between atoms: C_15  and  C_16 
REMARK       I    between atoms: C_16  and  N_17 
REMARK    6  A    between atoms: C_23  and  C_24 
ROOT
HETATM    1  C   UNL     1      42.378 -17.250   0.973  1.00  0.00     0.246 C 
HETATM    2  N   UNL     1      42.535 -16.076   0.248  1.00  0.00    -0.325 N 
HETATM    3  O   UNL     1      41.316 -17.775   1.289  1.00  0.00    -0.271 OA
HETATM    4  H   UNL     1      43.483 -15.830  -0.008  1.00  0.00     0.169 HD
ENDROOT
BRANCH   2   5
HETATM    5  C   UNL     1      41.525 -15.179  -0.166  1.00  0.00     0.035 A 
HETATM    6  C   UNL     1      40.778 -15.336  -1.342  1.00  0.00     0.046 A 
HETATM    7  C   UNL     1      39.765 -14.405  -1.658  1.00  0.00     0.030 A 
HETATM    8  C   UNL     1      39.527 -13.351  -0.784  1.00  0.00     0.063 A 
HETATM    9  C   UNL     1      38.826 -14.225  -2.718  1.00  0.00     0.156 A 
HETATM   10  N   UNL     1      38.502 -12.640  -1.344  1.00  0.00    -0.277 N 
HETATM   11  C   UNL     1      40.251 -13.160   0.393  1.00  0.00     0.034 A 
HETATM   12  H   UNL     1      38.061 -11.805  -0.976  1.00  0.00     0.189 HD
HETATM   13  N   UNL     1      38.055 -13.132  -2.511  1.00  0.00    -0.168 NA
HETATM   14  C   UNL     1      41.256 -14.093   0.680  1.00  0.00     0.032 A 
BRANCH   9  15
HETATM   15  C   UNL     1      38.651 -15.062  -3.915  1.00  0.00     0.270 C 
HETATM   16  N   UNL     1      37.479 -14.841  -4.584  1.00  0.00    -0.365 N 
HETATM   17  H   UNL     1      36.841 -14.139  -4.228  1.00  0.00     0.159 HD
HETATM   18  H   UNL     1      37.279 -15.361  -5.423  1.00  0.00     0.159 HD
HETATM   19  O   UNL     1      39.459 -15.895  -4.311  1.00  0.00    -0.266 OA
ENDBRANCH   9  15
ENDBRANCH   2   5
BRANCH   1  20
HETATM   20  C   UNL     1      43.711 -17.851   1.419  1.00  0.00     0.278 C 
BRANCH  20  21
HETATM   21  O   UNL     1      43.607 -19.267   1.513  1.00  0.00    -0.342 OA
BRANCH  21  22
HETATM   22  C   UNL     1      43.909 -19.780   2.752  1.00  0.00     0.075 A 
HETATM   23  C   UNL     1      44.327 -21.118   2.802  1.00  0.00    -0.029 A 
HETATM   24  C   UNL     1      44.411 -21.958   1.559  1.00  0.00     0.051 C 
HETATM   25  C   UNL     1      44.688 -21.673   4.039  1.00  0.00     0.010 A 
HETATM   26  C   UNL     1      44.624 -20.913   5.208  1.00  0.00     0.008 A 
HETATM   27  C   UNL     1      44.213 -19.575   5.168  1.00  0.00    -0.052 A 
HETATM   28  C   UNL     1      43.861 -19.019   3.927  1.00  0.00     0.044 A 
BRANCH  27  29
HETATM   29  C   UNL     1      44.148 -18.763   6.451  1.00  0.00     0.010 C 
HETATM   30  C   UNL     1      43.850 -19.639   7.672  1.00  0.00     0.015 C 
HETATM   31  C   UNL     1      45.435 -17.960   6.658  1.00  0.00     0.015 C 
ENDBRANCH  27  29
ENDBRANCH  21  22
ENDBRANCH  20  21
ENDBRANCH   1  20
TORSDOF 6
ENDMDL
MODEL 5
REMARK VINA RESULT:      -8.5      1.760      3.451
REMARK  6 active torsions:
REMARK  status: ('A' for Active; 'I' for Inactive)
REMARK    1  A    between atoms: C_3  and  O_4 
REMARK    2  A    between atoms: O_4  and  C_5 
REMARK    3  A    between atoms: C_5  and  C_6 
REMARK       I    between atoms: C_6  and  N_7 
REMARK    4  A    between atoms: N_7  and  C_8 
REMARK    5  A    between atoms: C_15  and  C_16 
REMARK       I    between atoms: C_16  and  N_17 
REMARK    6  A    between atoms: C_23  and  C_24 
ROOT
HETATM    1  C   UNL     1      43.413 -18.430   1.821  1.00  0.00     0.246 C 
HETATM    2  N   UNL     1      42.073 -18.087   1.942  1.00  0.00    -0.325 N 
HETATM    3  O   UNL     1      44.310 -17.720   1.380  1.00  0.00    -0.271 OA
HETATM    4  H   UNL     1      41.479 -18.757   2.414  1.00  0.00     0.169 HD
ENDROOT
BRANCH   2   5
HETATM    5  C   UNL     1      41.440 -16.914   1.474  1.00  0.00     0.035 A 
HETATM    6  C   UNL     1      41.569 -16.427   0.166  1.00  0.00     0.046 A 
HETATM    7  C   UNL     1      40.870 -15.262  -0.221  1.00  0.00     0.030 A 
HETATM    8  C   UNL     1      40.061 -14.626   0.712  1.00  0.00     0.063 A 
HETATM    9  C   UNL     1      40.746 -14.483  -1.410  1.00  0.00     0.156 A 
HETATM   10  N   UNL     1      39.520 -13.556   0.053  1.00  0.00    -0.277 N 
HETATM   11  C   UNL     1      39.910 -15.077   2.024  1.00  0.00     0.034 A 
HETATM   12  H   UNL     1      38.873 -12.870   0.425  1.00  0.00     0.189 HD
HETATM   13  N   UNL     1      39.912 -13.434  -1.225  1.00  0.00    -0.168 NA
HETATM   14  C   UNL     1      40.620 -16.231   2.384  1.00  0.00     0.032 A 
BRANCH   9  15
HETATM   15  C   UNL     1      41.402 -14.712  -2.707  1.00  0.00     0.270 C 
HETATM   16  N   UNL     1      42.441 -13.861  -2.965  1.00  0.00    -0.365 N 
HETATM   17  H   UNL     1      42.681 -13.163  -2.270  1.00  0.00     0.159 HD
HETATM   18  H   UNL     1      42.958 -13.951  -3.825  1.00  0.00     0.159 HD
HETATM   19  O   UNL     1      41.079 -15.579  -3.512  1.00  0.00    -0.266 OA
ENDBRANCH   9  15
ENDBRANCH   2   5
BRANCH   1  20
HETATM   20  C   UNL     1      43.696 -19.867   2.259  1.00  0.00     0.278 C 
BRANCH  20  21
HETATM   21  O   UNL     1      44.751 -19.893   3.213  1.00  0.00    -0.342 OA
BRANCH  21  22
HETATM   22  C   UNL     1      44.338 -19.810   4.521  1.00  0.00     0.075 A 
HETATM   23  C   UNL     1      44.372 -20.992   5.276  1.00  0.00    -0.029 A 
HETATM   24  C   UNL     1      44.810 -22.294   4.668  1.00  0.00     0.051 C 
HETATM   25  C   UNL     1      44.001 -20.949   6.628  1.00  0.00     0.010 A 
HETATM   26  C   UNL     1      43.595 -19.750   7.218  1.00  0.00     0.008 A 
HETATM   27  C   UNL     1      43.563 -18.564   6.476  1.00  0.00    -0.052 A 
HETATM   28  C   UNL     1      43.944 -18.608   5.124  1.00  0.00     0.044 A 
BRANCH  27  29
HETATM   29  C   UNL     1      43.117 -17.269   7.134  1.00  0.00     0.010 C 
HETATM   30  C   UNL     1      44.160 -16.158   6.983  1.00  0.00     0.015 C 
HETATM   31  C   UNL     1      41.758 -16.818   6.594  1.00  0.00     0.015 C 
ENDBRANCH  27  29
ENDBRANCH  21  22
ENDBRANCH  20  21
ENDBRANCH   1  20
TORSDOF 6
ENDMDL
MODEL 6
REMARK VINA RESULT:      -8.4      2.080      3.379
REMARK  6 active torsions:
REMARK  status: ('A' for Active; 'I' for Inactive)
REMARK    1  A    between atoms: C_3  and  O_4 
REMARK    2  A    between atoms: O_4  and  C_5 
REMARK    3  A    between atoms: C_5  and  C_6 
REMARK       I    between atoms: C_6  and  N_7 
REMARK    4  A    between atoms: N_7  and  C_8 
REMARK    5  A    between atoms: C_15  and  C_16 
REMARK       I    between atoms: C_16  and  N_17 
REMARK    6  A    between atoms: C_23  and  C_24 
ROOT
HETATM    1  C   UNL     1      41.884 -16.594   0.606  1.00  0.00     0.246 C 
HETATM    2  N   UNL     1      41.969 -15.616  -0.377  1.00  0.00    -0.325 N 
HETATM    3  O   UNL     1      40.937 -17.345   0.806  1.00  0.00    -0.271 OA
HETATM    4  H   UNL     1      42.860 -15.145  -0.465  1.00  0.00     0.169 HD
ENDROOT
BRANCH   2   5
HETATM    5  C   UNL     1      40.952 -15.197  -1.263  1.00  0.00     0.035 A 
HETATM    6  C   UNL     1      39.972 -14.250  -0.934  1.00  0.00     0.046 A 
HETATM    7  C   UNL     1      39.014 -13.868  -1.898  1.00  0.00     0.030 A 
HETATM    8  C   UNL     1      39.071 -14.441  -3.163  1.00  0.00     0.063 A 
HETATM    9  C   UNL     1      37.902 -12.974  -1.947  1.00  0.00     0.156 A 
HETATM   10  N   UNL     1      38.041 -13.877  -3.863  1.00  0.00    -0.277 N 
HETATM   11  C   UNL     1      40.027 -15.389  -3.527  1.00  0.00     0.034 A 
HETATM   12  H   UNL     1      37.783 -14.057  -4.827  1.00  0.00     0.189 HD
HETATM   13  N   UNL     1      37.312 -12.992  -3.164  1.00  0.00    -0.168 NA
HETATM   14  C   UNL     1      40.962 -15.757  -2.549  1.00  0.00     0.032 A 
BRANCH   9  15
HETATM   15  C   UNL     1      37.393 -12.114  -0.868  1.00  0.00     0.270 C 
HETATM   16  N   UNL     1      37.366 -10.783  -1.181  1.00  0.00    -0.365 N 
HETATM   17  H   UNL     1      37.680 -10.494  -2.100  1.00  0.00     0.159 HD
HETATM   18  H   UNL     1      37.021 -10.120  -0.507  1.00  0.00     0.159 HD
HETATM   19  O   UNL     1      37.015 -12.514   0.227  1.00  0.00    -0.266 OA
ENDBRANCH   9  15
ENDBRANCH   2   5
BRANCH   1  20
HETATM   20  C   UNL     1      43.116 -16.630   1.510  1.00  0.00     0.278 C 
BRANCH  20  21
HETATM   21  O   UNL     1      42.736 -16.915   2.851  1.00  0.00    -0.342 OA
BRANCH  21  22
HETATM   22  C   UNL     1      43.436 -17.943   3.436  1.00  0.00     0.075 A 
HETATM   23  C   UNL     1      43.854 -17.755   4.761  1.00  0.00    -0.029 A 
HETATM   24  C   UNL     1      43.574 -16.475   5.495  1.00  0.00     0.051 C 
HETATM   25  C   UNL     1      44.535 -18.793   5.415  1.00  0.00     0.010 A 
HETATM   26  C   UNL     1      44.804 -19.995   4.758  1.00  0.00     0.008 A 
HETATM   27  C   UNL     1      44.387 -20.195   3.437  1.00  0.00    -0.052 A 
HETATM   28  C   UNL     1      43.697 -19.157   2.787  1.00  0.00     0.044 A 
BRANCH  27  29
HETATM   29  C   UNL     1      44.689 -21.509   2.736  1.00  0.00     0.010 C 
HETATM   30  C   UNL     1      44.631 -22.700   3.698  1.00  0.00     0.015 C 
HETATM   31  C   UNL     1      43.753 -21.725   1.545  1.00  0.00     0.015 C 
ENDBRANCH  27  29
ENDBRANCH  21  22
ENDBRANCH  20  21
ENDBRANCH   1  20
TORSDOF 6
ENDMDL
MODEL 7
REMARK VINA RESULT:      -8.2      1.425      2.606
REMARK  6 active torsions:
REMARK  status: ('A' for Active; 'I' for Inactive)
REMARK    1  A    between atoms: C_3  and  O_4 
REMARK    2  A    between atoms: O_4  and  C_5 
REMARK    3  A    between atoms: C_5  and  C_6 
REMARK       I    between atoms: C_6  and  N_7 
REMARK    4  A    between atoms: N_7  and  C_8 
REMARK    5  A    between atoms: C_15  and  C_16 
REMARK       I    between atoms: C_16  and  N_17 
REMARK    6  A    between atoms: C_23  and  C_24 
ROOT
HETATM    1  C   UNL     1      42.253 -14.186   3.973  1.00  0.00     0.246 C 
HETATM    2  N   UNL     1      41.684 -15.086   3.080  1.00  0.00    -0.325 N 
HETATM    3  O   UNL     1      42.007 -12.989   4.056  1.00  0.00    -0.271 OA
HETATM    4  H   UNL     1      41.931 -16.059   3.206  1.00  0.00     0.169 HD
ENDROOT
BRANCH   2   5
HETATM    5  C   UNL     1      40.808 -14.798   2.010  1.00  0.00     0.035 A 
HETATM    6  C   UNL     1      41.208 -14.741   0.668  1.00  0.00     0.046 A 
HETATM    7  C   UNL     1      40.253 -14.478  -0.338  1.00  0.00     0.030 A 
HETATM    8  C   UNL     1      38.927 -14.287   0.031  1.00  0.00     0.063 A 
HETATM    9  C   UNL     1      40.264 -14.344  -1.759  1.00  0.00     0.156 A 
HETATM   10  N   UNL     1      38.253 -14.067  -1.139  1.00  0.00    -0.277 N 
HETATM   11  C   UNL     1      38.491 -14.332   1.355  1.00  0.00     0.034 A 
HETATM   12  H   UNL     1      37.261 -13.894  -1.252  1.00  0.00     0.189 HD
HETATM   13  N   UNL     1      39.025 -14.089  -2.238  1.00  0.00    -0.168 NA
HETATM   14  C   UNL     1      39.460 -14.586   2.335  1.00  0.00     0.032 A 
BRANCH   9  15
HETATM   15  C   UNL     1      41.420 -14.449  -2.662  1.00  0.00     0.270 C 
HETATM   16  N   UNL     1      42.379 -13.496  -2.454  1.00  0.00    -0.365 N 
HETATM   17  H   UNL     1      42.236 -12.815  -1.718  1.00  0.00     0.159 HD
HETATM   18  H   UNL     1      43.213 -13.498  -3.019  1.00  0.00     0.159 HD
HETATM   19  O   UNL     1      41.553 -15.301  -3.535  1.00  0.00    -0.266 OA
ENDBRANCH   9  15
ENDBRANCH   2   5
BRANCH   1  20
HETATM   20  C   UNL     1      43.314 -14.832   4.864  1.00  0.00     0.278 C 
BRANCH  20  21
HETATM   21  O   UNL     1      42.733 -15.862   5.656  1.00  0.00    -0.342 OA
BRANCH  21  22
HETATM   22  C   UNL     1      43.280 -17.108   5.460  1.00  0.00     0.075 A 
HETATM   23  C   UNL     1      43.502 -17.892   6.601  1.00  0.00    -0.029 A 
HETATM   24  C   UNL     1      43.185 -17.377   7.977  1.00  0.00     0.051 C 
HETATM   25  C   UNL     1      44.018 -19.188   6.448  1.00  0.00     0.010 A 
HETATM   26  C   UNL     1      44.317 -19.692   5.181  1.00  0.00     0.008 A 
HETATM   27  C   UNL     1      44.093 -18.920   4.035  1.00  0.00    -0.052 A 
HETATM   28  C   UNL     1      43.568 -17.625   4.190  1.00  0.00     0.044 A 
BRANCH  27  29
HETATM   29  C   UNL     1      44.425 -19.484   2.664  1.00  0.00     0.010 C 
HETATM   30  C   UNL     1      44.164 -20.991   2.583  1.00  0.00     0.015 C 
HETATM   31  C   UNL     1      43.664 -18.739   1.565  1.00  0.00     0.015 C 
ENDBRANCH  27  29
ENDBRANCH  21  22
ENDBRANCH  20  21
ENDBRANCH   1  20
TORSDOF 6
ENDMDL
MODEL 8
REMARK VINA RESULT:      -8.1      2.203      3.263
REMARK  6 active torsions:
REMARK  status: ('A' for Active; 'I' for Inactive)
REMARK    1  A    between atoms: C_3  and  O_4 
REMARK    2  A    between atoms: O_4  and  C_5 
REMARK    3  A    between atoms: C_5  and  C_6 
REMARK       I    between atoms: C_6  and  N_7 
REMARK    4  A    between atoms: N_7  and  C_8 
REMARK    5  A    between atoms: C_15  and  C_16 
REMARK       I    between atoms: C_16  and  N_17 
REMARK    6  A    between atoms: C_23  and  C_24 
ROOT
HETATM    1  C   UNL     1      41.081 -16.042   0.784  1.00  0.00     0.246 C 
HETATM    2  N   UNL     1      41.387 -16.056  -0.570  1.00  0.00    -0.325 N 
HETATM    3  O   UNL     1      40.461 -15.171   1.382  1.00  0.00    -0.271 OA
HETATM    4  H   UNL     1      41.827 -16.898  -0.922  1.00  0.00     0.169 HD
ENDROOT
BRANCH   2   5
HETATM    5  C   UNL     1      41.164 -15.028  -1.513  1.00  0.00     0.035 A 
HETATM    6  C   UNL     1      41.741 -13.753  -1.427  1.00  0.00     0.046 A 
HETATM    7  C   UNL     1      41.486 -12.799  -2.436  1.00  0.00     0.030 A 
HETATM    8  C   UNL     1      40.668 -13.153  -3.502  1.00  0.00     0.063 A 
HETATM    9  C   UNL     1      41.869 -11.449  -2.697  1.00  0.00     0.156 A 
HETATM   10  N   UNL     1      40.618 -12.047  -4.304  1.00  0.00    -0.277 N 
HETATM   11  C   UNL     1      40.073 -14.410  -3.621  1.00  0.00     0.034 A 
HETATM   12  H   UNL     1      40.115 -11.945  -5.178  1.00  0.00     0.189 HD
HETATM   13  N   UNL     1      41.325 -10.999  -3.851  1.00  0.00    -0.168 NA
HETATM   14  C   UNL     1      40.336 -15.336  -2.602  1.00  0.00     0.032 A 
BRANCH   9  15
HETATM   15  C   UNL     1      42.732 -10.585  -1.876  1.00  0.00     0.270 C 
HETATM   16  N   UNL     1      42.510  -9.247  -2.051  1.00  0.00    -0.365 N 
HETATM   17  H   UNL     1      41.792  -8.955  -2.703  1.00  0.00     0.159 HD
HETATM   18  H   UNL     1      43.047  -8.580  -1.521  1.00  0.00     0.159 HD
HETATM   19  O   UNL     1      43.584 -10.989  -1.092  1.00  0.00    -0.266 OA
ENDBRANCH   9  15
ENDBRANCH   2   5
BRANCH   1  20
HETATM   20  C   UNL     1      41.657 -17.246   1.532  1.00  0.00     0.278 C 
BRANCH  20  21
HETATM   21  O   UNL     1      42.902 -16.905   2.130  1.00  0.00    -0.342 OA
BRANCH  21  22
HETATM   22  C   UNL     1      43.456 -17.899   2.900  1.00  0.00     0.075 A 
HETATM   23  C   UNL     1      43.635 -17.624   4.263  1.00  0.00    -0.029 A 
HETATM   24  C   UNL     1      43.266 -16.289   4.846  1.00  0.00     0.051 C 
HETATM   25  C   UNL     1      44.157 -18.623   5.098  1.00  0.00     0.010 A 
HETATM   26  C   UNL     1      44.503 -19.874   4.583  1.00  0.00     0.008 A 
HETATM   27  C   UNL     1      44.324 -20.161   3.225  1.00  0.00    -0.052 A 
HETATM   28  C   UNL     1      43.792 -19.161   2.393  1.00  0.00     0.044 A 
BRANCH  27  29
HETATM   29  C   UNL     1      44.707 -21.527   2.682  1.00  0.00     0.010 C 
HETATM   30  C   UNL     1      44.618 -22.618   3.753  1.00  0.00     0.015 C 
HETATM   31  C   UNL     1      43.858 -21.891   1.461  1.00  0.00     0.015 C 
ENDBRANCH  27  29
ENDBRANCH  21  22
ENDBRANCH  20  21
ENDBRANCH   1  20
TORSDOF 6
ENDMDL
MODEL 9
REMARK VINA RESULT:      -7.9      2.853      4.456
REMARK  6 active torsions:
REMARK  status: ('A' for Active; 'I' for Inactive)
REMARK    1  A    between atoms: C_3  and  O_4 
REMARK    2  A    between atoms: O_4  and  C_5 
REMARK    3  A    between atoms: C_5  and  C_6 
REMARK       I    between atoms: C_6  and  N_7 
REMARK    4  A    between atoms: N_7  and  C_8 
REMARK    5  A    between atoms: C_15  and  C_16 
REMARK       I    between atoms: C_16  and  N_17 
REMARK    6  A    between atoms: C_23  and  C_24 
ROOT
HETATM    1  C   UNL     1      43.288 -14.248   5.752  1.00  0.00     0.246 C 
HETATM    2  N   UNL     1      41.927 -14.129   6.005  1.00  0.00    -0.325 N 
HETATM    3  O   UNL     1      43.929 -13.626   4.913  1.00  0.00    -0.271 OA
HETATM    4  H   UNL     1      41.571 -14.650   6.797  1.00  0.00     0.169 HD
ENDROOT
BRANCH   2   5
HETATM    5  C   UNL     1      40.980 -13.372   5.280  1.00  0.00     0.035 A 
HETATM    6  C   UNL     1      40.457 -13.761   4.039  1.00  0.00     0.046 A 
HETATM    7  C   UNL     1      39.487 -12.955   3.403  1.00  0.00     0.030 A 
HETATM    8  C   UNL     1      39.069 -11.789   4.032  1.00  0.00     0.063 A 
HETATM    9  C   UNL     1      38.744 -13.005   2.185  1.00  0.00     0.156 A 
HETATM   10  N   UNL     1      38.138 -11.239   3.194  1.00  0.00    -0.277 N 
HETATM   11  C   UNL     1      39.569 -11.366   5.264  1.00  0.00     0.034 A 
HETATM   12  H   UNL     1      37.616 -10.382   3.336  1.00  0.00     0.189 HD
HETATM   13  N   UNL     1      37.918 -11.940   2.070  1.00  0.00    -0.168 NA
HETATM   14  C   UNL     1      40.536 -12.180   5.870  1.00  0.00     0.032 A 
BRANCH   9  15
HETATM   15  C   UNL     1      38.806 -14.035   1.137  1.00  0.00     0.270 C 
HETATM   16  N   UNL     1      37.597 -14.599   0.836  1.00  0.00    -0.365 N 
HETATM   17  H   UNL     1      36.774 -14.277   1.332  1.00  0.00     0.159 HD
HETATM   18  H   UNL     1      37.542 -15.306   0.121  1.00  0.00     0.159 HD
HETATM   19  O   UNL     1      39.829 -14.385   0.559  1.00  0.00    -0.266 OA
ENDBRANCH   9  15
ENDBRANCH   2   5
BRANCH   1  20
HETATM   20  C   UNL     1      43.958 -15.316   6.616  1.00  0.00     0.278 C 
BRANCH  20  21
HETATM   21  O   UNL     1      43.101 -16.444   6.758  1.00  0.00    -0.342 OA
BRANCH  21  22
HETATM   22  C   UNL     1      43.456 -17.529   5.994  1.00  0.00     0.075 A 
HETATM   23  C   UNL     1      44.026 -18.621   6.666  1.00  0.00    -0.029 A 
HETATM   24  C   UNL     1      44.265 -18.588   8.149  1.00  0.00     0.051 C 
HETATM   25  C   UNL     1      44.365 -19.770   5.935  1.00  0.00     0.010 A 
HETATM   26  C   UNL     1      44.149 -19.827   4.556  1.00  0.00     0.008 A 
HETATM   27  C   UNL     1      43.576 -18.746   3.877  1.00  0.00    -0.052 A 
HETATM   28  C   UNL     1      43.229 -17.600   4.614  1.00  0.00     0.044 A 
BRANCH  27  29
HETATM   29  C   UNL     1      43.350 -18.826   2.377  1.00  0.00     0.010 C 
HETATM   30  C   UNL     1      44.153 -17.766   1.617  1.00  0.00     0.015 C 
HETATM   31  C   UNL     1      43.662 -20.228   1.849  1.00  0.00     0.015 C 
ENDBRANCH  27  29
ENDBRANCH  21  22
ENDBRANCH  20  21
ENDBRANCH   1  20
TORSDOF 6
ENDMDL
MODEL 10
REMARK VINA RESULT:      -7.6      2.567      3.612
REMARK  6 active torsions:
REMARK  status: ('A' for Active; 'I' for Inactive)
REMARK    1  A    between atoms: C_3  and  O_4 
REMARK    2  A    between atoms: O_4  and  C_5 
REMARK    3  A    between atoms: C_5  and  C_6 
REMARK       I    between atoms: C_6  and  N_7 
REMARK    4  A    between atoms: N_7  and  C_8 
REMARK    5  A    between atoms: C_15  and  C_16 
REMARK       I    between atoms: C_16  and  N_17 
REMARK    6  A    between atoms: C_23  and  C_24 
ROOT
HETATM    1  C   UNL     1      41.021 -15.021   4.406  1.00  0.00     0.246 C 
HETATM    2  N   UNL     1      41.975 -15.070   3.398  1.00  0.00    -0.325 N 
HETATM    3  O   UNL     1      39.833 -14.753   4.271  1.00  0.00    -0.271 OA
HETATM    4  H   UNL     1      42.894 -15.399   3.667  1.00  0.00     0.169 HD
ENDROOT
BRANCH   2   5
HETATM    5  C   UNL     1      41.815 -14.706   2.043  1.00  0.00     0.035 A 
HETATM    6  C   UNL     1      42.075 -13.421   1.546  1.00  0.00     0.046 A 
HETATM    7  C   UNL     1      41.918 -13.158   0.167  1.00  0.00     0.030 A 
HETATM    8  C   UNL     1      41.512 -14.190  -0.670  1.00  0.00     0.063 A 
HETATM    9  C   UNL     1      42.076 -12.027  -0.690  1.00  0.00     0.156 A 
HETATM   10  N   UNL     1      41.461 -13.642  -1.922  1.00  0.00    -0.277 N 
HETATM   11  C   UNL     1      41.241 -15.480  -0.212  1.00  0.00     0.034 A 
HETATM   12  H   UNL     1      41.206 -14.109  -2.785  1.00  0.00     0.189 HD
HETATM   13  N   UNL     1      41.789 -12.341  -1.974  1.00  0.00    -0.168 NA
HETATM   14  C   UNL     1      41.397 -15.712   1.161  1.00  0.00     0.032 A 
BRANCH   9  15
HETATM   15  C   UNL     1      42.487 -10.666  -0.315  1.00  0.00     0.270 C 
HETATM   16  N   UNL     1      41.481  -9.905   0.214  1.00  0.00    -0.365 N 
HETATM   17  H   UNL     1      40.561 -10.317   0.313  1.00  0.00     0.159 HD
HETATM   18  H   UNL     1      41.674  -8.962   0.511  1.00  0.00     0.159 HD
HETATM   19  O   UNL     1      43.620 -10.215  -0.446  1.00  0.00    -0.266 OA
ENDBRANCH   9  15
ENDBRANCH   2   5
BRANCH   1  20
HETATM   20  C   UNL     1      41.609 -15.292   5.791  1.00  0.00     0.278 C 
BRANCH  20  21
HETATM   21  O   UNL     1      41.409 -16.653   6.154  1.00  0.00    -0.342 OA
BRANCH  21  22
HETATM   22  C   UNL     1      42.423 -17.500   5.776  1.00  0.00     0.075 A 
HETATM   23  C   UNL     1      43.378 -17.824   6.751  1.00  0.00    -0.029 A 
HETATM   24  C   UNL     1      43.308 -17.246   8.136  1.00  0.00     0.051 C 
HETATM   25  C   UNL     1      44.409 -18.719   6.424  1.00  0.00     0.010 A 
HETATM   26  C   UNL     1      44.493 -19.274   5.146  1.00  0.00     0.008 A 
HETATM   27  C   UNL     1      43.543 -18.961   4.167  1.00  0.00    -0.052 A 
HETATM   28  C   UNL     1      42.507 -18.072   4.499  1.00  0.00     0.044 A 
BRANCH  27  29
HETATM   29  C   UNL     1      43.652 -19.574   2.781  1.00  0.00     0.010 C 
HETATM   30  C   UNL     1      43.944 -18.521   1.708  1.00  0.00     0.015 C 
HETATM   31  C   UNL     1      44.703 -20.686   2.753  1.00  0.00     0.015 C 
ENDBRANCH  27  29
ENDBRANCH  21  22
ENDBRANCH  20  21
ENDBRANCH   1  20
TORSDOF 6
ENDMDL
