MODEL 1
REMARK VINA RESULT:      -8.8      0.000      0.000
REMARK  6 active torsions:
REMARK  status: ('A' for Active; 'I' for Inactive)
REMARK    1  A    between atoms: C_2  and  S_3 
REMARK    2  A    between atoms: S_3  and  C_4 
REMARK    3  A    between atoms: C_5  and  C_6 
REMARK       I    between atoms: C_6  and  N_7 
REMARK    4  A    between atoms: N_7  and  C_8 
REMARK    5  A    between atoms: N_9  and  C_10 
REMARK    6  A    between atoms: C_21  and  C_22 
ROOT
HETATM    1  C   UNL     1      41.790 -16.986   1.422  1.00  0.00     0.152 A 
HETATM    2  N   UNL     1      41.747 -15.823   2.179  1.00  0.00    -0.044 N 
HETATM    3  N   UNL     1      41.174 -14.780   1.505  1.00  0.00    -0.148 NA
HETATM    4  C   UNL     1      40.859 -15.305   0.313  1.00  0.00     0.115 A 
HETATM    5  C   UNL     1      41.215 -16.666   0.214  1.00  0.00     0.087 A 
ENDROOT
BRANCH   1   6
HETATM    6  N   UNL     1      42.336 -18.162   1.910  1.00  0.00    -0.307 N 
HETATM    7  C   UNL     1      43.694 -18.403   1.972  1.00  0.00     0.258 C 
HETATM    8  O   UNL     1      44.598 -17.693   1.552  1.00  0.00    -0.267 OA
HETATM    9  H   UNL     1      41.688 -18.888   2.212  1.00  0.00     0.170 HD
BRANCH   7  10
HETATM   10  C   UNL     1      44.025 -19.729   2.535  1.00  0.00     0.049 A 
HETATM   11  C   UNL     1      44.358 -19.913   3.887  1.00  0.00     0.016 A 
HETATM   12  C   UNL     1      44.631 -21.215   4.334  1.00  0.00     0.019 A 
HETATM   13  C   UNL     1      44.560 -22.302   3.458  1.00  0.00     0.001 A 
HETATM   14  C   UNL     1      44.231 -22.104   2.119  1.00  0.00     0.001 A 
HETATM   15  C   UNL     1      43.968 -20.818   1.654  1.00  0.00     0.018 A 
BRANCH  11  16
HETATM   16  S   UNL     1      44.545 -18.565   5.048  1.00  0.00    -0.129 SA
BRANCH  16  17
HETATM   17  C   UNL     1      43.736 -19.297   6.505  1.00  0.00     0.075 C 
HETATM   18  C   UNL     1      44.257 -18.638   7.769  1.00  0.00     0.016 C 
ENDBRANCH  16  17
ENDBRANCH  11  16
ENDBRANCH   7  10
ENDBRANCH   1   6
BRANCH   2  19
HETATM   19  C   UNL     1      42.201 -15.632   3.499  1.00  0.00     0.732 A 
HETATM   20  N   UNL     1      43.227 -14.890   3.802  1.00  0.00    -0.067 NA
HETATM   21  C   UNL     1      43.505 -14.844   5.139  1.00  0.00     0.065 A 
HETATM   22  C   UNL     1      42.829 -15.469   6.103  1.00  0.00     0.036 A 
HETATM   23  C   UNL     1      44.644 -14.060   5.700  1.00  0.00     0.061 C 
HETATM   24  C   UNL     1      43.373 -15.231   7.458  1.00  0.00     0.047 C 
HETATM   25  C   UNL     1      41.676 -16.295   5.747  1.00  0.00     0.268 A 
HETATM   26  C   UNL     1      44.730 -14.590   7.139  1.00  0.00     0.011 C 
HETATM   27  O   UNL     1      41.010 -16.895   6.578  1.00  0.00    -0.267 OA
HETATM   28  N   UNL     1      41.428 -16.324   4.403  1.00  0.00    -0.152 N 
HETATM   29  H   UNL     1      40.647 -16.875   4.060  1.00  0.00     0.188 HD
ENDBRANCH   2  19
BRANCH   4  30
HETATM   30  C   UNL     1      40.211 -14.511  -0.771  1.00  0.00     0.105 A 
HETATM   31  O   UNL     1      39.209 -13.601  -0.570  1.00  0.00    -0.320 OA
HETATM   32  C   UNL     1      38.877 -13.090  -1.782  1.00  0.00     0.142 A 
HETATM   33  C   UNL     1      39.648 -13.652  -2.770  1.00  0.00     0.027 A 
HETATM   34  C   UNL     1      40.510 -14.569  -2.120  1.00  0.00     0.041 A 
ENDBRANCH   4  30
TORSDOF 6
ENDMDL
MODEL 2
REMARK VINA RESULT:      -8.7      2.896      6.987
REMARK  6 active torsions:
REMARK  status: ('A' for Active; 'I' for Inactive)
REMARK    1  A    between atoms: C_2  and  S_3 
REMARK    2  A    between atoms: S_3  and  C_4 
REMARK    3  A    between atoms: C_5  and  C_6 
REMARK       I    between atoms: C_6  and  N_7 
REMARK    4  A    between atoms: N_7  and  C_8 
REMARK    5  A    between atoms: N_9  and  C_10 
REMARK    6  A    between atoms: C_21  and  C_22 
ROOT
HETATM    1  C   UNL     1      43.961 -14.784   6.113  1.00  0.00     0.152 A 
HETATM    2  N   UNL     1      43.226 -13.632   5.874  1.00  0.00    -0.044 N 
HETATM    3  N   UNL     1      43.383 -12.695   6.859  1.00  0.00    -0.148 NA
HETATM    4  C   UNL     1      44.226 -13.279   7.722  1.00  0.00     0.115 A 
HETATM    5  C   UNL     1      44.616 -14.568   7.304  1.00  0.00     0.087 A 
ENDROOT
BRANCH   1   6
HETATM    6  N   UNL     1      43.943 -15.862   5.244  1.00  0.00    -0.307 N 
HETATM    7  C   UNL     1      43.111 -16.953   5.401  1.00  0.00     0.258 C 
HETATM    8  O   UNL     1      42.348 -17.182   6.330  1.00  0.00    -0.267 OA
HETATM    9  H   UNL     1      44.602 -15.848   4.466  1.00  0.00     0.170 HD
BRANCH   7  10
HETATM   10  C   UNL     1      43.277 -17.969   4.341  1.00  0.00     0.049 A 
HETATM   11  C   UNL     1      42.562 -17.925   3.133  1.00  0.00     0.016 A 
HETATM   12  C   UNL     1      42.808 -18.921   2.177  1.00  0.00     0.019 A 
HETATM   13  C   UNL     1      43.751 -19.925   2.415  1.00  0.00     0.001 A 
HETATM   14  C   UNL     1      44.451 -19.959   3.619  1.00  0.00     0.001 A 
HETATM   15  C   UNL     1      44.211 -18.986   4.585  1.00  0.00     0.018 A 
BRANCH  11  16
HETATM   16  S   UNL     1      41.287 -16.718   2.788  1.00  0.00    -0.129 SA
BRANCH  16  17
HETATM   17  C   UNL     1      40.831 -17.225   1.100  1.00  0.00     0.075 C 
HETATM   18  C   UNL     1      41.398 -16.238   0.095  1.00  0.00     0.016 C 
ENDBRANCH  16  17
ENDBRANCH  11  16
ENDBRANCH   7  10
ENDBRANCH   1   6
BRANCH   2  19
HETATM   19  C   UNL     1      42.394 -13.348   4.773  1.00  0.00     0.732 A 
HETATM   20  N   UNL     1      42.820 -13.319   3.543  1.00  0.00    -0.067 NA
HETATM   21  C   UNL     1      41.853 -13.016   2.626  1.00  0.00     0.065 A 
HETATM   22  C   UNL     1      40.570 -12.768   2.891  1.00  0.00     0.036 A 
HETATM   23  C   UNL     1      42.129 -12.921   1.163  1.00  0.00     0.061 C 
HETATM   24  C   UNL     1      39.764 -12.466   1.688  1.00  0.00     0.047 C 
HETATM   25  C   UNL     1      40.106 -12.809   4.277  1.00  0.00     0.268 A 
HETATM   26  C   UNL     1      40.855 -12.249   0.631  1.00  0.00     0.011 C 
HETATM   27  O   UNL     1      38.945 -12.594   4.593  1.00  0.00    -0.267 OA
HETATM   28  N   UNL     1      41.098 -13.110   5.169  1.00  0.00    -0.152 N 
HETATM   29  H   UNL     1      40.870 -13.158   6.158  1.00  0.00     0.188 HD
ENDBRANCH   2  19
BRANCH   4  30
HETATM   30  C   UNL     1      44.679 -12.616   8.979  1.00  0.00     0.105 A 
HETATM   31  O   UNL     1      44.283 -12.986  10.235  1.00  0.00    -0.320 OA
HETATM   32  C   UNL     1      44.895 -12.155  11.115  1.00  0.00     0.142 A 
HETATM   33  C   UNL     1      45.687 -11.249  10.451  1.00  0.00     0.027 A 
HETATM   34  C   UNL     1      45.549 -11.545   9.073  1.00  0.00     0.041 A 
ENDBRANCH   4  30
TORSDOF 6
ENDMDL
MODEL 3
REMARK VINA RESULT:      -8.4      2.497      6.857
REMARK  6 active torsions:
REMARK  status: ('A' for Active; 'I' for Inactive)
REMARK    1  A    between atoms: C_2  and  S_3 
REMARK    2  A    between atoms: S_3  and  C_4 
REMARK    3  A    between atoms: C_5  and  C_6 
REMARK       I    between atoms: C_6  and  N_7 
REMARK    4  A    between atoms: N_7  and  C_8 
REMARK    5  A    between atoms: N_9  and  C_10 
REMARK    6  A    between atoms: C_21  and  C_22 
ROOT
HETATM    1  C   UNL     1      43.145 -17.585   1.903  1.00  0.00     0.152 A 
HETATM    2  N   UNL     1      43.017 -17.361   3.266  1.00  0.00    -0.044 N 
HETATM    3  N   UNL     1      43.394 -18.442   4.013  1.00  0.00    -0.148 NA
HETATM    4  C   UNL     1      43.758 -19.351   3.098  1.00  0.00     0.115 A 
HETATM    5  C   UNL     1      43.628 -18.868   1.779  1.00  0.00     0.087 A 
ENDROOT
BRANCH   1   6
HETATM    6  N   UNL     1      42.812 -16.623   0.964  1.00  0.00    -0.307 N 
HETATM    7  C   UNL     1      41.512 -16.304   0.627  1.00  0.00     0.258 C 
HETATM    8  O   UNL     1      40.487 -16.846   1.017  1.00  0.00    -0.267 OA
HETATM    9  H   UNL     1      43.580 -16.151   0.486  1.00  0.00     0.170 HD
BRANCH   7  10
HETATM   10  C   UNL     1      41.419 -15.243  -0.397  1.00  0.00     0.049 A 
HETATM   11  C   UNL     1      41.653 -13.889  -0.105  1.00  0.00     0.016 A 
HETATM   12  C   UNL     1      41.566 -12.958  -1.151  1.00  0.00     0.019 A 
HETATM   13  C   UNL     1      41.268 -13.369  -2.453  1.00  0.00     0.001 A 
HETATM   14  C   UNL     1      41.035 -14.715  -2.728  1.00  0.00     0.001 A 
HETATM   15  C   UNL     1      41.104 -15.652  -1.701  1.00  0.00     0.018 A 
BRANCH  11  16
HETATM   16  S   UNL     1      41.964 -13.278   1.547  1.00  0.00    -0.129 SA
BRANCH  16  17
HETATM   17  C   UNL     1      40.445 -12.309   1.809  1.00  0.00     0.075 C 
HETATM   18  C   UNL     1      39.232 -13.219   1.722  1.00  0.00     0.016 C 
ENDBRANCH  16  17
ENDBRANCH  11  16
ENDBRANCH   7  10
ENDBRANCH   1   6
BRANCH   2  19
HETATM   19  C   UNL     1      42.573 -16.191   3.913  1.00  0.00     0.732 A 
HETATM   20  N   UNL     1      41.319 -15.939   4.155  1.00  0.00    -0.067 NA
HETATM   21  C   UNL     1      41.102 -14.746   4.784  1.00  0.00     0.065 A 
HETATM   22  C   UNL     1      42.038 -13.871   5.153  1.00  0.00     0.036 A 
HETATM   23  C   UNL     1      39.738 -14.259   5.145  1.00  0.00     0.061 C 
HETATM   24  C   UNL     1      41.495 -12.663   5.812  1.00  0.00     0.047 C 
HETATM   25  C   UNL     1      43.443 -14.170   4.878  1.00  0.00     0.268 A 
HETATM   26  C   UNL     1      39.997 -12.788   5.501  1.00  0.00     0.011 C 
HETATM   27  O   UNL     1      44.353 -13.416   5.189  1.00  0.00    -0.267 OA
HETATM   28  N   UNL     1      43.625 -15.368   4.244  1.00  0.00    -0.152 N 
HETATM   29  H   UNL     1      44.569 -15.659   4.009  1.00  0.00     0.188 HD
ENDBRANCH   2  19
BRANCH   4  30
HETATM   30  C   UNL     1      44.239 -20.715   3.464  1.00  0.00     0.105 A 
HETATM   31  O   UNL     1      44.648 -21.081   4.717  1.00  0.00    -0.320 OA
HETATM   32  C   UNL     1      45.014 -22.386   4.659  1.00  0.00     0.142 A 
HETATM   33  C   UNL     1      44.848 -22.877   3.387  1.00  0.00     0.027 A 
HETATM   34  C   UNL     1      44.348 -21.801   2.614  1.00  0.00     0.041 A 
ENDBRANCH   4  30
TORSDOF 6
ENDMDL
MODEL 4
REMARK VINA RESULT:      -8.3      2.578      6.067
REMARK  6 active torsions:
REMARK  status: ('A' for Active; 'I' for Inactive)
REMARK    1  A    between atoms: C_2  and  S_3 
REMARK    2  A    between atoms: S_3  and  C_4 
REMARK    3  A    between atoms: C_5  and  C_6 
REMARK       I    between atoms: C_6  and  N_7 
REMARK    4  A    between atoms: N_7  and  C_8 
REMARK    5  A    between atoms: N_9  and  C_10 
REMARK    6  A    between atoms: C_21  and  C_22 
ROOT
HETATM    1  C   UNL     1      42.733 -14.564   4.651  1.00  0.00     0.152 A 
HETATM    2  N   UNL     1      42.178 -13.601   3.821  1.00  0.00    -0.044 N 
HETATM    3  N   UNL     1      41.815 -12.470   4.499  1.00  0.00    -0.148 NA
HETATM    4  C   UNL     1      42.148 -12.739   5.769  1.00  0.00     0.115 A 
HETATM    5  C   UNL     1      42.724 -14.018   5.915  1.00  0.00     0.087 A 
ENDROOT
BRANCH   1   6
HETATM    6  N   UNL     1      43.165 -15.789   4.171  1.00  0.00    -0.307 N 
HETATM    7  C   UNL     1      42.510 -16.978   4.420  1.00  0.00     0.258 C 
HETATM    8  O   UNL     1      41.535 -17.157   5.139  1.00  0.00    -0.267 OA
HETATM    9  H   UNL     1      44.028 -15.801   3.628  1.00  0.00     0.170 HD
BRANCH   7  10
HETATM   10  C   UNL     1      43.165 -18.147   3.795  1.00  0.00     0.049 A 
HETATM   11  C   UNL     1      44.159 -18.894   4.448  1.00  0.00     0.016 A 
HETATM   12  C   UNL     1      44.703 -20.002   3.783  1.00  0.00     0.019 A 
HETATM   13  C   UNL     1      44.257 -20.363   2.507  1.00  0.00     0.001 A 
HETATM   14  C   UNL     1      43.272 -19.611   1.870  1.00  0.00     0.001 A 
HETATM   15  C   UNL     1      42.729 -18.499   2.510  1.00  0.00     0.018 A 
BRANCH  11  16
HETATM   16  S   UNL     1      44.834 -18.451   6.044  1.00  0.00    -0.129 SA
BRANCH  16  17
HETATM   17  C   UNL     1      43.598 -19.231   7.129  1.00  0.00     0.075 C 
HETATM   18  C   UNL     1      43.726 -20.742   7.053  1.00  0.00     0.016 C 
ENDBRANCH  16  17
ENDBRANCH  11  16
ENDBRANCH   7  10
ENDBRANCH   1   6
BRANCH   2  19
HETATM   19  C   UNL     1      41.976 -13.670   2.429  1.00  0.00     0.732 A 
HETATM   20  N   UNL     1      41.614 -14.757   1.811  1.00  0.00    -0.067 NA
HETATM   21  C   UNL     1      41.482 -14.613   0.459  1.00  0.00     0.065 A 
HETATM   22  C   UNL     1      41.682 -13.491  -0.233  1.00  0.00     0.036 A 
HETATM   23  C   UNL     1      41.084 -15.736  -0.438  1.00  0.00     0.061 C 
HETATM   24  C   UNL     1      41.466 -13.646  -1.689  1.00  0.00     0.047 C 
HETATM   25  C   UNL     1      42.086 -12.277   0.475  1.00  0.00     0.268 A 
HETATM   26  C   UNL     1      41.401 -15.172  -1.831  1.00  0.00     0.011 C 
HETATM   27  O   UNL     1      42.285 -11.214  -0.095  1.00  0.00    -0.267 OA
HETATM   28  N   UNL     1      42.213 -12.456   1.824  1.00  0.00    -0.152 N 
HETATM   29  H   UNL     1      42.493 -11.668   2.399  1.00  0.00     0.188 HD
ENDBRANCH   2  19
BRANCH   4  30
HETATM   30  C   UNL     1      41.918 -11.775   6.884  1.00  0.00     0.105 A 
HETATM   31  O   UNL     1      42.864 -11.420   7.807  1.00  0.00    -0.320 OA
HETATM   32  C   UNL     1      42.287 -10.533   8.657  1.00  0.00     0.142 A 
HETATM   33  C   UNL     1      40.980 -10.303   8.301  1.00  0.00     0.027 A 
HETATM   34  C   UNL     1      40.740 -11.103   7.157  1.00  0.00     0.041 A 
ENDBRANCH   4  30
TORSDOF 6
ENDMDL
MODEL 5
REMARK VINA RESULT:      -8.2      2.709      7.241
REMARK  6 active torsions:
REMARK  status: ('A' for Active; 'I' for Inactive)
REMARK    1  A    between atoms: C_2  and  S_3 
REMARK    2  A    between atoms: S_3  and  C_4 
REMARK    3  A    between atoms: C_5  and  C_6 
REMARK       I    between atoms: C_6  and  N_7 
REMARK    4  A    between atoms: N_7  and  C_8 
REMARK    5  A    between atoms: N_9  and  C_10 
REMARK    6  A    between atoms: C_21  and  C_22 
ROOT
HETATM    1  C   UNL     1      41.430 -16.986   1.899  1.00  0.00     0.152 A 
HETATM    2  N   UNL     1      41.972 -16.679   3.138  1.00  0.00    -0.044 N 
HETATM    3  N   UNL     1      42.798 -17.662   3.609  1.00  0.00    -0.148 NA
HETATM    4  C   UNL     1      42.764 -18.594   2.646  1.00  0.00     0.115 A 
HETATM    5  C   UNL     1      41.937 -18.222   1.566  1.00  0.00     0.087 A 
ENDROOT
BRANCH   1   6
HETATM    6  N   UNL     1      40.561 -16.131   1.242  1.00  0.00    -0.307 N 
HETATM    7  C   UNL     1      40.979 -15.074   0.459  1.00  0.00     0.258 C 
HETATM    8  O   UNL     1      42.125 -14.681   0.287  1.00  0.00    -0.267 OA
HETATM    9  H   UNL     1      39.562 -16.287   1.374  1.00  0.00     0.170 HD
BRANCH   7  10
HETATM   10  C   UNL     1      39.862 -14.312  -0.137  1.00  0.00     0.049 A 
HETATM   11  C   UNL     1      39.620 -14.284  -1.520  1.00  0.00     0.016 A 
HETATM   12  C   UNL     1      38.517 -13.554  -1.988  1.00  0.00     0.019 A 
HETATM   13  C   UNL     1      37.673 -12.882  -1.099  1.00  0.00     0.001 A 
HETATM   14  C   UNL     1      37.927 -12.916   0.270  1.00  0.00     0.001 A 
HETATM   15  C   UNL     1      39.023 -13.625   0.753  1.00  0.00     0.018 A 
BRANCH  11  16
HETATM   16  S   UNL     1      40.697 -15.053  -2.724  1.00  0.00    -0.129 SA
BRANCH  16  17
HETATM   17  C   UNL     1      41.351 -13.567  -3.547  1.00  0.00     0.075 C 
HETATM   18  C   UNL     1      42.463 -12.962  -2.708  1.00  0.00     0.016 C 
ENDBRANCH  16  17
ENDBRANCH  11  16
ENDBRANCH   7  10
ENDBRANCH   1   6
BRANCH   2  19
HETATM   19  C   UNL     1      41.773 -15.514   3.906  1.00  0.00     0.732 A 
HETATM   20  N   UNL     1      40.647 -14.860   3.934  1.00  0.00    -0.067 NA
HETATM   21  C   UNL     1      40.666 -13.753   4.735  1.00  0.00     0.065 A 
HETATM   22  C   UNL     1      41.703 -13.324   5.455  1.00  0.00     0.036 A 
HETATM   23  C   UNL     1      39.485 -12.858   4.904  1.00  0.00     0.061 C 
HETATM   24  C   UNL     1      41.421 -12.089   6.222  1.00  0.00     0.047 C 
HETATM   25  C   UNL     1      42.959 -14.071   5.416  1.00  0.00     0.268 A 
HETATM   26  C   UNL     1      40.098 -11.631   5.595  1.00  0.00     0.011 C 
HETATM   27  O   UNL     1      43.948 -13.736   6.051  1.00  0.00    -0.267 OA
HETATM   28  N   UNL     1      42.908 -15.169   4.603  1.00  0.00    -0.152 N 
HETATM   29  H   UNL     1      43.736 -15.749   4.510  1.00  0.00     0.188 HD
ENDBRANCH   2  19
BRANCH   4  30
HETATM   30  C   UNL     1      43.523 -19.875   2.738  1.00  0.00     0.105 A 
HETATM   31  O   UNL     1      44.299 -20.240   3.804  1.00  0.00    -0.320 OA
HETATM   32  C   UNL     1      44.828 -21.457   3.523  1.00  0.00     0.142 A 
HETATM   33  C   UNL     1      44.406 -21.893   2.290  1.00  0.00     0.027 A 
HETATM   34  C   UNL     1      43.564 -20.874   1.782  1.00  0.00     0.041 A 
ENDBRANCH   4  30
TORSDOF 6
ENDMDL
MODEL 6
REMARK VINA RESULT:      -8.1      2.915      7.906
REMARK  6 active torsions:
REMARK  status: ('A' for Active; 'I' for Inactive)
REMARK    1  A    between atoms: C_2  and  S_3 
REMARK    2  A    between atoms: S_3  and  C_4 
REMARK    3  A    between atoms: C_5  and  C_6 
REMARK       I    between atoms: C_6  and  N_7 
REMARK    4  A    between atoms: N_7  and  C_8 
REMARK    5  A    between atoms: N_9  and  C_10 
REMARK    6  A    between atoms: C_21  and  C_22 
ROOT
HETATM    1  C   UNL     1      41.766 -15.843   2.378  1.00  0.00     0.152 A 
HETATM    2  N   UNL     1      42.070 -16.138   1.058  1.00  0.00    -0.044 N 
HETATM    3  N   UNL     1      42.730 -17.328   0.924  1.00  0.00    -0.148 NA
HETATM    4  C   UNL     1      42.837 -17.775   2.183  1.00  0.00     0.115 A 
HETATM    5  C   UNL     1      42.253 -16.896   3.118  1.00  0.00     0.087 A 
ENDROOT
BRANCH   1   6
HETATM    6  N   UNL     1      41.103 -14.681   2.740  1.00  0.00    -0.307 N 
HETATM    7  C   UNL     1      39.735 -14.523   2.645  1.00  0.00     0.258 C 
HETATM    8  O   UNL     1      38.925 -15.308   2.172  1.00  0.00    -0.267 OA
HETATM    9  H   UNL     1      41.672 -13.901   3.068  1.00  0.00     0.170 HD
BRANCH   7  10
HETATM   10  C   UNL     1      39.270 -13.195   3.095  1.00  0.00     0.049 A 
HETATM   11  C   UNL     1      39.455 -12.735   4.409  1.00  0.00     0.016 A 
HETATM   12  C   UNL     1      39.001 -11.448   4.734  1.00  0.00     0.019 A 
HETATM   13  C   UNL     1      38.392 -10.638   3.771  1.00  0.00     0.001 A 
HETATM   14  C   UNL     1      38.211 -11.109   2.472  1.00  0.00     0.001 A 
HETATM   15  C   UNL     1      38.644 -12.388   2.133  1.00  0.00     0.018 A 
BRANCH  11  16
HETATM   16  S   UNL     1      40.155 -13.739   5.714  1.00  0.00    -0.129 SA
BRANCH  16  17
HETATM   17  C   UNL     1      41.810 -12.990   5.826  1.00  0.00     0.075 C 
HETATM   18  C   UNL     1      42.863 -14.080   5.915  1.00  0.00     0.016 C 
ENDBRANCH  16  17
ENDBRANCH  11  16
ENDBRANCH   7  10
ENDBRANCH   1   6
BRANCH   2  19
HETATM   19  C   UNL     1      41.771 -15.378  -0.091  1.00  0.00     0.732 A 
HETATM   20  N   UNL     1      42.013 -14.102  -0.187  1.00  0.00    -0.067 NA
HETATM   21  C   UNL     1      41.640 -13.553  -1.381  1.00  0.00     0.065 A 
HETATM   22  C   UNL     1      41.080 -14.203  -2.402  1.00  0.00     0.036 A 
HETATM   23  C   UNL     1      41.819 -12.106  -1.696  1.00  0.00     0.061 C 
HETATM   24  C   UNL     1      40.782 -13.336  -3.564  1.00  0.00     0.047 C 
HETATM   25  C   UNL     1      40.818 -15.636  -2.280  1.00  0.00     0.268 A 
HETATM   26  C   UNL     1      40.966 -11.937  -2.962  1.00  0.00     0.011 C 
HETATM   27  O   UNL     1      40.309 -16.294  -3.175  1.00  0.00    -0.267 OA
HETATM   28  N   UNL     1      41.199 -16.153  -1.073  1.00  0.00    -0.152 N 
HETATM   29  H   UNL     1      41.053 -17.142  -0.895  1.00  0.00     0.188 HD
ENDBRANCH   2  19
BRANCH   4  30
HETATM   30  C   UNL     1      43.511 -19.062   2.527  1.00  0.00     0.105 A 
HETATM   31  O   UNL     1      44.316 -19.247   3.618  1.00  0.00    -0.320 OA
HETATM   32  C   UNL     1      44.744 -20.533   3.592  1.00  0.00     0.142 A 
HETATM   33  C   UNL     1      44.229 -21.191   2.501  1.00  0.00     0.027 A 
HETATM   34  C   UNL     1      43.433 -20.244   1.813  1.00  0.00     0.041 A 
ENDBRANCH   4  30
TORSDOF 6
ENDMDL
MODEL 7
REMARK VINA RESULT:      -8.1      2.863      6.640
REMARK  6 active torsions:
REMARK  status: ('A' for Active; 'I' for Inactive)
REMARK    1  A    between atoms: C_2  and  S_3 
REMARK    2  A    between atoms: S_3  and  C_4 
REMARK    3  A    between atoms: C_5  and  C_6 
REMARK       I    between atoms: C_6  and  N_7 
REMARK    4  A    between atoms: N_7  and  C_8 
REMARK    5  A    between atoms: N_9  and  C_10 
REMARK    6  A    between atoms: C_21  and  C_22 
ROOT
HETATM    1  C   UNL     1      43.478 -14.463   5.710  1.00  0.00     0.152 A 
HETATM    2  N   UNL     1      42.542 -13.448   5.573  1.00  0.00    -0.044 N 
HETATM    3  N   UNL     1      42.674 -12.479   6.529  1.00  0.00    -0.148 NA
HETATM    4  C   UNL     1      43.707 -12.903   7.271  1.00  0.00     0.115 A 
HETATM    5  C   UNL     1      44.242 -14.121   6.803  1.00  0.00     0.087 A 
ENDROOT
BRANCH   1   6
HETATM    6  N   UNL     1      43.520 -15.548   4.850  1.00  0.00    -0.307 N 
HETATM    7  C   UNL     1      42.783 -16.699   5.040  1.00  0.00     0.258 C 
HETATM    8  O   UNL     1      42.069 -16.979   5.994  1.00  0.00    -0.267 OA
HETATM    9  H   UNL     1      44.153 -15.488   4.053  1.00  0.00     0.170 HD
BRANCH   7  10
HETATM   10  C   UNL     1      42.998 -17.710   3.983  1.00  0.00     0.049 A 
HETATM   11  C   UNL     1      43.911 -18.767   4.124  1.00  0.00     0.016 A 
HETATM   12  C   UNL     1      44.025 -19.692   3.076  1.00  0.00     0.019 A 
HETATM   13  C   UNL     1      43.240 -19.572   1.925  1.00  0.00     0.001 A 
HETATM   14  C   UNL     1      42.340 -18.515   1.797  1.00  0.00     0.001 A 
HETATM   15  C   UNL     1      42.222 -17.580   2.822  1.00  0.00     0.018 A 
BRANCH  11  16
HETATM   16  S   UNL     1      45.003 -18.945   5.530  1.00  0.00    -0.129 SA
BRANCH  16  17
HETATM   17  C   UNL     1      43.904 -19.852   6.662  1.00  0.00     0.075 C 
HETATM   18  C   UNL     1      43.871 -19.160   8.013  1.00  0.00     0.016 C 
ENDBRANCH  16  17
ENDBRANCH  11  16
ENDBRANCH   7  10
ENDBRANCH   1   6
BRANCH   2  19
HETATM   19  C   UNL     1      41.537 -13.325   4.594  1.00  0.00     0.732 A 
HETATM   20  N   UNL     1      40.976 -14.346   4.011  1.00  0.00    -0.067 NA
HETATM   21  C   UNL     1      40.030 -14.008   3.085  1.00  0.00     0.065 A 
HETATM   22  C   UNL     1      39.658 -12.770   2.759  1.00  0.00     0.036 A 
HETATM   23  C   UNL     1      39.273 -15.023   2.296  1.00  0.00     0.061 C 
HETATM   24  C   UNL     1      38.610 -12.721   1.715  1.00  0.00     0.047 C 
HETATM   25  C   UNL     1      40.294 -11.634   3.425  1.00  0.00     0.268 A 
HETATM   26  C   UNL     1      38.616 -14.168   1.204  1.00  0.00     0.011 C 
HETATM   27  O   UNL     1      40.002 -10.473   3.177  1.00  0.00    -0.267 OA
HETATM   28  N   UNL     1      41.238 -12.006   4.341  1.00  0.00    -0.152 N 
HETATM   29  H   UNL     1      41.736 -11.283   4.852  1.00  0.00     0.188 HD
ENDBRANCH   2  19
BRANCH   4  30
HETATM   30  C   UNL     1      44.208 -12.150   8.457  1.00  0.00     0.105 A 
HETATM   31  O   UNL     1      43.445 -11.305   9.217  1.00  0.00    -0.320 OA
HETATM   32  C   UNL     1      44.243 -10.808  10.195  1.00  0.00     0.142 A 
HETATM   33  C   UNL     1      45.514 -11.316  10.086  1.00  0.00     0.027 A 
HETATM   34  C   UNL     1      45.494 -12.183   8.966  1.00  0.00     0.041 A 
ENDBRANCH   4  30
TORSDOF 6
ENDMDL
MODEL 8
REMARK VINA RESULT:      -8.0      3.259      8.416
REMARK  6 active torsions:
REMARK  status: ('A' for Active; 'I' for Inactive)
REMARK    1  A    between atoms: C_2  and  S_3 
REMARK    2  A    between atoms: S_3  and  C_4 
REMARK    3  A    between atoms: C_5  and  C_6 
REMARK       I    between atoms: C_6  and  N_7 
REMARK    4  A    between atoms: N_7  and  C_8 
REMARK    5  A    between atoms: N_9  and  C_10 
REMARK    6  A    between atoms: C_21  and  C_22 
ROOT
HETATM    1  C   UNL     1      41.857 -15.818   2.455  1.00  0.00     0.152 A 
HETATM    2  N   UNL     1      42.124 -16.106   1.124  1.00  0.00    -0.044 N 
HETATM    3  N   UNL     1      42.747 -17.312   0.963  1.00  0.00    -0.148 NA
HETATM    4  C   UNL     1      42.869 -17.777   2.214  1.00  0.00     0.115 A 
HETATM    5  C   UNL     1      42.330 -16.894   3.171  1.00  0.00     0.087 A 
ENDROOT
BRANCH   1   6
HETATM    6  N   UNL     1      41.235 -14.643   2.844  1.00  0.00    -0.307 N 
HETATM    7  C   UNL     1      39.870 -14.449   2.791  1.00  0.00     0.258 C 
HETATM    8  O   UNL     1      39.026 -15.210   2.336  1.00  0.00    -0.267 OA
HETATM    9  H   UNL     1      41.834 -13.880   3.160  1.00  0.00     0.170 HD
BRANCH   7  10
HETATM   10  C   UNL     1      39.452 -13.113   3.264  1.00  0.00     0.049 A 
HETATM   11  C   UNL     1      38.898 -12.148   2.408  1.00  0.00     0.016 A 
HETATM   12  C   UNL     1      38.507 -10.918   2.956  1.00  0.00     0.019 A 
HETATM   13  C   UNL     1      38.652 -10.664   4.323  1.00  0.00     0.001 A 
HETATM   14  C   UNL     1      39.207 -11.629   5.161  1.00  0.00     0.001 A 
HETATM   15  C   UNL     1      39.612 -12.852   4.633  1.00  0.00     0.018 A 
BRANCH  11  16
HETATM   16  S   UNL     1      38.751 -12.370   0.638  1.00  0.00    -0.129 SA
BRANCH  16  17
HETATM   17  C   UNL     1      37.003 -12.868   0.534  1.00  0.00     0.075 C 
HETATM   18  C   UNL     1      36.130 -11.644   0.326  1.00  0.00     0.016 C 
ENDBRANCH  16  17
ENDBRANCH  11  16
ENDBRANCH   7  10
ENDBRANCH   1   6
BRANCH   2  19
HETATM   19  C   UNL     1      41.823 -15.324  -0.008  1.00  0.00     0.732 A 
HETATM   20  N   UNL     1      42.067 -14.047  -0.082  1.00  0.00    -0.067 NA
HETATM   21  C   UNL     1      41.690 -13.474  -1.264  1.00  0.00     0.065 A 
HETATM   22  C   UNL     1      41.124 -14.104  -2.295  1.00  0.00     0.036 A 
HETATM   23  C   UNL     1      41.871 -12.022  -1.552  1.00  0.00     0.061 C 
HETATM   24  C   UNL     1      40.825 -13.215  -3.439  1.00  0.00     0.047 C 
HETATM   25  C   UNL     1      40.860 -15.538  -2.198  1.00  0.00     0.268 A 
HETATM   26  C   UNL     1      41.014 -11.827  -2.811  1.00  0.00     0.011 C 
HETATM   27  O   UNL     1      40.346 -16.179  -3.104  1.00  0.00    -0.267 OA
HETATM   28  N   UNL     1      41.244 -16.079  -1.003  1.00  0.00    -0.152 N 
HETATM   29  H   UNL     1      41.097 -17.071  -0.843  1.00  0.00     0.188 HD
ENDBRANCH   2  19
BRANCH   4  30
HETATM   30  C   UNL     1      43.513 -19.086   2.528  1.00  0.00     0.105 A 
HETATM   31  O   UNL     1      44.295 -19.320   3.626  1.00  0.00    -0.320 OA
HETATM   32  C   UNL     1      44.701 -20.613   3.567  1.00  0.00     0.142 A 
HETATM   33  C   UNL     1      44.194 -21.227   2.447  1.00  0.00     0.027 A 
HETATM   34  C   UNL     1      43.427 -20.244   1.776  1.00  0.00     0.041 A 
ENDBRANCH   4  30
TORSDOF 6
ENDMDL
MODEL 9
REMARK VINA RESULT:      -8.0      2.223      7.360
REMARK  6 active torsions:
REMARK  status: ('A' for Active; 'I' for Inactive)
REMARK    1  A    between atoms: C_2  and  S_3 
REMARK    2  A    between atoms: S_3  and  C_4 
REMARK    3  A    between atoms: C_5  and  C_6 
REMARK       I    between atoms: C_6  and  N_7 
REMARK    4  A    between atoms: N_7  and  C_8 
REMARK    5  A    between atoms: N_9  and  C_10 
REMARK    6  A    between atoms: C_21  and  C_22 
ROOT
HETATM    1  C   UNL     1      42.309 -16.721   3.339  1.00  0.00     0.152 A 
HETATM    2  N   UNL     1      41.916 -16.960   2.030  1.00  0.00    -0.044 N 
HETATM    3  N   UNL     1      42.317 -18.187   1.578  1.00  0.00    -0.148 NA
HETATM    4  C   UNL     1      42.971 -18.713   2.623  1.00  0.00     0.115 A 
HETATM    5  C   UNL     1      42.989 -17.850   3.737  1.00  0.00     0.087 A 
ENDROOT
BRANCH   1   6
HETATM    6  N   UNL     1      42.011 -15.537   3.993  1.00  0.00    -0.307 N 
HETATM    7  C   UNL     1      41.262 -15.472   5.150  1.00  0.00     0.258 C 
HETATM    8  O   UNL     1      40.691 -16.392   5.721  1.00  0.00    -0.267 OA
HETATM    9  H   UNL     1      42.350 -14.672   3.571  1.00  0.00     0.170 HD
BRANCH   7  10
HETATM   10  C   UNL     1      41.088 -14.095   5.656  1.00  0.00     0.049 A 
HETATM   11  C   UNL     1      42.172 -13.236   5.898  1.00  0.00     0.016 A 
HETATM   12  C   UNL     1      41.904 -11.936   6.352  1.00  0.00     0.019 A 
HETATM   13  C   UNL     1      40.589 -11.502   6.546  1.00  0.00     0.001 A 
HETATM   14  C   UNL     1      39.523 -12.366   6.304  1.00  0.00     0.001 A 
HETATM   15  C   UNL     1      39.770 -13.663   5.865  1.00  0.00     0.018 A 
BRANCH  11  16
HETATM   16  S   UNL     1      43.882 -13.743   5.748  1.00  0.00    -0.129 SA
BRANCH  16  17
HETATM   17  C   UNL     1      44.033 -14.767   7.245  1.00  0.00     0.075 C 
HETATM   18  C   UNL     1      44.345 -16.202   6.859  1.00  0.00     0.016 C 
ENDBRANCH  16  17
ENDBRANCH  11  16
ENDBRANCH   7  10
ENDBRANCH   1   6
BRANCH   2  19
HETATM   19  C   UNL     1      41.178 -16.114   1.180  1.00  0.00     0.732 A 
HETATM   20  N   UNL     1      40.214 -15.344   1.597  1.00  0.00    -0.067 NA
HETATM   21  C   UNL     1      39.620 -14.609   0.610  1.00  0.00     0.065 A 
HETATM   22  C   UNL     1      39.949 -14.622  -0.682  1.00  0.00     0.036 A 
HETATM   23  C   UNL     1      38.491 -13.671   0.870  1.00  0.00     0.061 C 
HETATM   24  C   UNL     1      39.120 -13.720  -1.513  1.00  0.00     0.047 C 
HETATM   25  C   UNL     1      41.036 -15.489  -1.135  1.00  0.00     0.268 A 
HETATM   26  C   UNL     1      37.981 -13.369  -0.547  1.00  0.00     0.011 C 
HETATM   27  O   UNL     1      41.390 -15.550  -2.303  1.00  0.00    -0.267 OA
HETATM   28  N   UNL     1      41.604 -16.213  -0.125  1.00  0.00    -0.152 N 
HETATM   29  H   UNL     1      42.367 -16.847  -0.345  1.00  0.00     0.188 HD
ENDBRANCH   2  19
BRANCH   4  30
HETATM   30  C   UNL     1      43.603 -20.064   2.579  1.00  0.00     0.105 A 
HETATM   31  O   UNL     1      44.358 -20.598   3.588  1.00  0.00    -0.320 OA
HETATM   32  C   UNL     1      44.761 -21.829   3.185  1.00  0.00     0.142 A 
HETATM   33  C   UNL     1      44.278 -22.108   1.929  1.00  0.00     0.027 A 
HETATM   34  C   UNL     1      43.530 -20.970   1.537  1.00  0.00     0.041 A 
ENDBRANCH   4  30
TORSDOF 6
ENDMDL
MODEL 10
REMARK VINA RESULT:      -7.9      2.893      7.974
REMARK  6 active torsions:
REMARK  status: ('A' for Active; 'I' for Inactive)
REMARK    1  A    between atoms: C_2  and  S_3 
REMARK    2  A    between atoms: S_3  and  C_4 
REMARK    3  A    between atoms: C_5  and  C_6 
REMARK       I    between atoms: C_6  and  N_7 
REMARK    4  A    between atoms: N_7  and  C_8 
REMARK    5  A    between atoms: N_9  and  C_10 
REMARK    6  A    between atoms: C_21  and  C_22 
ROOT
HETATM    1  C   UNL     1      42.183 -16.198   3.348  1.00  0.00     0.152 A 
HETATM    2  N   UNL     1      41.812 -16.423   2.031  1.00  0.00    -0.044 N 
HETATM    3  N   UNL     1      42.198 -17.654   1.579  1.00  0.00    -0.148 NA
HETATM    4  C   UNL     1      42.822 -18.198   2.634  1.00  0.00     0.115 A 
HETATM    5  C   UNL     1      42.835 -17.340   3.752  1.00  0.00     0.087 A 
ENDROOT
BRANCH   1   6
HETATM    6  N   UNL     1      41.896 -15.011   4.002  1.00  0.00    -0.307 N 
HETATM    7  C   UNL     1      42.647 -13.862   3.860  1.00  0.00     0.258 C 
HETATM    8  O   UNL     1      43.689 -13.724   3.234  1.00  0.00    -0.267 OA
HETATM    9  H   UNL     1      41.098 -15.008   4.637  1.00  0.00     0.170 HD
BRANCH   7  10
HETATM   10  C   UNL     1      42.134 -12.728   4.658  1.00  0.00     0.049 A 
HETATM   11  C   UNL     1      41.361 -11.698   4.097  1.00  0.00     0.016 A 
HETATM   12  C   UNL     1      40.897 -10.679   4.941  1.00  0.00     0.019 A 
HETATM   13  C   UNL     1      41.186 -10.694   6.310  1.00  0.00     0.001 A 
HETATM   14  C   UNL     1      41.956 -11.721   6.852  1.00  0.00     0.001 A 
HETATM   15  C   UNL     1      42.436 -12.735   6.028  1.00  0.00     0.018 A 
BRANCH  11  16
HETATM   16  S   UNL     1      41.016 -11.568   2.347  1.00  0.00    -0.129 SA
BRANCH  16  17
HETATM   17  C   UNL     1      39.230 -11.223   2.409  1.00  0.00     0.075 C 
HETATM   18  C   UNL     1      38.846 -10.289   1.274  1.00  0.00     0.016 C 
ENDBRANCH  16  17
ENDBRANCH  11  16
ENDBRANCH   7  10
ENDBRANCH   1   6
BRANCH   2  19
HETATM   19  C   UNL     1      41.105 -15.559   1.170  1.00  0.00     0.732 A 
HETATM   20  N   UNL     1      39.851 -15.251   1.338  1.00  0.00    -0.067 NA
HETATM   21  C   UNL     1      39.354 -14.405   0.387  1.00  0.00     0.065 A 
HETATM   22  C   UNL     1      40.032 -13.895  -0.642  1.00  0.00     0.036 A 
HETATM   23  C   UNL     1      37.938 -13.933   0.387  1.00  0.00     0.061 C 
HETATM   24  C   UNL     1      39.220 -13.010  -1.506  1.00  0.00     0.047 C 
HETATM   25  C   UNL     1      41.440 -14.248  -0.814  1.00  0.00     0.268 A 
HETATM   26  C   UNL     1      37.799 -13.312  -1.011  1.00  0.00     0.011 C 
HETATM   27  O   UNL     1      42.123 -13.817  -1.732  1.00  0.00    -0.267 OA
HETATM   28  N   UNL     1      41.905 -15.098   0.150  1.00  0.00    -0.152 N 
HETATM   29  H   UNL     1      42.874 -15.402   0.111  1.00  0.00     0.188 HD
ENDBRANCH   2  19
BRANCH   4  30
HETATM   30  C   UNL     1      43.430 -19.560   2.596  1.00  0.00     0.105 A 
HETATM   31  O   UNL     1      43.077 -20.541   1.709  1.00  0.00    -0.320 OA
HETATM   32  C   UNL     1      43.838 -21.630   1.985  1.00  0.00     0.142 A 
HETATM   33  C   UNL     1      44.684 -21.373   3.036  1.00  0.00     0.027 A 
HETATM   34  C   UNL     1      44.424 -20.038   3.431  1.00  0.00     0.041 A 
ENDBRANCH   4  30
TORSDOF 6
ENDMDL
