MODEL 1
REMARK VINA RESULT:      -9.3      0.000      0.000
REMARK  5 active torsions:
REMARK  status: ('A' for Active; 'I' for Inactive)
REMARK    1  A    between atoms: C_4  and  C_5 
REMARK    2  A    between atoms: C_9  and  C_10 
REMARK       I    between atoms: C_10  and  N_11 
REMARK    3  A    between atoms: N_11  and  C_12 
REMARK    4  A    between atoms: C_14  and  C_15 
REMARK       I    between atoms: C_15  and  N_16 
REMARK    5  A    between atoms: N_16  and  C_17 
ROOT
HETATM    1  C   UNL     1      44.134 -15.521   7.173  1.00  0.00     0.276 C 
HETATM    2  N   UNL     1      44.637 -14.270   6.861  1.00  0.00    -0.322 N 
HETATM    3  O   UNL     1      43.865 -15.936   8.295  1.00  0.00    -0.266 OA
HETATM    4  H   UNL     1      44.723 -14.101   5.860  1.00  0.00     0.169 HD
ENDROOT
BRANCH   2   5
HETATM    5  C   UNL     1      44.946 -13.229   7.755  1.00  0.00     0.036 A 
HETATM    6  C   UNL     1      44.001 -12.657   8.611  1.00  0.00     0.046 A 
HETATM    7  C   UNL     1      44.339 -11.579   9.440  1.00  0.00     0.034 A 
HETATM    8  C   UNL     1      45.654 -11.108   9.457  1.00  0.00     0.017 A 
HETATM    9  C   UNL     1      46.614 -11.695   8.631  1.00  0.00     0.003 A 
HETATM   10  C   UNL     1      46.259 -12.748   7.781  1.00  0.00     0.029 A 
BRANCH   7  11
HETATM   11  C   UNL     1      43.323 -10.937  10.323  1.00  0.00     0.252 C 
HETATM   12  N   UNL     1      43.816 -10.314  11.456  1.00  0.00    -0.352 N 
HETATM   13  H   UNL     1      44.797 -10.412  11.687  1.00  0.00     0.163 HD
HETATM   14  O   UNL     1      42.133 -11.002  10.033  1.00  0.00    -0.268 OA
BRANCH  12  15
HETATM   15  C   UNL     1      42.995  -9.606  12.386  1.00  0.00     0.084 A 
HETATM   16  C   UNL     1      42.360 -10.327  13.543  1.00  0.00     0.027 A 
HETATM   17  C   UNL     1      43.490  -9.373  13.790  1.00  0.00     0.027 A 
ENDBRANCH  12  15
ENDBRANCH   7  11
ENDBRANCH   2   5
BRANCH   1  18
HETATM   18  C   UNL     1      43.898 -16.354   5.983  1.00  0.00     0.147 A 
HETATM   19  N   UNL     1      43.188 -15.930   4.919  1.00  0.00    -0.169 NA
HETATM   20  N   UNL     1      43.211 -16.988   4.080  1.00  0.00    -0.277 N 
HETATM   21  C   UNL     1      43.903 -18.074   4.553  1.00  0.00     0.063 A 
HETATM   22  H   UNL     1      42.716 -16.912   3.199  1.00  0.00     0.189 HD
HETATM   23  C   UNL     1      44.354 -17.681   5.795  1.00  0.00     0.071 A 
BRANCH  21  24
HETATM   24  C   UNL     1      44.050 -19.340   3.841  1.00  0.00    -0.008 A 
HETATM   25  C   UNL     1      44.643 -20.456   4.445  1.00  0.00     0.014 A 
HETATM   26  C   UNL     1      44.753 -21.664   3.752  1.00  0.00     0.001 A 
HETATM   27  C   UNL     1      44.274 -21.770   2.447  1.00  0.00     0.000 A 
HETATM   28  C   UNL     1      43.682 -20.669   1.835  1.00  0.00     0.001 A 
HETATM   29  C   UNL     1      43.570 -19.462   2.529  1.00  0.00     0.014 A 
ENDBRANCH  21  24
ENDBRANCH   1  18
TORSDOF 5
ENDMDL
MODEL 2
REMARK VINA RESULT:      -9.0      1.949     10.446
REMARK  5 active torsions:
REMARK  status: ('A' for Active; 'I' for Inactive)
REMARK    1  A    between atoms: C_4  and  C_5 
REMARK    2  A    between atoms: C_9  and  C_10 
REMARK       I    between atoms: C_10  and  N_11 
REMARK    3  A    between atoms: N_11  and  C_12 
REMARK    4  A    between atoms: C_14  and  C_15 
REMARK       I    between atoms: C_15  and  N_16 
REMARK    5  A    between atoms: N_16  and  C_17 
ROOT
HETATM    1  C   UNL     1      44.379 -13.898   6.898  1.00  0.00     0.276 C 
HETATM    2  N   UNL     1      43.441 -14.890   7.127  1.00  0.00    -0.322 N 
HETATM    3  O   UNL     1      45.009 -13.721   5.861  1.00  0.00    -0.266 OA
HETATM    4  H   UNL     1      42.980 -14.817   8.033  1.00  0.00     0.169 HD
ENDROOT
BRANCH   2   5
HETATM    5  C   UNL     1      43.024 -15.891   6.231  1.00  0.00     0.036 A 
HETATM    6  C   UNL     1      43.830 -16.975   5.875  1.00  0.00     0.046 A 
HETATM    7  C   UNL     1      43.396 -17.914   4.929  1.00  0.00     0.034 A 
HETATM    8  C   UNL     1      42.117 -17.801   4.381  1.00  0.00     0.017 A 
HETATM    9  C   UNL     1      41.290 -16.741   4.756  1.00  0.00     0.003 A 
HETATM   10  C   UNL     1      41.744 -15.788   5.674  1.00  0.00     0.029 A 
BRANCH   7  11
HETATM   11  C   UNL     1      44.270 -19.049   4.513  1.00  0.00     0.252 C 
HETATM   12  N   UNL     1      43.945 -19.651   3.310  1.00  0.00    -0.352 N 
HETATM   13  H   UNL     1      43.093 -19.378   2.834  1.00  0.00     0.163 HD
HETATM   14  O   UNL     1      45.195 -19.405   5.235  1.00  0.00    -0.268 OA
BRANCH  12  15
HETATM   15  C   UNL     1      44.701 -20.716   2.731  1.00  0.00     0.084 A 
HETATM   16  C   UNL     1      44.422 -22.142   3.116  1.00  0.00     0.027 A 
HETATM   17  C   UNL     1      44.042 -21.651   1.752  1.00  0.00     0.027 A 
ENDBRANCH  12  15
ENDBRANCH   7  11
ENDBRANCH   2   5
BRANCH   1  18
HETATM   18  C   UNL     1      44.549 -12.997   8.049  1.00  0.00     0.147 A 
HETATM   19  N   UNL     1      45.714 -12.867   8.713  1.00  0.00    -0.169 NA
HETATM   20  N   UNL     1      45.430 -11.968   9.679  1.00  0.00    -0.277 N 
HETATM   21  C   UNL     1      44.136 -11.513   9.669  1.00  0.00     0.063 A 
HETATM   22  H   UNL     1      46.164 -11.717  10.332  1.00  0.00     0.189 HD
HETATM   23  C   UNL     1      43.545 -12.177   8.616  1.00  0.00     0.071 A 
BRANCH  21  24
HETATM   24  C   UNL     1      43.584 -10.556  10.625  1.00  0.00    -0.008 A 
HETATM   25  C   UNL     1      42.502  -9.731  10.293  1.00  0.00     0.014 A 
HETATM   26  C   UNL     1      41.976  -8.839  11.232  1.00  0.00     0.001 A 
HETATM   27  C   UNL     1      42.526  -8.760  12.510  1.00  0.00     0.000 A 
HETATM   28  C   UNL     1      43.602  -9.575  12.853  1.00  0.00     0.001 A 
HETATM   29  C   UNL     1      44.126 -10.468  11.916  1.00  0.00     0.014 A 
ENDBRANCH  21  24
ENDBRANCH   1  18
TORSDOF 5
ENDMDL
MODEL 3
REMARK VINA RESULT:      -8.8      2.970      3.945
REMARK  5 active torsions:
REMARK  status: ('A' for Active; 'I' for Inactive)
REMARK    1  A    between atoms: C_4  and  C_5 
REMARK    2  A    between atoms: C_9  and  C_10 
REMARK       I    between atoms: C_10  and  N_11 
REMARK    3  A    between atoms: N_11  and  C_12 
REMARK    4  A    between atoms: C_14  and  C_15 
REMARK       I    between atoms: C_15  and  N_16 
REMARK    5  A    between atoms: N_16  and  C_17 
ROOT
HETATM    1  C   UNL     1      42.762 -14.597   3.173  1.00  0.00     0.276 C 
HETATM    2  N   UNL     1      41.844 -14.636   4.208  1.00  0.00    -0.322 N 
HETATM    3  O   UNL     1      43.281 -13.591   2.701  1.00  0.00    -0.266 OA
HETATM    4  H   UNL     1      41.591 -15.580   4.496  1.00  0.00     0.169 HD
ENDROOT
BRANCH   2   5
HETATM    5  C   UNL     1      41.320 -13.544   4.923  1.00  0.00     0.036 A 
HETATM    6  C   UNL     1      42.068 -12.811   5.848  1.00  0.00     0.046 A 
HETATM    7  C   UNL     1      41.485 -11.771   6.583  1.00  0.00     0.034 A 
HETATM    8  C   UNL     1      40.154 -11.419   6.346  1.00  0.00     0.017 A 
HETATM    9  C   UNL     1      39.408 -12.123   5.399  1.00  0.00     0.003 A 
HETATM   10  C   UNL     1      39.988 -13.183   4.694  1.00  0.00     0.029 A 
BRANCH   7  11
HETATM   11  C   UNL     1      42.268 -11.014   7.603  1.00  0.00     0.252 C 
HETATM   12  N   UNL     1      43.101 -11.772   8.408  1.00  0.00    -0.352 N 
HETATM   13  H   UNL     1      43.062 -12.783   8.348  1.00  0.00     0.163 HD
HETATM   14  O   UNL     1      42.133  -9.799   7.699  1.00  0.00    -0.268 OA
BRANCH  12  15
HETATM   15  C   UNL     1      43.961 -11.211   9.401  1.00  0.00     0.084 A 
HETATM   16  C   UNL     1      44.508 -12.072  10.506  1.00  0.00     0.027 A 
HETATM   17  C   UNL     1      45.420 -11.585   9.420  1.00  0.00     0.027 A 
ENDBRANCH  12  15
ENDBRANCH   7  11
ENDBRANCH   2   5
BRANCH   1  18
HETATM   18  C   UNL     1      43.115 -15.935   2.673  1.00  0.00     0.147 A 
HETATM   19  N   UNL     1      43.213 -16.226   1.360  1.00  0.00    -0.169 NA
HETATM   20  N   UNL     1      43.540 -17.536   1.350  1.00  0.00    -0.277 N 
HETATM   21  C   UNL     1      43.656 -18.104   2.593  1.00  0.00     0.063 A 
HETATM   22  H   UNL     1      43.652 -17.995   0.453  1.00  0.00     0.189 HD
HETATM   23  C   UNL     1      43.378 -17.076   3.468  1.00  0.00     0.071 A 
BRANCH  21  24
HETATM   24  C   UNL     1      43.978 -19.506   2.840  1.00  0.00    -0.008 A 
HETATM   25  C   UNL     1      44.562 -19.923   4.042  1.00  0.00     0.014 A 
HETATM   26  C   UNL     1      44.841 -21.274   4.265  1.00  0.00     0.001 A 
HETATM   27  C   UNL     1      44.541 -22.223   3.290  1.00  0.00     0.000 A 
HETATM   28  C   UNL     1      43.959 -21.823   2.090  1.00  0.00     0.001 A 
HETATM   29  C   UNL     1      43.679 -20.472   1.868  1.00  0.00     0.014 A 
ENDBRANCH  21  24
ENDBRANCH   1  18
TORSDOF 5
ENDMDL
MODEL 4
REMARK VINA RESULT:      -8.5      7.482     11.083
REMARK  5 active torsions:
REMARK  status: ('A' for Active; 'I' for Inactive)
REMARK    1  A    between atoms: C_4  and  C_5 
REMARK    2  A    between atoms: C_9  and  C_10 
REMARK       I    between atoms: C_10  and  N_11 
REMARK    3  A    between atoms: N_11  and  C_12 
REMARK    4  A    between atoms: C_14  and  C_15 
REMARK       I    between atoms: C_15  and  N_16 
REMARK    5  A    between atoms: N_16  and  C_17 
ROOT
HETATM    1  C   UNL     1      41.657 -15.365   0.804  1.00  0.00     0.276 C 
HETATM    2  N   UNL     1      41.864 -15.473  -0.560  1.00  0.00    -0.322 N 
HETATM    3  O   UNL     1      40.869 -14.608   1.361  1.00  0.00    -0.266 OA
HETATM    4  H   UNL     1      42.512 -16.216  -0.818  1.00  0.00     0.169 HD
ENDROOT
BRANCH   2   5
HETATM    5  C   UNL     1      41.227 -14.742  -1.579  1.00  0.00     0.036 A 
HETATM    6  C   UNL     1      40.080 -15.197  -2.236  1.00  0.00     0.046 A 
HETATM    7  C   UNL     1      39.516 -14.464  -3.289  1.00  0.00     0.034 A 
HETATM    8  C   UNL     1      40.069 -13.233  -3.647  1.00  0.00     0.017 A 
HETATM    9  C   UNL     1      41.194 -12.754  -2.974  1.00  0.00     0.003 A 
HETATM   10  C   UNL     1      41.772 -13.508  -1.948  1.00  0.00     0.029 A 
BRANCH   7  11
HETATM   11  C   UNL     1      38.318 -14.966  -4.022  1.00  0.00     0.252 C 
HETATM   12  N   UNL     1      37.252 -14.088  -4.108  1.00  0.00    -0.352 N 
HETATM   13  H   UNL     1      37.286 -13.216  -3.594  1.00  0.00     0.163 HD
HETATM   14  O   UNL     1      38.316 -16.102  -4.484  1.00  0.00    -0.268 OA
BRANCH  12  15
HETATM   15  C   UNL     1      36.045 -14.380  -4.816  1.00  0.00     0.084 A 
HETATM   16  C   UNL     1      34.878 -13.435  -4.749  1.00  0.00     0.027 A 
HETATM   17  C   UNL     1      35.668 -13.553  -6.017  1.00  0.00     0.027 A 
ENDBRANCH  12  15
ENDBRANCH   7  11
ENDBRANCH   2   5
BRANCH   1  18
HETATM   18  C   UNL     1      42.476 -16.308   1.582  1.00  0.00     0.147 A 
HETATM   19  N   UNL     1      43.370 -15.912   2.510  1.00  0.00    -0.169 NA
HETATM   20  N   UNL     1      43.894 -17.071   2.962  1.00  0.00    -0.277 N 
HETATM   21  C   UNL     1      43.380 -18.196   2.369  1.00  0.00     0.063 A 
HETATM   22  H   UNL     1      44.619 -17.026   3.669  1.00  0.00     0.189 HD
HETATM   23  C   UNL     1      42.458 -17.718   1.463  1.00  0.00     0.071 A 
BRANCH  21  24
HETATM   24  C   UNL     1      43.801 -19.561   2.672  1.00  0.00    -0.008 A 
HETATM   25  C   UNL     1      44.414 -19.885   3.889  1.00  0.00     0.014 A 
HETATM   26  C   UNL     1      44.788 -21.203   4.167  1.00  0.00     0.001 A 
HETATM   27  C   UNL     1      44.555 -22.210   3.233  1.00  0.00     0.000 A 
HETATM   28  C   UNL     1      43.945 -21.902   2.019  1.00  0.00     0.001 A 
HETATM   29  C   UNL     1      43.570 -20.586   1.743  1.00  0.00     0.014 A 
ENDBRANCH  21  24
ENDBRANCH   1  18
TORSDOF 5
ENDMDL
MODEL 5
REMARK VINA RESULT:      -8.3      2.170      9.931
REMARK  5 active torsions:
REMARK  status: ('A' for Active; 'I' for Inactive)
REMARK    1  A    between atoms: C_4  and  C_5 
REMARK    2  A    between atoms: C_9  and  C_10 
REMARK       I    between atoms: C_10  and  N_11 
REMARK    3  A    between atoms: N_11  and  C_12 
REMARK    4  A    between atoms: C_14  and  C_15 
REMARK       I    between atoms: C_15  and  N_16 
REMARK    5  A    between atoms: N_16  and  C_17 
ROOT
HETATM    1  C   UNL     1      44.770 -13.188   7.719  1.00  0.00     0.276 C 
HETATM    2  N   UNL     1      43.503 -13.458   7.231  1.00  0.00    -0.322 N 
HETATM    3  O   UNL     1      45.830 -13.391   7.138  1.00  0.00    -0.266 OA
HETATM    4  H   UNL     1      42.752 -13.146   7.845  1.00  0.00     0.169 HD
ENDROOT
BRANCH   2   5
HETATM    5  C   UNL     1      43.173 -14.019   5.984  1.00  0.00     0.036 A 
HETATM    6  C   UNL     1      43.058 -15.396   5.777  1.00  0.00     0.046 A 
HETATM    7  C   UNL     1      42.790 -15.913   4.502  1.00  0.00     0.034 A 
HETATM    8  C   UNL     1      42.573 -15.038   3.435  1.00  0.00     0.017 A 
HETATM    9  C   UNL     1      42.651 -13.659   3.638  1.00  0.00     0.003 A 
HETATM   10  C   UNL     1      42.954 -13.153   4.907  1.00  0.00     0.029 A 
BRANCH   7  11
HETATM   11  C   UNL     1      42.710 -17.383   4.267  1.00  0.00     0.252 C 
HETATM   12  N   UNL     1      43.846 -18.107   4.583  1.00  0.00    -0.352 N 
HETATM   13  H   UNL     1      44.691 -17.613   4.845  1.00  0.00     0.163 HD
HETATM   14  O   UNL     1      41.686 -17.873   3.802  1.00  0.00    -0.268 OA
BRANCH  12  15
HETATM   15  C   UNL     1      43.931 -19.529   4.471  1.00  0.00     0.084 A 
HETATM   16  C   UNL     1      45.269 -20.214   4.498  1.00  0.00     0.027 A 
HETATM   17  C   UNL     1      44.340 -20.347   5.668  1.00  0.00     0.027 A 
ENDBRANCH  12  15
ENDBRANCH   7  11
ENDBRANCH   2   5
BRANCH   1  18
HETATM   18  C   UNL     1      44.746 -12.569   9.054  1.00  0.00     0.147 A 
HETATM   19  N   UNL     1      45.842 -12.459   9.832  1.00  0.00    -0.169 NA
HETATM   20  N   UNL     1      45.380 -11.855  10.947  1.00  0.00    -0.277 N 
HETATM   21  C   UNL     1      44.038 -11.570  10.926  1.00  0.00     0.063 A 
HETATM   22  H   UNL     1      46.033 -11.678  11.702  1.00  0.00     0.189 HD
HETATM   23  C   UNL     1      43.607 -12.034   9.701  1.00  0.00     0.071 A 
BRANCH  21  24
HETATM   24  C   UNL     1      43.305 -10.940  12.020  1.00  0.00    -0.008 A 
HETATM   25  C   UNL     1      43.822  -9.834  12.706  1.00  0.00     0.014 A 
HETATM   26  C   UNL     1      43.092  -9.233  13.735  1.00  0.00     0.001 A 
HETATM   27  C   UNL     1      41.839  -9.730  14.090  1.00  0.00     0.000 A 
HETATM   28  C   UNL     1      41.314 -10.829  13.416  1.00  0.00     0.001 A 
HETATM   29  C   UNL     1      42.042 -11.428  12.386  1.00  0.00     0.014 A 
ENDBRANCH  21  24
ENDBRANCH   1  18
TORSDOF 5
ENDMDL
MODEL 6
REMARK VINA RESULT:      -8.2      2.514      9.990
REMARK  5 active torsions:
REMARK  status: ('A' for Active; 'I' for Inactive)
REMARK    1  A    between atoms: C_4  and  C_5 
REMARK    2  A    between atoms: C_9  and  C_10 
REMARK       I    between atoms: C_10  and  N_11 
REMARK    3  A    between atoms: N_11  and  C_12 
REMARK    4  A    between atoms: C_14  and  C_15 
REMARK       I    between atoms: C_15  and  N_16 
REMARK    5  A    between atoms: N_16  and  C_17 
ROOT
HETATM    1  C   UNL     1      45.172 -13.372   7.482  1.00  0.00     0.276 C 
HETATM    2  N   UNL     1      44.172 -14.323   7.593  1.00  0.00    -0.322 N 
HETATM    3  O   UNL     1      46.061 -13.350   6.637  1.00  0.00    -0.266 OA
HETATM    4  H   UNL     1      43.490 -14.117   8.321  1.00  0.00     0.169 HD
ENDROOT
BRANCH   2   5
HETATM    5  C   UNL     1      43.973 -15.449   6.774  1.00  0.00     0.036 A 
HETATM    6  C   UNL     1      43.053 -15.471   5.723  1.00  0.00     0.046 A 
HETATM    7  C   UNL     1      42.842 -16.637   4.974  1.00  0.00     0.034 A 
HETATM    8  C   UNL     1      43.607 -17.775   5.241  1.00  0.00     0.017 A 
HETATM    9  C   UNL     1      44.553 -17.753   6.266  1.00  0.00     0.003 A 
HETATM   10  C   UNL     1      44.732 -16.596   7.032  1.00  0.00     0.029 A 
BRANCH   7  11
HETATM   11  C   UNL     1      41.830 -16.678   3.880  1.00  0.00     0.252 C 
HETATM   12  N   UNL     1      42.155 -15.978   2.731  1.00  0.00    -0.352 N 
HETATM   13  H   UNL     1      42.984 -15.397   2.724  1.00  0.00     0.163 HD
HETATM   14  O   UNL     1      40.780 -17.291   4.042  1.00  0.00    -0.268 OA
BRANCH  12  15
HETATM   15  C   UNL     1      41.329 -15.949   1.566  1.00  0.00     0.084 A 
HETATM   16  C   UNL     1      41.750 -15.163   0.355  1.00  0.00     0.027 A 
HETATM   17  C   UNL     1      41.779 -16.662   0.317  1.00  0.00     0.027 A 
ENDBRANCH  12  15
ENDBRANCH   7  11
ENDBRANCH   2   5
BRANCH   1  18
HETATM   18  C   UNL     1      45.062 -12.307   8.492  1.00  0.00     0.147 A 
HETATM   19  N   UNL     1      46.083 -11.485   8.806  1.00  0.00    -0.169 NA
HETATM   20  N   UNL     1      45.564 -10.686   9.762  1.00  0.00    -0.277 N 
HETATM   21  C   UNL     1      44.256 -10.955  10.079  1.00  0.00     0.063 A 
HETATM   22  H   UNL     1      46.164  -9.982  10.176  1.00  0.00     0.189 HD
HETATM   23  C   UNL     1      43.914 -12.012   9.264  1.00  0.00     0.071 A 
BRANCH  21  24
HETATM   24  C   UNL     1      43.485 -10.243  11.094  1.00  0.00    -0.008 A 
HETATM   25  C   UNL     1      43.909 -10.183  12.428  1.00  0.00     0.014 A 
HETATM   26  C   UNL     1      43.166  -9.477  13.378  1.00  0.00     0.001 A 
HETATM   27  C   UNL     1      41.991  -8.825  13.007  1.00  0.00     0.000 A 
HETATM   28  C   UNL     1      41.558  -8.877  11.685  1.00  0.00     0.001 A 
HETATM   29  C   UNL     1      42.302  -9.580  10.735  1.00  0.00     0.014 A 
ENDBRANCH  21  24
ENDBRANCH   1  18
TORSDOF 5
ENDMDL
MODEL 7
REMARK VINA RESULT:      -8.1      7.419      9.582
REMARK  5 active torsions:
REMARK  status: ('A' for Active; 'I' for Inactive)
REMARK    1  A    between atoms: C_4  and  C_5 
REMARK    2  A    between atoms: C_9  and  C_10 
REMARK       I    between atoms: C_10  and  N_11 
REMARK    3  A    between atoms: N_11  and  C_12 
REMARK    4  A    between atoms: C_14  and  C_15 
REMARK       I    between atoms: C_15  and  N_16 
REMARK    5  A    between atoms: N_16  and  C_17 
ROOT
HETATM    1  C   UNL     1      41.538 -15.244   0.891  1.00  0.00     0.276 C 
HETATM    2  N   UNL     1      41.807 -15.497  -0.443  1.00  0.00    -0.322 N 
HETATM    3  O   UNL     1      40.928 -14.279   1.338  1.00  0.00    -0.266 OA
HETATM    4  H   UNL     1      42.265 -16.392  -0.606  1.00  0.00     0.169 HD
ENDROOT
BRANCH   2   5
HETATM    5  C   UNL     1      41.446 -14.707  -1.549  1.00  0.00     0.036 A 
HETATM    6  C   UNL     1      42.054 -13.483  -1.840  1.00  0.00     0.046 A 
HETATM    7  C   UNL     1      41.618 -12.700  -2.917  1.00  0.00     0.034 A 
HETATM    8  C   UNL     1      40.601 -13.175  -3.749  1.00  0.00     0.017 A 
HETATM    9  C   UNL     1      40.010 -14.412  -3.487  1.00  0.00     0.003 A 
HETATM   10  C   UNL     1      40.428 -15.172  -2.389  1.00  0.00     0.029 A 
BRANCH   7  11
HETATM   11  C   UNL     1      42.235 -11.373  -3.205  1.00  0.00     0.252 C 
HETATM   12  N   UNL     1      42.417 -10.542  -2.113  1.00  0.00    -0.352 N 
HETATM   13  H   UNL     1      42.036 -10.815  -1.215  1.00  0.00     0.163 HD
HETATM   14  O   UNL     1      42.527 -11.073  -4.358  1.00  0.00    -0.268 OA
BRANCH  12  15
HETATM   15  C   UNL     1      43.039  -9.259  -2.194  1.00  0.00     0.084 A 
HETATM   16  C   UNL     1      42.755  -8.210  -1.156  1.00  0.00     0.027 A 
HETATM   17  C   UNL     1      44.096  -8.879  -1.191  1.00  0.00     0.027 A 
ENDBRANCH  12  15
ENDBRANCH   7  11
ENDBRANCH   2   5
BRANCH   1  18
HETATM   18  C   UNL     1      42.039 -16.301   1.784  1.00  0.00     0.147 A 
HETATM   19  N   UNL     1      42.054 -16.182   3.127  1.00  0.00    -0.169 NA
HETATM   20  N   UNL     1      42.590 -17.349   3.543  1.00  0.00    -0.277 N 
HETATM   21  C   UNL     1      42.920 -18.216   2.532  1.00  0.00     0.063 A 
HETATM   22  H   UNL     1      42.722 -17.488   4.538  1.00  0.00     0.189 HD
HETATM   23  C   UNL     1      42.572 -17.547   1.378  1.00  0.00     0.071 A 
BRANCH  21  24
HETATM   24  C   UNL     1      43.531 -19.527   2.729  1.00  0.00    -0.008 A 
HETATM   25  C   UNL     1      44.266 -19.827   3.883  1.00  0.00     0.014 A 
HETATM   26  C   UNL     1      44.823 -21.097   4.059  1.00  0.00     0.001 A 
HETATM   27  C   UNL     1      44.653 -22.079   3.086  1.00  0.00     0.000 A 
HETATM   28  C   UNL     1      43.925 -21.794   1.934  1.00  0.00     0.001 A 
HETATM   29  C   UNL     1      43.366 -20.526   1.758  1.00  0.00     0.014 A 
ENDBRANCH  21  24
ENDBRANCH   1  18
TORSDOF 5
ENDMDL
MODEL 8
REMARK VINA RESULT:      -8.0      6.627      9.276
REMARK  5 active torsions:
REMARK  status: ('A' for Active; 'I' for Inactive)
REMARK    1  A    between atoms: C_4  and  C_5 
REMARK    2  A    between atoms: C_9  and  C_10 
REMARK       I    between atoms: C_10  and  N_11 
REMARK    3  A    between atoms: N_11  and  C_12 
REMARK    4  A    between atoms: C_14  and  C_15 
REMARK       I    between atoms: C_15  and  N_16 
REMARK    5  A    between atoms: N_16  and  C_17 
ROOT
HETATM    1  C   UNL     1      41.499 -15.021   2.553  1.00  0.00     0.276 C 
HETATM    2  N   UNL     1      40.649 -15.376   1.519  1.00  0.00    -0.322 N 
HETATM    3  O   UNL     1      41.576 -13.917   3.082  1.00  0.00    -0.266 OA
HETATM    4  H   UNL     1      40.693 -16.364   1.274  1.00  0.00     0.169 HD
ENDROOT
BRANCH   2   5
HETATM    5  C   UNL     1      39.712 -14.555   0.866  1.00  0.00     0.036 A 
HETATM    6  C   UNL     1      40.040 -13.751  -0.228  1.00  0.00     0.046 A 
HETATM    7  C   UNL     1      39.088 -12.900  -0.807  1.00  0.00     0.034 A 
HETATM    8  C   UNL     1      37.777 -12.901  -0.324  1.00  0.00     0.017 A 
HETATM    9  C   UNL     1      37.432 -13.727   0.747  1.00  0.00     0.003 A 
HETATM   10  C   UNL     1      38.397 -14.547   1.342  1.00  0.00     0.029 A 
BRANCH   7  11
HETATM   11  C   UNL     1      39.444 -12.008  -1.948  1.00  0.00     0.252 C 
HETATM   12  N   UNL     1      40.747 -11.541  -1.964  1.00  0.00    -0.352 N 
HETATM   13  H   UNL     1      41.350 -11.728  -1.172  1.00  0.00     0.163 HD
HETATM   14  O   UNL     1      38.596 -11.716  -2.783  1.00  0.00    -0.268 OA
BRANCH  12  15
HETATM   15  C   UNL     1      41.277 -10.719  -3.006  1.00  0.00     0.084 A 
HETATM   16  C   UNL     1      42.712 -10.272  -2.966  1.00  0.00     0.027 A 
HETATM   17  C   UNL     1      42.278 -11.295  -3.972  1.00  0.00     0.027 A 
ENDBRANCH  12  15
ENDBRANCH   7  11
ENDBRANCH   2   5
BRANCH   1  18
HETATM   18  C   UNL     1      42.329 -16.143   3.020  1.00  0.00     0.147 A 
HETATM   19  N   UNL     1      43.196 -16.036   4.046  1.00  0.00    -0.169 NA
HETATM   20  N   UNL     1      43.742 -17.268   4.130  1.00  0.00    -0.277 N 
HETATM   21  C   UNL     1      43.267 -18.164   3.206  1.00  0.00     0.063 A 
HETATM   22  H   UNL     1      44.453 -17.431   4.834  1.00  0.00     0.189 HD
HETATM   23  C   UNL     1      42.348 -17.446   2.470  1.00  0.00     0.071 A 
BRANCH  21  24
HETATM   24  C   UNL     1      43.717 -19.547   3.083  1.00  0.00    -0.008 A 
HETATM   25  C   UNL     1      44.442 -20.175   4.103  1.00  0.00     0.014 A 
HETATM   26  C   UNL     1      44.844 -21.508   3.972  1.00  0.00     0.001 A 
HETATM   27  C   UNL     1      44.526 -22.227   2.821  1.00  0.00     0.000 A 
HETATM   28  C   UNL     1      43.805 -21.615   1.799  1.00  0.00     0.001 A 
HETATM   29  C   UNL     1      43.402 -20.284   1.931  1.00  0.00     0.014 A 
ENDBRANCH  21  24
ENDBRANCH   1  18
TORSDOF 5
ENDMDL
MODEL 9
REMARK VINA RESULT:      -8.0      3.529     10.151
REMARK  5 active torsions:
REMARK  status: ('A' for Active; 'I' for Inactive)
REMARK    1  A    between atoms: C_4  and  C_5 
REMARK    2  A    between atoms: C_9  and  C_10 
REMARK       I    between atoms: C_10  and  N_11 
REMARK    3  A    between atoms: N_11  and  C_12 
REMARK    4  A    between atoms: C_14  and  C_15 
REMARK       I    between atoms: C_15  and  N_16 
REMARK    5  A    between atoms: N_16  and  C_17 
ROOT
HETATM    1  C   UNL     1      44.805 -13.168   7.695  1.00  0.00     0.276 C 
HETATM    2  N   UNL     1      43.572 -13.564   7.204  1.00  0.00    -0.322 N 
HETATM    3  O   UNL     1      45.891 -13.346   7.155  1.00  0.00    -0.266 OA
HETATM    4  H   UNL     1      42.786 -13.255   7.775  1.00  0.00     0.169 HD
ENDROOT
BRANCH   2   5
HETATM    5  C   UNL     1      43.313 -14.246   6.002  1.00  0.00     0.036 A 
HETATM    6  C   UNL     1      42.846 -13.606   4.851  1.00  0.00     0.046 A 
HETATM    7  C   UNL     1      42.541 -14.336   3.694  1.00  0.00     0.034 A 
HETATM    8  C   UNL     1      42.764 -15.715   3.670  1.00  0.00     0.017 A 
HETATM    9  C   UNL     1      43.262 -16.359   4.804  1.00  0.00     0.003 A 
HETATM   10  C   UNL     1      43.531 -15.627   5.966  1.00  0.00     0.029 A 
BRANCH   7  11
HETATM   11  C   UNL     1      42.002 -13.663   2.477  1.00  0.00     0.252 C 
HETATM   12  N   UNL     1      40.714 -14.015   2.115  1.00  0.00    -0.352 N 
HETATM   13  H   UNL     1      40.249 -14.768   2.607  1.00  0.00     0.163 HD
HETATM   14  O   UNL     1      42.702 -12.870   1.857  1.00  0.00    -0.268 OA
BRANCH  12  15
HETATM   15  C   UNL     1      40.020 -13.434   1.009  1.00  0.00     0.084 A 
HETATM   16  C   UNL     1      39.970 -14.144  -0.315  1.00  0.00     0.027 A 
HETATM   17  C   UNL     1      38.734 -14.053   0.529  1.00  0.00     0.027 A 
ENDBRANCH  12  15
ENDBRANCH   7  11
ENDBRANCH   2   5
BRANCH   1  18
HETATM   18  C   UNL     1      44.705 -12.446   8.973  1.00  0.00     0.147 A 
HETATM   19  N   UNL     1      45.516 -12.694  10.021  1.00  0.00    -0.169 NA
HETATM   20  N   UNL     1      45.081 -11.835  10.968  1.00  0.00    -0.277 N 
HETATM   21  C   UNL     1      44.029 -11.046  10.580  1.00  0.00     0.063 A 
HETATM   22  H   UNL     1      45.537 -11.849  11.873  1.00  0.00     0.189 HD
HETATM   23  C   UNL     1      43.766 -11.434   9.284  1.00  0.00     0.071 A 
BRANCH  21  24
HETATM   24  C   UNL     1      43.372 -10.058  11.432  1.00  0.00    -0.008 A 
HETATM   25  C   UNL     1      42.379  -9.206  10.934  1.00  0.00     0.014 A 
HETATM   26  C   UNL     1      41.749  -8.283  11.773  1.00  0.00     0.001 A 
HETATM   27  C   UNL     1      42.104  -8.201  13.118  1.00  0.00     0.000 A 
HETATM   28  C   UNL     1      43.089  -9.043  13.627  1.00  0.00     0.001 A 
HETATM   29  C   UNL     1      43.718  -9.966  12.788  1.00  0.00     0.014 A 
ENDBRANCH  21  24
ENDBRANCH   1  18
TORSDOF 5
ENDMDL
MODEL 10
REMARK VINA RESULT:      -7.9      7.388      9.510
REMARK  5 active torsions:
REMARK  status: ('A' for Active; 'I' for Inactive)
REMARK    1  A    between atoms: C_4  and  C_5 
REMARK    2  A    between atoms: C_9  and  C_10 
REMARK       I    between atoms: C_10  and  N_11 
REMARK    3  A    between atoms: N_11  and  C_12 
REMARK    4  A    between atoms: C_14  and  C_15 
REMARK       I    between atoms: C_15  and  N_16 
REMARK    5  A    between atoms: N_16  and  C_17 
ROOT
HETATM    1  C   UNL     1      41.965 -15.261   0.811  1.00  0.00     0.276 C 
HETATM    2  N   UNL     1      41.258 -15.801  -0.249  1.00  0.00    -0.322 N 
HETATM    3  O   UNL     1      42.120 -14.067   1.047  1.00  0.00    -0.266 OA
HETATM    4  H   UNL     1      41.191 -16.817  -0.222  1.00  0.00     0.169 HD
ENDROOT
BRANCH   2   5
HETATM    5  C   UNL     1      40.583 -15.103  -1.266  1.00  0.00     0.036 A 
HETATM    6  C   UNL     1      39.592 -14.153  -1.006  1.00  0.00     0.046 A 
HETATM    7  C   UNL     1      38.901 -13.528  -2.053  1.00  0.00     0.034 A 
HETATM    8  C   UNL     1      39.248 -13.812  -3.376  1.00  0.00     0.017 A 
HETATM    9  C   UNL     1      40.260 -14.735  -3.646  1.00  0.00     0.003 A 
HETATM   10  C   UNL     1      40.921 -15.380  -2.595  1.00  0.00     0.029 A 
BRANCH   7  11
HETATM   11  C   UNL     1      37.812 -12.545  -1.781  1.00  0.00     0.252 C 
HETATM   12  N   UNL     1      37.821 -11.970  -0.521  1.00  0.00    -0.352 N 
HETATM   13  H   UNL     1      38.474 -12.310   0.174  1.00  0.00     0.163 HD
HETATM   14  O   UNL     1      36.973 -12.309  -2.642  1.00  0.00    -0.268 OA
BRANCH  12  15
HETATM   15  C   UNL     1      36.887 -10.972  -0.105  1.00  0.00     0.084 A 
HETATM   16  C   UNL     1      35.562 -11.370   0.484  1.00  0.00     0.027 A 
HETATM   17  C   UNL     1      36.618 -10.771   1.363  1.00  0.00     0.027 A 
ENDBRANCH  12  15
ENDBRANCH   7  11
ENDBRANCH   2   5
BRANCH   1  18
HETATM   18  C   UNL     1      42.522 -16.287   1.707  1.00  0.00     0.147 A 
HETATM   19  N   UNL     1      42.903 -16.027   2.974  1.00  0.00    -0.169 NA
HETATM   20  N   UNL     1      43.353 -17.219   3.421  1.00  0.00    -0.277 N 
HETATM   21  C   UNL     1      43.280 -18.235   2.502  1.00  0.00     0.063 A 
HETATM   22  H   UNL     1      43.718 -17.270   4.365  1.00  0.00     0.189 HD
HETATM   23  C   UNL     1      42.745 -17.645   1.377  1.00  0.00     0.071 A 
BRANCH  21  24
HETATM   24  C   UNL     1      43.724 -19.605   2.741  1.00  0.00    -0.008 A 
HETATM   25  C   UNL     1      43.540 -20.612   1.786  1.00  0.00     0.014 A 
HETATM   26  C   UNL     1      43.994 -21.911   2.028  1.00  0.00     0.001 A 
HETATM   27  C   UNL     1      44.636 -22.219   3.226  1.00  0.00     0.000 A 
HETATM   28  C   UNL     1      44.826 -21.227   4.184  1.00  0.00     0.001 A 
HETATM   29  C   UNL     1      44.374 -19.928   3.942  1.00  0.00     0.014 A 
ENDBRANCH  21  24
ENDBRANCH   1  18
TORSDOF 5
ENDMDL
