MODEL 1
REMARK VINA RESULT:      -8.9      0.000      0.000
REMARK  8 active torsions:
REMARK  status: ('A' for Active; 'I' for Inactive)
REMARK    1  A    between atoms: C_4  and  S_5 
REMARK    2  A    between atoms: S_5  and  C_6 
REMARK    3  A    between atoms: C_6  and  C_7 
REMARK       I    between atoms: C_7  and  N_8 
REMARK    4  A    between atoms: N_8  and  C_9 
REMARK    5  A    between atoms: C_10  and  O_11 
REMARK    6  A    between atoms: C_22  and  C_23 
REMARK    7  A    between atoms: C_29  and  C_30 
REMARK       I    between atoms: C_30  and  N_31 
REMARK    8  A    between atoms: N_31  and  C_32 
ROOT
HETATM    1  C   UNL     1      42.074 -16.104   0.014  1.00  0.00     0.069 C 
HETATM    2  C   UNL     1      41.652 -15.643   1.391  1.00  0.00     0.019 A 
HETATM    3  N   UNL     1      40.741 -14.601   1.411  1.00  0.00    -0.353 N 
HETATM    4  C   UNL     1      40.147 -14.074   2.542  1.00  0.00     0.088 A 
HETATM    5  C   UNL     1      40.493 -14.558   3.758  1.00  0.00     0.069 A 
HETATM    6  C   UNL     1      39.855 -14.132   4.965  1.00  0.00     0.099 C 
HETATM    7  N   UNL     1      39.350 -13.836   5.968  1.00  0.00    -0.192 NA
HETATM    8  C   UNL     1      41.542 -15.669   3.887  1.00  0.00     0.106 A 
HETATM    9  C   UNL     1      42.079 -16.195   2.553  1.00  0.00     0.046 A 
HETATM   10  H   UNL     1      40.227 -14.427   0.544  1.00  0.00     0.166 HD
ENDROOT
BRANCH   4  11
HETATM   11  S   UNL     1      38.899 -12.846   2.394  1.00  0.00    -0.102 SA
BRANCH  11  12
HETATM   12  C   UNL     1      37.837 -13.567   1.102  1.00  0.00     0.184 C 
BRANCH  12  13
HETATM   13  C   UNL     1      37.428 -12.538   0.057  1.00  0.00     0.231 C 
HETATM   14  N   UNL     1      38.172 -12.349  -1.070  1.00  0.00    -0.324 N 
HETATM   15  H   UNL     1      38.039 -11.425  -1.475  1.00  0.00     0.169 HD
HETATM   16  O   UNL     1      36.480 -11.766   0.238  1.00  0.00    -0.272 OA
BRANCH  14  17
HETATM   17  C   UNL     1      39.047 -13.171  -1.801  1.00  0.00     0.070 A 
HETATM   18  C   UNL     1      40.420 -12.836  -1.758  1.00  0.00     0.095 A 
HETATM   19  C   UNL     1      41.342 -13.578  -2.501  1.00  0.00     0.041 A 
HETATM   20  C   UNL     1      40.905 -14.635  -3.300  1.00  0.00     0.026 A 
HETATM   21  C   UNL     1      39.547 -14.937  -3.369  1.00  0.00     0.036 A 
HETATM   22 CL   UNL     1      39.012 -16.210  -4.396  1.00  0.00    -0.084 Cl
HETATM   23  C   UNL     1      38.614 -14.205  -2.633  1.00  0.00     0.056 A 
BRANCH  18  24
HETATM   24  O   UNL     1      40.738 -11.765  -0.956  1.00  0.00    -0.354 OA
HETATM   25  C   UNL     1      42.022 -11.770  -0.341  1.00  0.00     0.210 C 
ENDBRANCH  18  24
ENDBRANCH  14  17
ENDBRANCH  12  13
ENDBRANCH  11  12
ENDBRANCH   4  11
BRANCH   8  26
HETATM   26  C   UNL     1      42.658 -15.261   4.852  1.00  0.00    -0.044 A 
HETATM   27  C   UNL     1      42.881 -16.014   6.019  1.00  0.00     0.008 A 
HETATM   28  C   UNL     1      43.877 -15.643   6.924  1.00  0.00     0.001 A 
HETATM   29  C   UNL     1      44.658 -14.518   6.678  1.00  0.00     0.000 A 
HETATM   30  C   UNL     1      44.442 -13.758   5.531  1.00  0.00     0.001 A 
HETATM   31  C   UNL     1      43.445 -14.123   4.625  1.00  0.00     0.008 A 
ENDBRANCH   8  26
BRANCH   9  32
HETATM   32  C   UNL     1      43.105 -17.300   2.534  1.00  0.00     0.255 C 
HETATM   33  N   UNL     1      42.628 -18.546   2.887  1.00  0.00    -0.323 N 
HETATM   34  H   UNL     1      41.689 -18.619   3.243  1.00  0.00     0.169 HD
HETATM   35  O   UNL     1      44.270 -17.048   2.242  1.00  0.00    -0.268 OA
BRANCH  33  36
HETATM   36  C   UNL     1      43.331 -19.772   2.859  1.00  0.00     0.035 A 
HETATM   37  C   UNL     1      43.255 -20.694   1.814  1.00  0.00     0.029 A 
HETATM   38  C   UNL     1      43.956 -21.903   1.882  1.00  0.00     0.002 A 
HETATM   39  C   UNL     1      44.742 -22.198   2.993  1.00  0.00     0.000 A 
HETATM   40  C   UNL     1      44.826 -21.285   4.040  1.00  0.00     0.002 A 
HETATM   41  C   UNL     1      44.121 -20.081   3.975  1.00  0.00     0.029 A 
ENDBRANCH  33  36
ENDBRANCH   9  32
TORSDOF 8
ENDMDL
MODEL 2
REMARK VINA RESULT:      -8.6      1.527      2.004
REMARK  8 active torsions:
REMARK  status: ('A' for Active; 'I' for Inactive)
REMARK    1  A    between atoms: C_4  and  S_5 
REMARK    2  A    between atoms: S_5  and  C_6 
REMARK    3  A    between atoms: C_6  and  C_7 
REMARK       I    between atoms: C_7  and  N_8 
REMARK    4  A    between atoms: N_8  and  C_9 
REMARK    5  A    between atoms: C_10  and  O_11 
REMARK    6  A    between atoms: C_22  and  C_23 
REMARK    7  A    between atoms: C_29  and  C_30 
REMARK       I    between atoms: C_30  and  N_31 
REMARK    8  A    between atoms: N_31  and  C_32 
ROOT
HETATM    1  C   UNL     1      41.993 -15.453   0.186  1.00  0.00     0.069 C 
HETATM    2  C   UNL     1      41.610 -15.120   1.610  1.00  0.00     0.019 A 
HETATM    3  N   UNL     1      40.735 -14.058   1.753  1.00  0.00    -0.353 N 
HETATM    4  C   UNL     1      40.177 -13.629   2.943  1.00  0.00     0.088 A 
HETATM    5  C   UNL     1      40.527 -14.245   4.097  1.00  0.00     0.069 A 
HETATM    6  C   UNL     1      39.924 -13.923   5.353  1.00  0.00     0.099 C 
HETATM    7  N   UNL     1      39.446 -13.715   6.391  1.00  0.00    -0.192 NA
HETATM    8  C   UNL     1      41.541 -15.396   4.093  1.00  0.00     0.106 A 
HETATM    9  C   UNL     1      42.038 -15.800   2.703  1.00  0.00     0.046 A 
HETATM   10  H   UNL     1      40.212 -13.782   0.919  1.00  0.00     0.166 HD
ENDROOT
BRANCH   4  11
HETATM   11  S   UNL     1      38.968 -12.355   2.944  1.00  0.00    -0.102 SA
BRANCH  11  12
HETATM   12  C   UNL     1      38.962 -11.863   1.191  1.00  0.00     0.184 C 
BRANCH  12  13
HETATM   13  C   UNL     1      38.139 -12.814   0.332  1.00  0.00     0.231 C 
HETATM   14  N   UNL     1      38.502 -13.090  -0.953  1.00  0.00    -0.324 N 
HETATM   15  H   UNL     1      37.717 -13.399  -1.522  1.00  0.00     0.169 HD
HETATM   16  O   UNL     1      37.063 -13.279   0.723  1.00  0.00    -0.272 OA
BRANCH  14  17
HETATM   17  C   UNL     1      39.731 -13.074  -1.636  1.00  0.00     0.070 A 
HETATM   18  C   UNL     1      39.931 -14.083  -2.607  1.00  0.00     0.095 A 
HETATM   19  C   UNL     1      41.147 -14.161  -3.291  1.00  0.00     0.041 A 
HETATM   20  C   UNL     1      42.169 -13.255  -3.001  1.00  0.00     0.026 A 
HETATM   21  C   UNL     1      41.981 -12.288  -2.017  1.00  0.00     0.036 A 
HETATM   22 CL   UNL     1      43.265 -11.209  -1.631  1.00  0.00    -0.084 Cl
HETATM   23  C   UNL     1      40.772 -12.198  -1.326  1.00  0.00     0.056 A 
BRANCH  18  24
HETATM   24  O   UNL     1      38.868 -14.933  -2.799  1.00  0.00    -0.354 OA
HETATM   25  C   UNL     1      38.808 -15.634  -4.036  1.00  0.00     0.210 C 
ENDBRANCH  18  24
ENDBRANCH  14  17
ENDBRANCH  12  13
ENDBRANCH  11  12
ENDBRANCH   4  11
BRANCH   8  26
HETATM   26  C   UNL     1      42.685 -15.122   5.072  1.00  0.00    -0.044 A 
HETATM   27  C   UNL     1      42.880 -15.975   6.173  1.00  0.00     0.008 A 
HETATM   28  C   UNL     1      43.903 -15.728   7.091  1.00  0.00     0.001 A 
HETATM   29  C   UNL     1      44.739 -14.629   6.922  1.00  0.00     0.000 A 
HETATM   30  C   UNL     1      44.552 -13.771   5.842  1.00  0.00     0.001 A 
HETATM   31  C   UNL     1      43.528 -14.012   4.923  1.00  0.00     0.008 A 
ENDBRANCH   8  26
BRANCH   9  32
HETATM   32  C   UNL     1      43.026 -16.930   2.551  1.00  0.00     0.255 C 
HETATM   33  N   UNL     1      42.582 -18.157   2.997  1.00  0.00    -0.323 N 
HETATM   34  H   UNL     1      41.705 -18.203   3.491  1.00  0.00     0.169 HD
HETATM   35  O   UNL     1      44.139 -16.710   2.083  1.00  0.00    -0.268 OA
BRANCH  33  36
HETATM   36  C   UNL     1      43.246 -19.400   2.889  1.00  0.00     0.035 A 
HETATM   37  C   UNL     1      43.071 -20.292   1.829  1.00  0.00     0.029 A 
HETATM   38  C   UNL     1      43.741 -21.520   1.817  1.00  0.00     0.002 A 
HETATM   39  C   UNL     1      44.596 -21.864   2.862  1.00  0.00     0.000 A 
HETATM   40  C   UNL     1      44.780 -20.982   3.921  1.00  0.00     0.002 A 
HETATM   41  C   UNL     1      44.105 -19.759   3.937  1.00  0.00     0.029 A 
ENDBRANCH  33  36
ENDBRANCH   9  32
TORSDOF 8
ENDMDL
MODEL 3
REMARK VINA RESULT:      -8.5      5.124      8.477
REMARK  8 active torsions:
REMARK  status: ('A' for Active; 'I' for Inactive)
REMARK    1  A    between atoms: C_4  and  S_5 
REMARK    2  A    between atoms: S_5  and  C_6 
REMARK    3  A    between atoms: C_6  and  C_7 
REMARK       I    between atoms: C_7  and  N_8 
REMARK    4  A    between atoms: N_8  and  C_9 
REMARK    5  A    between atoms: C_10  and  O_11 
REMARK    6  A    between atoms: C_22  and  C_23 
REMARK    7  A    between atoms: C_29  and  C_30 
REMARK       I    between atoms: C_30  and  N_31 
REMARK    8  A    between atoms: N_31  and  C_32 
ROOT
HETATM    1  C   UNL     1      40.471 -16.564   6.521  1.00  0.00     0.069 C 
HETATM    2  C   UNL     1      40.520 -15.322   5.662  1.00  0.00     0.019 A 
HETATM    3  N   UNL     1      40.052 -14.168   6.267  1.00  0.00    -0.353 N 
HETATM    4  C   UNL     1      40.082 -12.901   5.714  1.00  0.00     0.088 A 
HETATM    5  C   UNL     1      40.556 -12.739   4.456  1.00  0.00     0.069 A 
HETATM    6  C   UNL     1      40.707 -11.453   3.851  1.00  0.00     0.099 C 
HETATM    7  N   UNL     1      40.870 -10.429   3.327  1.00  0.00    -0.192 NA
HETATM    8  C   UNL     1      41.045 -13.945   3.644  1.00  0.00     0.106 A 
HETATM    9  C   UNL     1      41.005 -15.277   4.397  1.00  0.00     0.046 A 
HETATM   10  H   UNL     1      39.988 -14.181   7.287  1.00  0.00     0.166 HD
ENDROOT
BRANCH   4  11
HETATM   11  S   UNL     1      39.582 -11.511   6.663  1.00  0.00    -0.102 SA
BRANCH  11  12
HETATM   12  C   UNL     1      40.943 -11.389   7.867  1.00  0.00     0.184 C 
BRANCH  12  13
HETATM   13  C   UNL     1      41.683 -10.063   7.763  1.00  0.00     0.231 C 
HETATM   14  N   UNL     1      42.111  -9.410   8.881  1.00  0.00    -0.324 N 
HETATM   15  H   UNL     1      42.229  -8.410   8.728  1.00  0.00     0.169 HD
HETATM   16  O   UNL     1      41.825  -9.478   6.684  1.00  0.00    -0.272 OA
BRANCH  14  17
HETATM   17  C   UNL     1      42.457  -9.832  10.176  1.00  0.00     0.070 A 
HETATM   18  C   UNL     1      43.685 -10.521  10.314  1.00  0.00     0.095 A 
HETATM   19  C   UNL     1      44.072 -11.015  11.562  1.00  0.00     0.041 A 
HETATM   20  C   UNL     1      43.236 -10.846  12.668  1.00  0.00     0.026 A 
HETATM   21  C   UNL     1      42.011 -10.201  12.520  1.00  0.00     0.036 A 
HETATM   22 CL   UNL     1      40.966 -10.043  13.878  1.00  0.00    -0.084 Cl
HETATM   23  C   UNL     1      41.612  -9.703  11.279  1.00  0.00     0.056 A 
BRANCH  18  24
HETATM   24  O   UNL     1      44.419 -10.649   9.158  1.00  0.00    -0.354 OA
HETATM   25  C   UNL     1      45.253 -11.796   9.038  1.00  0.00     0.210 C 
ENDBRANCH  18  24
ENDBRANCH  14  17
ENDBRANCH  12  13
ENDBRANCH  11  12
ENDBRANCH   4  11
BRANCH   8  26
HETATM   26  C   UNL     1      40.342 -14.014   2.286  1.00  0.00    -0.044 A 
HETATM   27  C   UNL     1      41.094 -13.896   1.104  1.00  0.00     0.008 A 
HETATM   28  C   UNL     1      40.468 -13.931  -0.144  1.00  0.00     0.001 A 
HETATM   29  C   UNL     1      39.087 -14.081  -0.225  1.00  0.00     0.000 A 
HETATM   30  C   UNL     1      38.328 -14.190   0.937  1.00  0.00     0.001 A 
HETATM   31  C   UNL     1      38.950 -14.152   2.187  1.00  0.00     0.008 A 
ENDBRANCH   8  26
BRANCH   9  32
HETATM   32  C   UNL     1      41.474 -16.543   3.722  1.00  0.00     0.255 C 
HETATM   33  N   UNL     1      42.782 -16.894   3.984  1.00  0.00    -0.323 N 
HETATM   34  H   UNL     1      43.363 -16.247   4.491  1.00  0.00     0.169 HD
HETATM   35  O   UNL     1      40.712 -17.160   2.983  1.00  0.00    -0.268 OA
BRANCH  33  36
HETATM   36  C   UNL     1      43.451 -18.070   3.575  1.00  0.00     0.035 A 
HETATM   37  C   UNL     1      43.505 -18.522   2.255  1.00  0.00     0.029 A 
HETATM   38  C   UNL     1      44.159 -19.718   1.940  1.00  0.00     0.002 A 
HETATM   39  C   UNL     1      44.769 -20.470   2.942  1.00  0.00     0.000 A 
HETATM   40  C   UNL     1      44.724 -20.027   4.260  1.00  0.00     0.002 A 
HETATM   41  C   UNL     1      44.064 -18.837   4.575  1.00  0.00     0.029 A 
ENDBRANCH  33  36
ENDBRANCH   9  32
TORSDOF 8
ENDMDL
MODEL 4
REMARK VINA RESULT:      -8.5      2.815      7.666
REMARK  8 active torsions:
REMARK  status: ('A' for Active; 'I' for Inactive)
REMARK    1  A    between atoms: C_4  and  S_5 
REMARK    2  A    between atoms: S_5  and  C_6 
REMARK    3  A    between atoms: C_6  and  C_7 
REMARK       I    between atoms: C_7  and  N_8 
REMARK    4  A    between atoms: N_8  and  C_9 
REMARK    5  A    between atoms: C_10  and  O_11 
REMARK    6  A    between atoms: C_22  and  C_23 
REMARK    7  A    between atoms: C_29  and  C_30 
REMARK       I    between atoms: C_30  and  N_31 
REMARK    8  A    between atoms: N_31  and  C_32 
ROOT
HETATM    1  C   UNL     1      40.421 -17.414   2.441  1.00  0.00     0.069 C 
HETATM    2  C   UNL     1      40.984 -16.306   3.302  1.00  0.00     0.019 A 
HETATM    3  N   UNL     1      41.363 -16.686   4.578  1.00  0.00    -0.353 N 
HETATM    4  C   UNL     1      41.983 -15.873   5.508  1.00  0.00     0.088 A 
HETATM    5  C   UNL     1      42.214 -14.574   5.203  1.00  0.00     0.069 A 
HETATM    6  C   UNL     1      42.932 -13.696   6.073  1.00  0.00     0.099 C 
HETATM    7  N   UNL     1      43.531 -12.953   6.734  1.00  0.00    -0.192 NA
HETATM    8  C   UNL     1      41.783 -14.002   3.847  1.00  0.00     0.106 A 
HETATM    9  C   UNL     1      41.156 -15.025   2.895  1.00  0.00     0.046 A 
HETATM   10  H   UNL     1      41.502 -17.687   4.734  1.00  0.00     0.166 HD
ENDROOT
BRANCH   4  11
HETATM   11  S   UNL     1      42.535 -16.541   7.036  1.00  0.00    -0.102 SA
BRANCH  11  12
HETATM   12  C   UNL     1      42.981 -18.237   6.548  1.00  0.00     0.184 C 
BRANCH  12  13
HETATM   13  C   UNL     1      44.484 -18.408   6.377  1.00  0.00     0.231 C 
HETATM   14  N   UNL     1      44.995 -19.103   5.322  1.00  0.00    -0.324 N 
HETATM   15  H   UNL     1      45.925 -19.471   5.510  1.00  0.00     0.169 HD
HETATM   16  O   UNL     1      45.285 -18.025   7.237  1.00  0.00    -0.272 OA
BRANCH  14  17
HETATM   17  C   UNL     1      44.525 -19.380   4.026  1.00  0.00     0.070 A 
HETATM   18  C   UNL     1      44.508 -20.739   3.633  1.00  0.00     0.095 A 
HETATM   19  C   UNL     1      44.101 -21.086   2.343  1.00  0.00     0.041 A 
HETATM   20  C   UNL     1      43.730 -20.091   1.437  1.00  0.00     0.026 A 
HETATM   21  C   UNL     1      43.784 -18.752   1.816  1.00  0.00     0.036 A 
HETATM   22 CL   UNL     1      43.374 -17.530   0.677  1.00  0.00    -0.084 Cl
HETATM   23  C   UNL     1      44.190 -18.390   3.102  1.00  0.00     0.056 A 
BRANCH  18  24
HETATM   24  O   UNL     1      44.912 -21.634   4.596  1.00  0.00    -0.354 OA
HETATM   25  C   UNL     1      44.702 -23.016   4.330  1.00  0.00     0.210 C 
ENDBRANCH  18  24
ENDBRANCH  14  17
ENDBRANCH  12  13
ENDBRANCH  11  12
ENDBRANCH   4  11
BRANCH   8  26
HETATM   26  C   UNL     1      40.913 -12.756   4.029  1.00  0.00    -0.044 A 
HETATM   27  C   UNL     1      39.680 -12.857   4.698  1.00  0.00     0.008 A 
HETATM   28  C   UNL     1      38.860 -11.738   4.852  1.00  0.00     0.001 A 
HETATM   29  C   UNL     1      39.259 -10.507   4.339  1.00  0.00     0.000 A 
HETATM   30  C   UNL     1      40.473 -10.394   3.666  1.00  0.00     0.001 A 
HETATM   31  C   UNL     1      41.294 -11.512   3.506  1.00  0.00     0.008 A 
ENDBRANCH   8  26
BRANCH   9  32
HETATM   32  C   UNL     1      40.702 -14.600   1.521  1.00  0.00     0.255 C 
HETATM   33  N   UNL     1      41.699 -14.541   0.569  1.00  0.00    -0.323 N 
HETATM   34  H   UNL     1      42.655 -14.660   0.863  1.00  0.00     0.169 HD
HETATM   35  O   UNL     1      39.524 -14.315   1.327  1.00  0.00    -0.268 OA
BRANCH  33  36
HETATM   36  C   UNL     1      41.551 -14.276  -0.812  1.00  0.00     0.035 A 
HETATM   37  C   UNL     1      40.991 -15.171  -1.725  1.00  0.00     0.029 A 
HETATM   38  C   UNL     1      40.915 -14.845  -3.084  1.00  0.00     0.002 A 
HETATM   39  C   UNL     1      41.394 -13.618  -3.539  1.00  0.00     0.000 A 
HETATM   40  C   UNL     1      41.951 -12.718  -2.637  1.00  0.00     0.002 A 
HETATM   41  C   UNL     1      42.034 -13.047  -1.282  1.00  0.00     0.029 A 
ENDBRANCH  33  36
ENDBRANCH   9  32
TORSDOF 8
ENDMDL
MODEL 5
REMARK VINA RESULT:      -8.3      1.759      2.259
REMARK  8 active torsions:
REMARK  status: ('A' for Active; 'I' for Inactive)
REMARK    1  A    between atoms: C_4  and  S_5 
REMARK    2  A    between atoms: S_5  and  C_6 
REMARK    3  A    between atoms: C_6  and  C_7 
REMARK       I    between atoms: C_7  and  N_8 
REMARK    4  A    between atoms: N_8  and  C_9 
REMARK    5  A    between atoms: C_10  and  O_11 
REMARK    6  A    between atoms: C_22  and  C_23 
REMARK    7  A    between atoms: C_29  and  C_30 
REMARK       I    between atoms: C_30  and  N_31 
REMARK    8  A    between atoms: N_31  and  C_32 
ROOT
HETATM    1  C   UNL     1      42.083 -15.044   0.528  1.00  0.00     0.069 C 
HETATM    2  C   UNL     1      41.665 -14.709   1.941  1.00  0.00     0.019 A 
HETATM    3  N   UNL     1      41.452 -13.365   2.190  1.00  0.00    -0.353 N 
HETATM    4  C   UNL     1      40.981 -12.831   3.375  1.00  0.00     0.088 A 
HETATM    5  C   UNL     1      40.740 -13.654   4.422  1.00  0.00     0.069 A 
HETATM    6  C   UNL     1      40.164 -13.193   5.647  1.00  0.00     0.099 C 
HETATM    7  N   UNL     1      39.676 -12.870   6.649  1.00  0.00    -0.192 NA
HETATM    8  C   UNL     1      40.998 -15.162   4.306  1.00  0.00     0.106 A 
HETATM    9  C   UNL     1      41.469 -15.622   2.924  1.00  0.00     0.046 A 
HETATM   10  H   UNL     1      41.314 -12.766   1.373  1.00  0.00     0.166 HD
ENDROOT
BRANCH   4  11
HETATM   11  S   UNL     1      40.624 -11.115   3.491  1.00  0.00    -0.102 SA
BRANCH  11  12
HETATM   12  C   UNL     1      40.478 -10.658   1.734  1.00  0.00     0.184 C 
BRANCH  12  13
HETATM   13  C   UNL     1      39.032 -10.671   1.257  1.00  0.00     0.231 C 
HETATM   14  N   UNL     1      38.714 -11.080  -0.004  1.00  0.00    -0.324 N 
HETATM   15  H   UNL     1      37.829 -10.695  -0.328  1.00  0.00     0.169 HD
HETATM   16  O   UNL     1      38.114 -10.213   1.946  1.00  0.00    -0.272 OA
BRANCH  14  17
HETATM   17  C   UNL     1      39.329 -11.944  -0.926  1.00  0.00     0.070 A 
HETATM   18  C   UNL     1      38.832 -13.267  -0.987  1.00  0.00     0.095 A 
HETATM   19  C   UNL     1      39.427 -14.197  -1.844  1.00  0.00     0.041 A 
HETATM   20  C   UNL     1      40.524 -13.825  -2.623  1.00  0.00     0.026 A 
HETATM   21  C   UNL     1      41.034 -12.532  -2.531  1.00  0.00     0.036 A 
HETATM   22 CL   UNL     1      42.418 -12.098  -3.457  1.00  0.00    -0.084 Cl
HETATM   23  C   UNL     1      40.450 -11.593  -1.680  1.00  0.00     0.056 A 
BRANCH  18  24
HETATM   24  O   UNL     1      37.763 -13.531  -0.164  1.00  0.00    -0.354 OA
HETATM   25  C   UNL     1      38.020 -14.278   1.020  1.00  0.00     0.210 C 
ENDBRANCH  18  24
ENDBRANCH  14  17
ENDBRANCH  12  13
ENDBRANCH  11  12
ENDBRANCH   4  11
BRANCH   8  26
HETATM   26  C   UNL     1      41.912 -15.651   5.432  1.00  0.00    -0.044 A 
HETATM   27  C   UNL     1      41.487 -16.695   6.273  1.00  0.00     0.008 A 
HETATM   28  C   UNL     1      42.295 -17.138   7.321  1.00  0.00     0.001 A 
HETATM   29  C   UNL     1      43.533 -16.543   7.545  1.00  0.00     0.000 A 
HETATM   30  C   UNL     1      43.964 -15.502   6.727  1.00  0.00     0.001 A 
HETATM   31  C   UNL     1      43.157 -15.053   5.679  1.00  0.00     0.008 A 
ENDBRANCH   8  26
BRANCH   9  32
HETATM   32  C   UNL     1      41.744 -17.083   2.666  1.00  0.00     0.255 C 
HETATM   33  N   UNL     1      43.014 -17.505   3.000  1.00  0.00    -0.323 N 
HETATM   34  H   UNL     1      43.696 -16.815   3.270  1.00  0.00     0.169 HD
HETATM   35  O   UNL     1      40.873 -17.791   2.169  1.00  0.00    -0.268 OA
BRANCH  33  36
HETATM   36  C   UNL     1      43.515 -18.827   2.963  1.00  0.00     0.035 A 
HETATM   37  C   UNL     1      43.365 -19.691   1.878  1.00  0.00     0.029 A 
HETATM   38  C   UNL     1      43.860 -20.999   1.938  1.00  0.00     0.002 A 
HETATM   39  C   UNL     1      44.514 -21.450   3.082  1.00  0.00     0.000 A 
HETATM   40  C   UNL     1      44.671 -20.596   4.169  1.00  0.00     0.002 A 
HETATM   41  C   UNL     1      44.170 -19.293   4.111  1.00  0.00     0.029 A 
ENDBRANCH  33  36
ENDBRANCH   9  32
TORSDOF 8
ENDMDL
MODEL 6
REMARK VINA RESULT:      -8.3      5.089      8.467
REMARK  8 active torsions:
REMARK  status: ('A' for Active; 'I' for Inactive)
REMARK    1  A    between atoms: C_4  and  S_5 
REMARK    2  A    between atoms: S_5  and  C_6 
REMARK    3  A    between atoms: C_6  and  C_7 
REMARK       I    between atoms: C_7  and  N_8 
REMARK    4  A    between atoms: N_8  and  C_9 
REMARK    5  A    between atoms: C_10  and  O_11 
REMARK    6  A    between atoms: C_22  and  C_23 
REMARK    7  A    between atoms: C_29  and  C_30 
REMARK       I    between atoms: C_30  and  N_31 
REMARK    8  A    between atoms: N_31  and  C_32 
ROOT
HETATM    1  C   UNL     1      40.411 -15.788   6.236  1.00  0.00     0.069 C 
HETATM    2  C   UNL     1      40.444 -14.637   5.257  1.00  0.00     0.019 A 
HETATM    3  N   UNL     1      40.043 -13.415   5.769  1.00  0.00    -0.353 N 
HETATM    4  C   UNL     1      40.074 -12.210   5.093  1.00  0.00     0.088 A 
HETATM    5  C   UNL     1      40.480 -12.186   3.801  1.00  0.00     0.069 A 
HETATM    6  C   UNL     1      40.630 -10.970   3.065  1.00  0.00     0.099 C 
HETATM    7  N   UNL     1      40.790 -10.008   2.434  1.00  0.00    -0.192 NA
HETATM    8  C   UNL     1      40.889 -13.480   3.087  1.00  0.00     0.106 A 
HETATM    9  C   UNL     1      40.857 -14.731   3.969  1.00  0.00     0.046 A 
HETATM   10  H   UNL     1      40.037 -13.327   6.787  1.00  0.00     0.166 HD
ENDROOT
BRANCH   4  11
HETATM   11  S   UNL     1      39.667 -10.718   5.926  1.00  0.00    -0.102 SA
BRANCH  11  12
HETATM   12  C   UNL     1      40.740 -10.822   7.394  1.00  0.00     0.184 C 
BRANCH  12  13
HETATM   13  C   UNL     1      39.939 -10.923   8.684  1.00  0.00     0.231 C 
HETATM   14  N   UNL     1      40.556 -11.153   9.877  1.00  0.00    -0.324 N 
HETATM   15  H   UNL     1      39.934 -11.572  10.565  1.00  0.00     0.169 HD
HETATM   16  O   UNL     1      38.702 -10.913   8.685  1.00  0.00    -0.272 OA
BRANCH  14  17
HETATM   17  C   UNL     1      41.851 -10.897  10.362  1.00  0.00     0.070 A 
HETATM   18  C   UNL     1      41.945 -10.163  11.567  1.00  0.00     0.095 A 
HETATM   19  C   UNL     1      43.200  -9.828  12.083  1.00  0.00     0.041 A 
HETATM   20  C   UNL     1      44.357 -10.200  11.398  1.00  0.00     0.026 A 
HETATM   21  C   UNL     1      44.259 -10.889  10.192  1.00  0.00     0.036 A 
HETATM   22 CL   UNL     1      45.690 -11.299   9.329  1.00  0.00    -0.084 Cl
HETATM   23  C   UNL     1      43.013 -11.230   9.664  1.00  0.00     0.056 A 
BRANCH  18  24
HETATM   24  O   UNL     1      40.744  -9.830  12.148  1.00  0.00    -0.354 OA
HETATM   25  C   UNL     1      40.561  -8.474  12.539  1.00  0.00     0.210 C 
ENDBRANCH  18  24
ENDBRANCH  14  17
ENDBRANCH  12  13
ENDBRANCH  11  12
ENDBRANCH   4  11
BRANCH   8  26
HETATM   26  C   UNL     1      40.107 -13.658   1.783  1.00  0.00    -0.044 A 
HETATM   27  C   UNL     1      40.788 -13.637   0.553  1.00  0.00     0.008 A 
HETATM   28  C   UNL     1      40.090 -13.771  -0.649  1.00  0.00     0.001 A 
HETATM   29  C   UNL     1      38.707 -13.926  -0.637  1.00  0.00     0.000 A 
HETATM   30  C   UNL     1      38.018 -13.940   0.574  1.00  0.00     0.001 A 
HETATM   31  C   UNL     1      38.712 -13.802   1.777  1.00  0.00     0.008 A 
ENDBRANCH   8  26
BRANCH   9  32
HETATM   32  C   UNL     1      41.251 -16.070   3.397  1.00  0.00     0.255 C 
HETATM   33  N   UNL     1      42.580 -16.404   3.557  1.00  0.00    -0.323 N 
HETATM   34  H   UNL     1      43.212 -15.710   3.922  1.00  0.00     0.169 HD
HETATM   35  O   UNL     1      40.416 -16.759   2.820  1.00  0.00    -0.268 OA
BRANCH  33  36
HETATM   36  C   UNL     1      43.203 -17.627   3.217  1.00  0.00     0.035 A 
HETATM   37  C   UNL     1      43.287 -18.128   1.917  1.00  0.00     0.029 A 
HETATM   38  C   UNL     1      43.889 -19.367   1.671  1.00  0.00     0.002 A 
HETATM   39  C   UNL     1      44.419 -20.111   2.723  1.00  0.00     0.000 A 
HETATM   40  C   UNL     1      44.344 -19.620   4.022  1.00  0.00     0.002 A 
HETATM   41  C   UNL     1      43.735 -18.387   4.268  1.00  0.00     0.029 A 
ENDBRANCH  33  36
ENDBRANCH   9  32
TORSDOF 8
ENDMDL
MODEL 7
REMARK VINA RESULT:      -8.3      1.855      2.276
REMARK  8 active torsions:
REMARK  status: ('A' for Active; 'I' for Inactive)
REMARK    1  A    between atoms: C_4  and  S_5 
REMARK    2  A    between atoms: S_5  and  C_6 
REMARK    3  A    between atoms: C_6  and  C_7 
REMARK       I    between atoms: C_7  and  N_8 
REMARK    4  A    between atoms: N_8  and  C_9 
REMARK    5  A    between atoms: C_10  and  O_11 
REMARK    6  A    between atoms: C_22  and  C_23 
REMARK    7  A    between atoms: C_29  and  C_30 
REMARK       I    between atoms: C_30  and  N_31 
REMARK    8  A    between atoms: N_31  and  C_32 
ROOT
HETATM    1  C   UNL     1      41.898 -15.293   0.484  1.00  0.00     0.069 C 
HETATM    2  C   UNL     1      41.525 -14.894   1.893  1.00  0.00     0.019 A 
HETATM    3  N   UNL     1      41.297 -13.542   2.083  1.00  0.00    -0.353 N 
HETATM    4  C   UNL     1      40.860 -12.958   3.257  1.00  0.00     0.088 A 
HETATM    5  C   UNL     1      40.672 -13.732   4.352  1.00  0.00     0.069 A 
HETATM    6  C   UNL     1      40.132 -13.219   5.573  1.00  0.00     0.099 C 
HETATM    7  N   UNL     1      39.675 -12.854   6.576  1.00  0.00    -0.192 NA
HETATM    8  C   UNL     1      40.952 -15.239   4.301  1.00  0.00     0.106 A 
HETATM    9  C   UNL     1      41.380 -15.760   2.926  1.00  0.00     0.046 A 
HETATM   10  H   UNL     1      41.119 -12.987   1.244  1.00  0.00     0.166 HD
ENDROOT
BRANCH   4  11
HETATM   11  S   UNL     1      40.478 -11.244   3.302  1.00  0.00    -0.102 SA
BRANCH  11  12
HETATM   12  C   UNL     1      39.491 -11.055   1.783  1.00  0.00     0.184 C 
BRANCH  12  13
HETATM   13  C   UNL     1      39.978  -9.898   0.923  1.00  0.00     0.231 C 
HETATM   14  N   UNL     1      40.849 -10.105  -0.105  1.00  0.00    -0.324 N 
HETATM   15  H   UNL     1      41.381  -9.271  -0.341  1.00  0.00     0.169 HD
HETATM   16  O   UNL     1      39.694  -8.724   1.189  1.00  0.00    -0.272 OA
BRANCH  14  17
HETATM   17  C   UNL     1      41.133 -11.212  -0.924  1.00  0.00     0.070 A 
HETATM   18  C   UNL     1      42.498 -11.495  -1.161  1.00  0.00     0.095 A 
HETATM   19  C   UNL     1      42.856 -12.549  -2.005  1.00  0.00     0.041 A 
HETATM   20  C   UNL     1      41.866 -13.308  -2.630  1.00  0.00     0.026 A 
HETATM   21  C   UNL     1      40.523 -13.002  -2.425  1.00  0.00     0.036 A 
HETATM   22 CL   UNL     1      39.311 -13.912  -3.240  1.00  0.00    -0.084 Cl
HETATM   23  C   UNL     1      40.150 -11.952  -1.585  1.00  0.00     0.056 A 
BRANCH  18  24
HETATM   24  O   UNL     1      43.389 -10.673  -0.511  1.00  0.00    -0.354 OA
HETATM   25  C   UNL     1      44.000  -9.640  -1.276  1.00  0.00     0.210 C 
ENDBRANCH  18  24
ENDBRANCH  14  17
ENDBRANCH  12  13
ENDBRANCH  11  12
ENDBRANCH   4  11
BRANCH   8  26
HETATM   26  C   UNL     1      41.914 -15.657   5.415  1.00  0.00    -0.044 A 
HETATM   27  C   UNL     1      41.538 -16.664   6.321  1.00  0.00     0.008 A 
HETATM   28  C   UNL     1      42.390 -17.041   7.360  1.00  0.00     0.001 A 
HETATM   29  C   UNL     1      43.625 -16.417   7.508  1.00  0.00     0.000 A 
HETATM   30  C   UNL     1      44.008 -15.412   6.624  1.00  0.00     0.001 A 
HETATM   31  C   UNL     1      43.156 -15.029   5.586  1.00  0.00     0.008 A 
ENDBRANCH   8  26
BRANCH   9  32
HETATM   32  C   UNL     1      41.671 -17.227   2.730  1.00  0.00     0.255 C 
HETATM   33  N   UNL     1      42.963 -17.610   3.024  1.00  0.00    -0.323 N 
HETATM   34  H   UNL     1      43.644 -16.896   3.226  1.00  0.00     0.169 HD
HETATM   35  O   UNL     1      40.791 -17.975   2.314  1.00  0.00    -0.268 OA
BRANCH  33  36
HETATM   36  C   UNL     1      43.487 -18.923   3.032  1.00  0.00     0.035 A 
HETATM   37  C   UNL     1      44.185 -19.482   4.103  1.00  0.00     0.029 A 
HETATM   38  C   UNL     1      44.704 -20.779   4.014  1.00  0.00     0.002 A 
HETATM   39  C   UNL     1      44.523 -21.529   2.855  1.00  0.00     0.000 A 
HETATM   40  C   UNL     1      43.827 -20.983   1.781  1.00  0.00     0.002 A 
HETATM   41  C   UNL     1      43.316 -19.685   1.868  1.00  0.00     0.029 A 
ENDBRANCH  33  36
ENDBRANCH   9  32
TORSDOF 8
ENDMDL
MODEL 8
REMARK VINA RESULT:      -8.3      1.590      2.013
REMARK  8 active torsions:
REMARK  status: ('A' for Active; 'I' for Inactive)
REMARK    1  A    between atoms: C_4  and  S_5 
REMARK    2  A    between atoms: S_5  and  C_6 
REMARK    3  A    between atoms: C_6  and  C_7 
REMARK       I    between atoms: C_7  and  N_8 
REMARK    4  A    between atoms: N_8  and  C_9 
REMARK    5  A    between atoms: C_10  and  O_11 
REMARK    6  A    between atoms: C_22  and  C_23 
REMARK    7  A    between atoms: C_29  and  C_30 
REMARK       I    between atoms: C_30  and  N_31 
REMARK    8  A    between atoms: N_31  and  C_32 
ROOT
HETATM    1  C   UNL     1      41.656 -16.202   0.475  1.00  0.00     0.069 C 
HETATM    2  C   UNL     1      41.527 -15.322   1.697  1.00  0.00     0.019 A 
HETATM    3  N   UNL     1      41.331 -13.976   1.436  1.00  0.00    -0.353 N 
HETATM    4  C   UNL     1      41.097 -12.999   2.386  1.00  0.00     0.088 A 
HETATM    5  C   UNL     1      41.100 -13.336   3.697  1.00  0.00     0.069 A 
HETATM    6  C   UNL     1      40.774 -12.404   4.731  1.00  0.00     0.099 C 
HETATM    7  N   UNL     1      40.493 -11.691   5.603  1.00  0.00    -0.192 NA
HETATM    8  C   UNL     1      41.372 -14.782   4.131  1.00  0.00     0.106 A 
HETATM    9  C   UNL     1      41.562 -15.768   2.976  1.00  0.00     0.046 A 
HETATM   10  H   UNL     1      41.011 -13.735   0.496  1.00  0.00     0.166 HD
ENDROOT
BRANCH   4  11
HETATM   11  S   UNL     1      40.723 -11.356   1.889  1.00  0.00    -0.102 SA
BRANCH  11  12
HETATM   12  C   UNL     1      39.421 -11.643   0.649  1.00  0.00     0.184 C 
BRANCH  12  13
HETATM   13  C   UNL     1      39.663 -10.854  -0.630  1.00  0.00     0.231 C 
HETATM   14  N   UNL     1      39.945 -11.490  -1.803  1.00  0.00    -0.324 N 
HETATM   15  H   UNL     1      40.449 -10.896  -2.458  1.00  0.00     0.169 HD
HETATM   16  O   UNL     1      39.725  -9.620  -0.633  1.00  0.00    -0.272 OA
BRANCH  14  17
HETATM   17  C   UNL     1      39.651 -12.770  -2.305  1.00  0.00     0.070 A 
HETATM   18  C   UNL     1      40.691 -13.726  -2.256  1.00  0.00     0.095 A 
HETATM   19  C   UNL     1      40.489 -15.005  -2.782  1.00  0.00     0.041 A 
HETATM   20  C   UNL     1      39.267 -15.329  -3.374  1.00  0.00     0.026 A 
HETATM   21  C   UNL     1      38.259 -14.373  -3.454  1.00  0.00     0.036 A 
HETATM   22 CL   UNL     1      36.775 -14.767  -4.230  1.00  0.00    -0.084 Cl
HETATM   23  C   UNL     1      38.447 -13.092  -2.933  1.00  0.00     0.056 A 
BRANCH  18  24
HETATM   24  O   UNL     1      41.859 -13.295  -1.671  1.00  0.00    -0.354 OA
HETATM   25  C   UNL     1      42.892 -12.836  -2.536  1.00  0.00     0.210 C 
ENDBRANCH  18  24
ENDBRANCH  14  17
ENDBRANCH  12  13
ENDBRANCH  11  12
ENDBRANCH   4  11
BRANCH   8  26
HETATM   26  C   UNL     1      42.511 -14.843   5.152  1.00  0.00    -0.044 A 
HETATM   27  C   UNL     1      43.631 -14.007   4.998  1.00  0.00     0.008 A 
HETATM   28  C   UNL     1      44.692 -14.065   5.904  1.00  0.00     0.001 A 
HETATM   29  C   UNL     1      44.648 -14.959   6.970  1.00  0.00     0.000 A 
HETATM   30  C   UNL     1      43.550 -15.800   7.130  1.00  0.00     0.001 A 
HETATM   31  C   UNL     1      42.488 -15.747   6.224  1.00  0.00     0.008 A 
ENDBRANCH   8  26
BRANCH   9  32
HETATM   32  C   UNL     1      41.820 -17.227   3.261  1.00  0.00     0.255 C 
HETATM   33  N   UNL     1      42.994 -17.725   2.735  1.00  0.00    -0.323 N 
HETATM   34  H   UNL     1      43.529 -17.143   2.112  1.00  0.00     0.169 HD
HETATM   35  O   UNL     1      41.000 -17.880   3.898  1.00  0.00    -0.268 OA
BRANCH  33  36
HETATM   36  C   UNL     1      43.539 -19.016   2.927  1.00  0.00     0.035 A 
HETATM   37  C   UNL     1      44.269 -19.398   4.053  1.00  0.00     0.029 A 
HETATM   38  C   UNL     1      44.806 -20.686   4.148  1.00  0.00     0.002 A 
HETATM   39  C   UNL     1      44.613 -21.605   3.119  1.00  0.00     0.000 A 
HETATM   40  C   UNL     1      43.885 -21.236   1.992  1.00  0.00     0.002 A 
HETATM   41  C   UNL     1      43.355 -19.946   1.895  1.00  0.00     0.029 A 
ENDBRANCH  33  36
ENDBRANCH   9  32
TORSDOF 8
ENDMDL
MODEL 9
REMARK VINA RESULT:      -8.2      1.520      1.826
REMARK  8 active torsions:
REMARK  status: ('A' for Active; 'I' for Inactive)
REMARK    1  A    between atoms: C_4  and  S_5 
REMARK    2  A    between atoms: S_5  and  C_6 
REMARK    3  A    between atoms: C_6  and  C_7 
REMARK       I    between atoms: C_7  and  N_8 
REMARK    4  A    between atoms: N_8  and  C_9 
REMARK    5  A    between atoms: C_10  and  O_11 
REMARK    6  A    between atoms: C_22  and  C_23 
REMARK    7  A    between atoms: C_29  and  C_30 
REMARK       I    between atoms: C_30  and  N_31 
REMARK    8  A    between atoms: N_31  and  C_32 
ROOT
HETATM    1  C   UNL     1      42.096 -15.413   0.459  1.00  0.00     0.069 C 
HETATM    2  C   UNL     1      41.651 -15.015   1.848  1.00  0.00     0.019 A 
HETATM    3  N   UNL     1      41.385 -13.668   2.019  1.00  0.00    -0.353 N 
HETATM    4  C   UNL     1      40.882 -13.087   3.167  1.00  0.00     0.088 A 
HETATM    5  C   UNL     1      40.661 -13.859   4.258  1.00  0.00     0.069 A 
HETATM    6  C   UNL     1      40.055 -13.352   5.449  1.00  0.00     0.099 C 
HETATM    7  N   UNL     1      39.545 -12.992   6.428  1.00  0.00    -0.192 NA
HETATM    8  C   UNL     1      40.976 -15.360   4.229  1.00  0.00     0.106 A 
HETATM    9  C   UNL     1      41.478 -15.879   2.879  1.00  0.00     0.046 A 
HETATM   10  H   UNL     1      41.234 -13.121   1.169  1.00  0.00     0.166 HD
ENDROOT
BRANCH   4  11
HETATM   11  S   UNL     1      40.461 -11.382   3.184  1.00  0.00    -0.102 SA
BRANCH  11  12
HETATM   12  C   UNL     1      40.086 -11.087   1.427  1.00  0.00     0.184 C 
BRANCH  12  13
HETATM   13  C   UNL     1      38.713 -11.617   1.036  1.00  0.00     0.231 C 
HETATM   14  N   UNL     1      38.450 -12.007  -0.243  1.00  0.00    -0.324 N 
HETATM   15  H   UNL     1      37.458 -11.968  -0.467  1.00  0.00     0.169 HD
HETATM   16  O   UNL     1      37.763 -11.609   1.827  1.00  0.00    -0.272 OA
BRANCH  14  17
HETATM   17  C   UNL     1      39.253 -12.485  -1.294  1.00  0.00     0.070 A 
HETATM   18  C   UNL     1      39.708 -11.530  -2.231  1.00  0.00     0.095 A 
HETATM   19  C   UNL     1      40.469 -11.938  -3.330  1.00  0.00     0.041 A 
HETATM   20  C   UNL     1      40.761 -13.291  -3.511  1.00  0.00     0.026 A 
HETATM   21  C   UNL     1      40.277 -14.233  -2.607  1.00  0.00     0.036 A 
HETATM   22 CL   UNL     1      40.599 -15.903  -2.867  1.00  0.00    -0.084 Cl
HETATM   23  C   UNL     1      39.516 -13.840  -1.505  1.00  0.00     0.056 A 
BRANCH  18  24
HETATM   24  O   UNL     1      39.347 -10.229  -1.967  1.00  0.00    -0.354 OA
HETATM   25  C   UNL     1      40.390  -9.263  -1.905  1.00  0.00     0.210 C 
ENDBRANCH  18  24
ENDBRANCH  14  17
ENDBRANCH  12  13
ENDBRANCH  11  12
ENDBRANCH   4  11
BRANCH   8  26
HETATM   26  C   UNL     1      41.895 -15.750   5.388  1.00  0.00    -0.044 A 
HETATM   27  C   UNL     1      43.140 -15.112   5.538  1.00  0.00     0.008 A 
HETATM   28  C   UNL     1      44.003 -15.471   6.574  1.00  0.00     0.001 A 
HETATM   29  C   UNL     1      43.637 -16.471   7.470  1.00  0.00     0.000 A 
HETATM   30  C   UNL     1      42.412 -17.118   7.329  1.00  0.00     0.001 A 
HETATM   31  C   UNL     1      41.547 -16.764   6.292  1.00  0.00     0.008 A 
ENDBRANCH   8  26
BRANCH   9  32
HETATM   32  C   UNL     1      41.809 -17.340   2.705  1.00  0.00     0.255 C 
HETATM   33  N   UNL     1      43.089 -17.696   3.078  1.00  0.00    -0.323 N 
HETATM   34  H   UNL     1      43.742 -16.967   3.318  1.00  0.00     0.169 HD
HETATM   35  O   UNL     1      40.972 -18.106   2.239  1.00  0.00    -0.268 OA
BRANCH  33  36
HETATM   36  C   UNL     1      43.638 -18.998   3.121  1.00  0.00     0.035 A 
HETATM   37  C   UNL     1      43.594 -19.902   2.058  1.00  0.00     0.029 A 
HETATM   38  C   UNL     1      44.130 -21.187   2.197  1.00  0.00     0.002 A 
HETATM   39  C   UNL     1      44.720 -21.576   3.397  1.00  0.00     0.000 A 
HETATM   40  C   UNL     1      44.771 -20.683   4.462  1.00  0.00     0.002 A 
HETATM   41  C   UNL     1      44.229 -19.402   4.326  1.00  0.00     0.029 A 
ENDBRANCH  33  36
ENDBRANCH   9  32
TORSDOF 8
ENDMDL
MODEL 10
REMARK VINA RESULT:      -8.1      3.011      9.063
REMARK  8 active torsions:
REMARK  status: ('A' for Active; 'I' for Inactive)
REMARK    1  A    between atoms: C_4  and  S_5 
REMARK    2  A    between atoms: S_5  and  C_6 
REMARK    3  A    between atoms: C_6  and  C_7 
REMARK       I    between atoms: C_7  and  N_8 
REMARK    4  A    between atoms: N_8  and  C_9 
REMARK    5  A    between atoms: C_10  and  O_11 
REMARK    6  A    between atoms: C_22  and  C_23 
REMARK    7  A    between atoms: C_29  and  C_30 
REMARK       I    between atoms: C_30  and  N_31 
REMARK    8  A    between atoms: N_31  and  C_32 
ROOT
HETATM    1  C   UNL     1      41.268 -15.129  -3.108  1.00  0.00     0.069 C 
HETATM    2  C   UNL     1      40.987 -14.757  -1.670  1.00  0.00     0.019 A 
HETATM    3  N   UNL     1      41.040 -15.806  -0.769  1.00  0.00    -0.353 N 
HETATM    4  C   UNL     1      40.907 -15.696   0.603  1.00  0.00     0.088 A 
HETATM    5  C   UNL     1      40.656 -14.482   1.148  1.00  0.00     0.069 A 
HETATM    6  C   UNL     1      40.599 -14.270   2.561  1.00  0.00     0.099 C 
HETATM    7  N   UNL     1      40.569 -14.045   3.699  1.00  0.00    -0.192 NA
HETATM    8  C   UNL     1      40.506 -13.242   0.257  1.00  0.00     0.106 A 
HETATM    9  C   UNL     1      40.729 -13.500  -1.235  1.00  0.00     0.046 A 
HETATM   10  H   UNL     1      41.525 -16.650  -1.078  1.00  0.00     0.166 HD
ENDROOT
BRANCH   4  11
HETATM   11  S   UNL     1      41.140 -17.102   1.629  1.00  0.00    -0.102 SA
BRANCH  11  12
HETATM   12  C   UNL     1      42.957 -17.194   1.705  1.00  0.00     0.184 C 
BRANCH  12  13
HETATM   13  C   UNL     1      43.492 -16.845   3.087  1.00  0.00     0.231 C 
HETATM   14  N   UNL     1      43.716 -17.816   4.018  1.00  0.00    -0.324 N 
HETATM   15  H   UNL     1      43.692 -17.457   4.970  1.00  0.00     0.169 HD
HETATM   16  O   UNL     1      43.636 -15.674   3.454  1.00  0.00    -0.272 OA
BRANCH  14  17
HETATM   17  C   UNL     1      44.008 -19.189   3.934  1.00  0.00     0.070 A 
HETATM   18  C   UNL     1      44.510 -19.805   5.104  1.00  0.00     0.095 A 
HETATM   19  C   UNL     1      44.870 -21.154   5.082  1.00  0.00     0.041 A 
HETATM   20  C   UNL     1      44.752 -21.888   3.900  1.00  0.00     0.026 A 
HETATM   21  C   UNL     1      44.293 -21.268   2.741  1.00  0.00     0.036 A 
HETATM   22 CL   UNL     1      44.199 -22.167   1.277  1.00  0.00    -0.084 Cl
HETATM   23  C   UNL     1      43.930 -19.920   2.748  1.00  0.00     0.056 A 
BRANCH  18  24
HETATM   24  O   UNL     1      44.605 -18.986   6.205  1.00  0.00    -0.354 OA
HETATM   25  C   UNL     1      43.757 -19.278   7.310  1.00  0.00     0.210 C 
ENDBRANCH  18  24
ENDBRANCH  14  17
ENDBRANCH  12  13
ENDBRANCH  11  12
ENDBRANCH   4  11
BRANCH   8  26
HETATM   26  C   UNL     1      39.187 -12.519   0.540  1.00  0.00    -0.044 A 
HETATM   27  C   UNL     1      37.966 -13.160   0.261  1.00  0.00     0.008 A 
HETATM   28  C   UNL     1      36.753 -12.509   0.488  1.00  0.00     0.001 A 
HETATM   29  C   UNL     1      36.743 -11.212   0.994  1.00  0.00     0.000 A 
HETATM   30  C   UNL     1      37.944 -10.561   1.266  1.00  0.00     0.001 A 
HETATM   31  C   UNL     1      39.160 -11.208   1.037  1.00  0.00     0.008 A 
ENDBRANCH   8  26
BRANCH   9  32
HETATM   32  C   UNL     1      40.628 -12.363  -2.222  1.00  0.00     0.255 C 
HETATM   33  N   UNL     1      41.784 -11.628  -2.385  1.00  0.00    -0.323 N 
HETATM   34  H   UNL     1      42.561 -11.807  -1.770  1.00  0.00     0.169 HD
HETATM   35  O   UNL     1      39.564 -12.140  -2.791  1.00  0.00    -0.268 OA
BRANCH  33  36
HETATM   36  C   UNL     1      42.010 -10.582  -3.309  1.00  0.00     0.035 A 
HETATM   37  C   UNL     1      42.198 -10.773  -4.679  1.00  0.00     0.029 A 
HETATM   38  C   UNL     1      42.453  -9.684  -5.519  1.00  0.00     0.002 A 
HETATM   39  C   UNL     1      42.519  -8.394  -4.997  1.00  0.00     0.000 A 
HETATM   40  C   UNL     1      42.331  -8.192  -3.634  1.00  0.00     0.002 A 
HETATM   41  C   UNL     1      42.083  -9.280  -2.794  1.00  0.00     0.029 A 
ENDBRANCH  33  36
ENDBRANCH   9  32
TORSDOF 8
ENDMDL
