MODEL 1
REMARK VINA RESULT:      -8.2      0.000      0.000
REMARK  5 active torsions:
REMARK  status: ('A' for Active; 'I' for Inactive)
REMARK    1  A    between atoms: C_8  and  N_9 
REMARK    2  A    between atoms: N_9  and  C_10 
REMARK    3  A    between atoms: C_10  and  C_11 
REMARK    4  A    between atoms: C_11  and  N_12 
REMARK       I    between atoms: N_12  and  C_13 
REMARK    5  A    between atoms: C_13  and  C_14 
ROOT
HETATM    1  C   UNL     1      44.195 -21.877   1.526  1.00  0.00     0.048 C 
HETATM    2  C   UNL     1      44.052 -20.704   2.454  1.00  0.00    -0.061 A 
HETATM    3  C   UNL     1      43.153 -19.668   2.163  1.00  0.00     0.020 A 
HETATM    4  C   UNL     1      43.001 -18.582   3.041  1.00  0.00    -0.008 A 
HETATM    5  C   UNL     1      43.757 -18.551   4.227  1.00  0.00     0.043 A 
HETATM    6  N   UNL     1      43.619 -17.509   5.064  1.00  0.00    -0.346 N 
HETATM    7  H   UNL     1      44.171 -17.527   5.914  1.00  0.00     0.167 HD
HETATM    8  C   UNL     1      42.811 -16.456   4.850  1.00  0.00     0.086 A 
HETATM    9  C   UNL     1      41.999 -16.468   3.699  1.00  0.00    -0.023 A 
HETATM   10  C   UNL     1      41.036 -15.354   3.390  1.00  0.00     0.052 C 
HETATM   11  C   UNL     1      42.120 -17.527   2.788  1.00  0.00     0.023 A 
HETATM   12  C   UNL     1      44.643 -19.592   4.528  1.00  0.00     0.031 A 
HETATM   13  C   UNL     1      44.786 -20.663   3.646  1.00  0.00     0.009 A 
ENDROOT
BRANCH   8  14
HETATM   14  N   UNL     1      42.714 -15.423   5.788  1.00  0.00    -0.277 NA
HETATM   15  H   UNL     1      41.781 -15.005   5.778  1.00  0.00     0.129 HD
BRANCH  14  16
HETATM   16  C   UNL     1      43.778 -14.421   5.839  1.00  0.00     0.113 C 
BRANCH  16  17
HETATM   17  C   UNL     1      44.601 -14.479   7.132  1.00  0.00     0.137 C 
BRANCH  17  18
HETATM   18  N   UNL     1      44.438 -13.350   8.044  1.00  0.00    -0.360 N 
HETATM   19  C   UNL     1      45.431 -12.467   8.421  1.00  0.00     0.221 C 
HETATM   20  O   UNL     1      46.562 -12.484   7.938  1.00  0.00    -0.273 OA
HETATM   21  H   UNL     1      43.542 -13.275   8.514  1.00  0.00     0.162 HD
BRANCH  19  22
HETATM   22  C   UNL     1      44.994 -11.461   9.485  1.00  0.00     0.070 C 
HETATM   23  C   UNL     1      43.511 -11.130   9.329  1.00  0.00     0.019 C 
HETATM   24  C   UNL     1      45.272 -11.997  10.889  1.00  0.00     0.019 C 
ENDBRANCH  19  22
ENDBRANCH  17  18
ENDBRANCH  16  17
ENDBRANCH  14  16
ENDBRANCH   8  14
TORSDOF 5
ENDMDL
MODEL 2
REMARK VINA RESULT:      -8.1      5.191      8.088
REMARK  5 active torsions:
REMARK  status: ('A' for Active; 'I' for Inactive)
REMARK    1  A    between atoms: C_8  and  N_9 
REMARK    2  A    between atoms: N_9  and  C_10 
REMARK    3  A    between atoms: C_10  and  C_11 
REMARK    4  A    between atoms: C_11  and  N_12 
REMARK       I    between atoms: N_12  and  C_13 
REMARK    5  A    between atoms: C_13  and  C_14 
ROOT
HETATM    1  C   UNL     1      45.104 -22.484   5.135  1.00  0.00     0.048 C 
HETATM    2  C   UNL     1      44.639 -21.496   4.102  1.00  0.00    -0.061 A 
HETATM    3  C   UNL     1      44.525 -20.134   4.417  1.00  0.00     0.020 A 
HETATM    4  C   UNL     1      44.113 -19.206   3.446  1.00  0.00    -0.008 A 
HETATM    5  C   UNL     1      43.825 -19.658   2.146  1.00  0.00     0.043 A 
HETATM    6  N   UNL     1      43.424 -18.773   1.219  1.00  0.00    -0.346 N 
HETATM    7  H   UNL     1      43.236 -19.134   0.291  1.00  0.00     0.167 HD
HETATM    8  C   UNL     1      43.251 -17.458   1.439  1.00  0.00     0.086 A 
HETATM    9  C   UNL     1      43.574 -16.952   2.714  1.00  0.00    -0.023 A 
HETATM   10  C   UNL     1      43.450 -15.490   3.047  1.00  0.00     0.052 C 
HETATM   11  C   UNL     1      43.982 -17.841   3.718  1.00  0.00     0.023 A 
HETATM   12  C   UNL     1      43.955 -21.014   1.825  1.00  0.00     0.031 A 
HETATM   13  C   UNL     1      44.362 -21.926   2.799  1.00  0.00     0.009 A 
ENDROOT
BRANCH   8  14
HETATM   14  N   UNL     1      42.849 -16.603   0.407  1.00  0.00    -0.277 NA
HETATM   15  H   UNL     1      43.361 -15.720   0.442  1.00  0.00     0.129 HD
BRANCH  14  16
HETATM   16  C   UNL     1      41.417 -16.413   0.173  1.00  0.00     0.113 C 
BRANCH  16  17
HETATM   17  C   UNL     1      41.075 -15.022  -0.377  1.00  0.00     0.137 C 
BRANCH  17  18
HETATM   18  N   UNL     1      40.109 -14.989  -1.472  1.00  0.00    -0.360 N 
HETATM   19  C   UNL     1      40.379 -15.280  -2.795  1.00  0.00     0.221 C 
HETATM   20  O   UNL     1      41.467 -15.702  -3.179  1.00  0.00    -0.273 OA
HETATM   21  H   UNL     1      39.188 -14.624  -1.251  1.00  0.00     0.162 HD
BRANCH  19  22
HETATM   22  C   UNL     1      39.198 -15.040  -3.735  1.00  0.00     0.070 C 
HETATM   23  C   UNL     1      38.891 -16.302  -4.540  1.00  0.00     0.019 C 
HETATM   24  C   UNL     1      37.961 -14.598  -2.953  1.00  0.00     0.019 C 
ENDBRANCH  19  22
ENDBRANCH  17  18
ENDBRANCH  16  17
ENDBRANCH  14  16
ENDBRANCH   8  14
TORSDOF 5
ENDMDL
MODEL 3
REMARK VINA RESULT:      -8.1      1.135      2.178
REMARK  5 active torsions:
REMARK  status: ('A' for Active; 'I' for Inactive)
REMARK    1  A    between atoms: C_8  and  N_9 
REMARK    2  A    between atoms: N_9  and  C_10 
REMARK    3  A    between atoms: C_10  and  C_11 
REMARK    4  A    between atoms: C_11  and  N_12 
REMARK       I    between atoms: N_12  and  C_13 
REMARK    5  A    between atoms: C_13  and  C_14 
ROOT
HETATM    1  C   UNL     1      44.615 -21.930   1.880  1.00  0.00     0.048 C 
HETATM    2  C   UNL     1      44.188 -20.643   2.529  1.00  0.00    -0.061 A 
HETATM    3  C   UNL     1      44.266 -20.483   3.919  1.00  0.00     0.020 A 
HETATM    4  C   UNL     1      43.889 -19.273   4.525  1.00  0.00    -0.008 A 
HETATM    5  C   UNL     1      43.440 -18.214   3.715  1.00  0.00     0.043 A 
HETATM    6  N   UNL     1      43.072 -17.058   4.292  1.00  0.00    -0.346 N 
HETATM    7  H   UNL     1      42.765 -16.315   3.676  1.00  0.00     0.167 HD
HETATM    8  C   UNL     1      43.080 -16.827   5.617  1.00  0.00     0.086 A 
HETATM    9  C   UNL     1      43.567 -17.843   6.463  1.00  0.00    -0.023 A 
HETATM   10  C   UNL     1      43.650 -17.666   7.955  1.00  0.00     0.052 C 
HETATM   11  C   UNL     1      43.948 -19.072   5.907  1.00  0.00     0.023 A 
HETATM   12  C   UNL     1      43.377 -18.365   2.325  1.00  0.00     0.031 A 
HETATM   13  C   UNL     1      43.752 -19.574   1.737  1.00  0.00     0.009 A 
ENDROOT
BRANCH   8  14
HETATM   14  N   UNL     1      42.698 -15.584   6.132  1.00  0.00    -0.277 NA
HETATM   15  H   UNL     1      41.712 -15.396   5.942  1.00  0.00     0.129 HD
BRANCH  14  16
HETATM   16  C   UNL     1      43.551 -14.425   5.870  1.00  0.00     0.113 C 
BRANCH  16  17
HETATM   17  C   UNL     1      44.641 -14.225   6.931  1.00  0.00     0.137 C 
BRANCH  17  18
HETATM   18  N   UNL     1      44.282 -13.374   8.062  1.00  0.00    -0.360 N 
HETATM   19  C   UNL     1      45.125 -12.488   8.704  1.00  0.00     0.221 C 
HETATM   20  O   UNL     1      46.267 -12.248   8.317  1.00  0.00    -0.273 OA
HETATM   21  H   UNL     1      43.365 -13.525   8.468  1.00  0.00     0.162 HD
BRANCH  19  22
HETATM   22  C   UNL     1      44.506 -11.824   9.934  1.00  0.00     0.070 C 
HETATM   23  C   UNL     1      45.551 -10.995  10.677  1.00  0.00     0.019 C 
HETATM   24  C   UNL     1      43.318 -10.947   9.538  1.00  0.00     0.019 C 
ENDBRANCH  19  22
ENDBRANCH  17  18
ENDBRANCH  16  17
ENDBRANCH  14  16
ENDBRANCH   8  14
TORSDOF 5
ENDMDL
MODEL 4
REMARK VINA RESULT:      -7.9      3.418      5.421
REMARK  5 active torsions:
REMARK  status: ('A' for Active; 'I' for Inactive)
REMARK    1  A    between atoms: C_8  and  N_9 
REMARK    2  A    between atoms: N_9  and  C_10 
REMARK    3  A    between atoms: C_10  and  C_11 
REMARK    4  A    between atoms: C_11  and  N_12 
REMARK       I    between atoms: N_12  and  C_13 
REMARK    5  A    between atoms: C_13  and  C_14 
ROOT
HETATM    1  C   UNL     1      44.710 -22.029   1.862  1.00  0.00     0.048 C 
HETATM    2  C   UNL     1      44.138 -20.789   2.489  1.00  0.00    -0.061 A 
HETATM    3  C   UNL     1      44.395 -20.484   3.834  1.00  0.00     0.020 A 
HETATM    4  C   UNL     1      43.880 -19.313   4.415  1.00  0.00    -0.008 A 
HETATM    5  C   UNL     1      43.109 -18.440   3.626  1.00  0.00     0.043 A 
HETATM    6  N   UNL     1      42.610 -17.324   4.182  1.00  0.00    -0.346 N 
HETATM    7  H   UNL     1      42.070 -16.713   3.581  1.00  0.00     0.167 HD
HETATM    8  C   UNL     1      42.774 -16.970   5.469  1.00  0.00     0.086 A 
HETATM    9  C   UNL     1      43.578 -17.790   6.284  1.00  0.00    -0.023 A 
HETATM   10  C   UNL     1      43.851 -17.460   7.727  1.00  0.00     0.052 C 
HETATM   11  C   UNL     1      44.108 -18.974   5.752  1.00  0.00     0.023 A 
HETATM   12  C   UNL     1      42.866 -18.733   2.280  1.00  0.00     0.031 A 
HETATM   13  C   UNL     1      43.382 -19.901   1.716  1.00  0.00     0.009 A 
ENDROOT
BRANCH   8  14
HETATM   14  N   UNL     1      42.234 -15.776   5.961  1.00  0.00    -0.277 NA
HETATM   15  H   UNL     1      42.755 -15.446   6.774  1.00  0.00     0.129 HD
BRANCH  14  16
HETATM   16  C   UNL     1      40.786 -15.687   6.147  1.00  0.00     0.113 C 
BRANCH  16  17
HETATM   17  C   UNL     1      40.122 -14.648   5.234  1.00  0.00     0.137 C 
BRANCH  17  18
HETATM   18  N   UNL     1      39.832 -15.088   3.872  1.00  0.00    -0.360 N 
HETATM   19  C   UNL     1      40.698 -15.010   2.798  1.00  0.00     0.221 C 
HETATM   20  O   UNL     1      41.866 -14.643   2.904  1.00  0.00    -0.273 OA
HETATM   21  H   UNL     1      38.879 -15.380   3.684  1.00  0.00     0.162 HD
BRANCH  19  22
HETATM   22  C   UNL     1      40.074 -15.434   1.468  1.00  0.00     0.070 C 
HETATM   23  C   UNL     1      39.256 -14.289   0.874  1.00  0.00     0.019 C 
HETATM   24  C   UNL     1      41.150 -15.884   0.481  1.00  0.00     0.019 C 
ENDBRANCH  19  22
ENDBRANCH  17  18
ENDBRANCH  16  17
ENDBRANCH  14  16
ENDBRANCH   8  14
TORSDOF 5
ENDMDL
MODEL 5
REMARK VINA RESULT:      -7.8      3.025      3.577
REMARK  5 active torsions:
REMARK  status: ('A' for Active; 'I' for Inactive)
REMARK    1  A    between atoms: C_8  and  N_9 
REMARK    2  A    between atoms: N_9  and  C_10 
REMARK    3  A    between atoms: C_10  and  C_11 
REMARK    4  A    between atoms: C_11  and  N_12 
REMARK       I    between atoms: N_12  and  C_13 
REMARK    5  A    between atoms: C_13  and  C_14 
ROOT
HETATM    1  C   UNL     1      44.698 -22.075   2.188  1.00  0.00     0.048 C 
HETATM    2  C   UNL     1      44.212 -20.715   2.602  1.00  0.00    -0.061 A 
HETATM    3  C   UNL     1      43.440 -19.935   1.728  1.00  0.00     0.020 A 
HETATM    4  C   UNL     1      42.965 -18.673   2.123  1.00  0.00    -0.008 A 
HETATM    5  C   UNL     1      43.264 -18.202   3.414  1.00  0.00     0.043 A 
HETATM    6  N   UNL     1      42.818 -16.993   3.790  1.00  0.00    -0.346 N 
HETATM    7  H   UNL     1      43.043 -16.692   4.730  1.00  0.00     0.167 HD
HETATM    8  C   UNL     1      42.103 -16.163   3.009  1.00  0.00     0.086 A 
HETATM    9  C   UNL     1      41.739 -16.613   1.725  1.00  0.00    -0.023 A 
HETATM   10  C   UNL     1      40.910 -15.773   0.790  1.00  0.00     0.052 C 
HETATM   11  C   UNL     1      42.196 -17.862   1.283  1.00  0.00     0.023 A 
HETATM   12  C   UNL     1      44.021 -18.986   4.293  1.00  0.00     0.031 A 
HETATM   13  C   UNL     1      44.488 -20.236   3.888  1.00  0.00     0.009 A 
ENDROOT
BRANCH   8  14
HETATM   14  N   UNL     1      41.661 -14.926   3.490  1.00  0.00    -0.277 NA
HETATM   15  H   UNL     1      42.420 -14.417   3.945  1.00  0.00     0.129 HD
BRANCH  14  16
HETATM   16  C   UNL     1      40.415 -14.877   4.255  1.00  0.00     0.113 C 
BRANCH  16  17
HETATM   17  C   UNL     1      40.620 -14.463   5.718  1.00  0.00     0.137 C 
BRANCH  17  18
HETATM   18  N   UNL     1      41.833 -14.964   6.359  1.00  0.00    -0.360 N 
HETATM   19  C   UNL     1      42.044 -16.261   6.783  1.00  0.00     0.221 C 
HETATM   20  O   UNL     1      41.249 -17.174   6.570  1.00  0.00    -0.273 OA
HETATM   21  H   UNL     1      42.535 -14.272   6.600  1.00  0.00     0.162 HD
BRANCH  19  22
HETATM   22  C   UNL     1      43.362 -16.461   7.531  1.00  0.00     0.070 C 
HETATM   23  C   UNL     1      43.577 -17.939   7.850  1.00  0.00     0.019 C 
HETATM   24  C   UNL     1      44.537 -15.919   6.717  1.00  0.00     0.019 C 
ENDBRANCH  19  22
ENDBRANCH  17  18
ENDBRANCH  16  17
ENDBRANCH  14  16
ENDBRANCH   8  14
TORSDOF 5
ENDMDL
MODEL 6
REMARK VINA RESULT:      -7.7      2.491      4.466
REMARK  5 active torsions:
REMARK  status: ('A' for Active; 'I' for Inactive)
REMARK    1  A    between atoms: C_8  and  N_9 
REMARK    2  A    between atoms: N_9  and  C_10 
REMARK    3  A    between atoms: C_10  and  C_11 
REMARK    4  A    between atoms: C_11  and  N_12 
REMARK       I    between atoms: N_12  and  C_13 
REMARK    5  A    between atoms: C_13  and  C_14 
ROOT
HETATM    1  C   UNL     1      44.375 -21.877   1.628  1.00  0.00     0.048 C 
HETATM    2  C   UNL     1      44.117 -20.676   2.494  1.00  0.00    -0.061 A 
HETATM    3  C   UNL     1      44.355 -20.726   3.875  1.00  0.00     0.020 A 
HETATM    4  C   UNL     1      44.137 -19.598   4.683  1.00  0.00    -0.008 A 
HETATM    5  C   UNL     1      43.685 -18.407   4.086  1.00  0.00     0.043 A 
HETATM    6  N   UNL     1      43.469 -17.329   4.857  1.00  0.00    -0.346 N 
HETATM    7  H   UNL     1      43.155 -16.486   4.390  1.00  0.00     0.167 HD
HETATM    8  C   UNL     1      43.635 -17.296   6.191  1.00  0.00     0.086 A 
HETATM    9  C   UNL     1      44.132 -18.451   6.825  1.00  0.00    -0.023 A 
HETATM   10  C   UNL     1      44.385 -18.501   8.308  1.00  0.00     0.052 C 
HETATM   11  C   UNL     1      44.358 -19.605   6.063  1.00  0.00     0.023 A 
HETATM   12  C   UNL     1      43.463 -18.349   2.705  1.00  0.00     0.031 A 
HETATM   13  C   UNL     1      43.682 -19.479   1.915  1.00  0.00     0.009 A 
ENDROOT
BRANCH   8  14
HETATM   14  N   UNL     1      43.404 -16.120   6.915  1.00  0.00    -0.277 NA
HETATM   15  H   UNL     1      42.409 -15.889   6.930  1.00  0.00     0.129 HD
BRANCH  14  16
HETATM   16  C   UNL     1      44.248 -14.956   6.647  1.00  0.00     0.113 C 
BRANCH  16  17
HETATM   17  C   UNL     1      43.461 -13.746   6.127  1.00  0.00     0.137 C 
BRANCH  17  18
HETATM   18  N   UNL     1      42.513 -14.016   5.049  1.00  0.00    -0.360 N 
HETATM   19  C   UNL     1      42.800 -13.992   3.698  1.00  0.00     0.221 C 
HETATM   20  O   UNL     1      43.936 -13.831   3.257  1.00  0.00    -0.273 OA
HETATM   21  H   UNL     1      41.542 -14.132   5.319  1.00  0.00     0.162 HD
BRANCH  19  22
HETATM   22  C   UNL     1      41.578 -14.194   2.802  1.00  0.00     0.070 C 
HETATM   23  C   UNL     1      41.987 -14.834   1.477  1.00  0.00     0.019 C 
HETATM   24  C   UNL     1      40.527 -15.055   3.503  1.00  0.00     0.019 C 
ENDBRANCH  19  22
ENDBRANCH  17  18
ENDBRANCH  16  17
ENDBRANCH  14  16
ENDBRANCH   8  14
TORSDOF 5
ENDMDL
MODEL 7
REMARK VINA RESULT:      -7.5      2.502      4.444
REMARK  5 active torsions:
REMARK  status: ('A' for Active; 'I' for Inactive)
REMARK    1  A    between atoms: C_8  and  N_9 
REMARK    2  A    between atoms: N_9  and  C_10 
REMARK    3  A    between atoms: C_10  and  C_11 
REMARK    4  A    between atoms: C_11  and  N_12 
REMARK       I    between atoms: N_12  and  C_13 
REMARK    5  A    between atoms: C_13  and  C_14 
ROOT
HETATM    1  C   UNL     1      41.339 -15.849  -0.635  1.00  0.00     0.048 C 
HETATM    2  C   UNL     1      41.579 -16.449   0.722  1.00  0.00    -0.061 A 
HETATM    3  C   UNL     1      42.596 -17.394   0.916  1.00  0.00     0.020 A 
HETATM    4  C   UNL     1      42.837 -17.938   2.188  1.00  0.00    -0.008 A 
HETATM    5  C   UNL     1      42.049 -17.514   3.274  1.00  0.00     0.043 A 
HETATM    6  N   UNL     1      42.273 -18.039   4.489  1.00  0.00    -0.346 N 
HETATM    7  H   UNL     1      41.694 -17.701   5.249  1.00  0.00     0.167 HD
HETATM    8  C   UNL     1      43.200 -18.975   4.761  1.00  0.00     0.086 A 
HETATM    9  C   UNL     1      44.044 -19.394   3.715  1.00  0.00    -0.023 A 
HETATM   10  C   UNL     1      45.134 -20.409   3.927  1.00  0.00     0.052 C 
HETATM   11  C   UNL     1      43.838 -18.885   2.425  1.00  0.00     0.023 A 
HETATM   12  C   UNL     1      41.044 -16.558   3.086  1.00  0.00     0.031 A 
HETATM   13  C   UNL     1      40.814 -16.028   1.816  1.00  0.00     0.009 A 
ENDROOT
BRANCH   8  14
HETATM   14  N   UNL     1      43.378 -19.452   6.064  1.00  0.00    -0.277 NA
HETATM   15  H   UNL     1      42.480 -19.662   6.504  1.00  0.00     0.129 HD
BRANCH  14  16
HETATM   16  C   UNL     1      44.285 -18.731   6.956  1.00  0.00     0.113 C 
BRANCH  16  17
HETATM   17  C   UNL     1      43.592 -17.619   7.753  1.00  0.00     0.137 C 
BRANCH  17  18
HETATM   18  N   UNL     1      43.884 -16.252   7.330  1.00  0.00    -0.360 N 
HETATM   19  C   UNL     1      43.032 -15.428   6.620  1.00  0.00     0.221 C 
HETATM   20  O   UNL     1      41.873 -15.735   6.350  1.00  0.00    -0.273 OA
HETATM   21  H   UNL     1      44.831 -15.923   7.486  1.00  0.00     0.162 HD
BRANCH  19  22
HETATM   22  C   UNL     1      43.658 -14.095   6.212  1.00  0.00     0.070 C 
HETATM   23  C   UNL     1      45.058 -13.957   6.808  1.00  0.00     0.019 C 
HETATM   24  C   UNL     1      43.716 -13.965   4.690  1.00  0.00     0.019 C 
ENDBRANCH  19  22
ENDBRANCH  17  18
ENDBRANCH  16  17
ENDBRANCH  14  16
ENDBRANCH   8  14
TORSDOF 5
ENDMDL
MODEL 8
REMARK VINA RESULT:      -7.5      4.671      5.594
REMARK  5 active torsions:
REMARK  status: ('A' for Active; 'I' for Inactive)
REMARK    1  A    between atoms: C_8  and  N_9 
REMARK    2  A    between atoms: N_9  and  C_10 
REMARK    3  A    between atoms: C_10  and  C_11 
REMARK    4  A    between atoms: C_11  and  N_12 
REMARK       I    between atoms: N_12  and  C_13 
REMARK    5  A    between atoms: C_13  and  C_14 
ROOT
HETATM    1  C   UNL     1      45.083 -22.523   5.118  1.00  0.00     0.048 C 
HETATM    2  C   UNL     1      44.633 -21.505   4.109  1.00  0.00    -0.061 A 
HETATM    3  C   UNL     1      44.482 -20.158   4.471  1.00  0.00     0.020 A 
HETATM    4  C   UNL     1      44.084 -19.201   3.523  1.00  0.00    -0.008 A 
HETATM    5  C   UNL     1      43.846 -19.608   2.198  1.00  0.00     0.043 A 
HETATM    6  N   UNL     1      43.458 -18.696   1.292  1.00  0.00    -0.346 N 
HETATM    7  H   UNL     1      43.307 -19.024   0.345  1.00  0.00     0.167 HD
HETATM    8  C   UNL     1      43.253 -17.393   1.556  1.00  0.00     0.086 A 
HETATM    9  C   UNL     1      43.525 -16.931   2.859  1.00  0.00    -0.023 A 
HETATM   10  C   UNL     1      43.362 -15.485   3.243  1.00  0.00     0.052 C 
HETATM   11  C   UNL     1      43.918 -17.850   3.842  1.00  0.00     0.023 A 
HETATM   12  C   UNL     1      44.012 -20.949   1.830  1.00  0.00     0.031 A 
HETATM   13  C   UNL     1      44.406 -21.890   2.782  1.00  0.00     0.009 A 
ENDROOT
BRANCH   8  14
HETATM   14  N   UNL     1      42.867 -16.507   0.545  1.00  0.00    -0.277 NA
HETATM   15  H   UNL     1      43.193 -15.559   0.744  1.00  0.00     0.129 HD
BRANCH  14  16
HETATM   16  C   UNL     1      41.482 -16.538   0.077  1.00  0.00     0.113 C 
BRANCH  16  17
HETATM   17  C   UNL     1      40.868 -15.142  -0.088  1.00  0.00     0.137 C 
BRANCH  17  18
HETATM   18  N   UNL     1      40.825 -14.317   1.117  1.00  0.00    -0.360 N 
HETATM   19  C   UNL     1      39.921 -14.450   2.153  1.00  0.00     0.221 C 
HETATM   20  O   UNL     1      39.099 -15.362   2.213  1.00  0.00    -0.273 OA
HETATM   21  H   UNL     1      41.451 -13.519   1.142  1.00  0.00     0.162 HD
BRANCH  19  22
HETATM   22  C   UNL     1      40.043 -13.366   3.224  1.00  0.00     0.070 C 
HETATM   23  C   UNL     1      39.038 -12.245   2.965  1.00  0.00     0.019 C 
HETATM   24  C   UNL     1      39.834 -13.953   4.619  1.00  0.00     0.019 C 
ENDBRANCH  19  22
ENDBRANCH  17  18
ENDBRANCH  16  17
ENDBRANCH  14  16
ENDBRANCH   8  14
TORSDOF 5
ENDMDL
MODEL 9
REMARK VINA RESULT:      -7.5      4.811      7.260
REMARK  5 active torsions:
REMARK  status: ('A' for Active; 'I' for Inactive)
REMARK    1  A    between atoms: C_8  and  N_9 
REMARK    2  A    between atoms: N_9  and  C_10 
REMARK    3  A    between atoms: C_10  and  C_11 
REMARK    4  A    between atoms: C_11  and  N_12 
REMARK       I    between atoms: N_12  and  C_13 
REMARK    5  A    between atoms: C_13  and  C_14 
ROOT
HETATM    1  C   UNL     1      45.197 -22.359   4.768  1.00  0.00     0.048 C 
HETATM    2  C   UNL     1      44.595 -21.248   3.954  1.00  0.00    -0.061 A 
HETATM    3  C   UNL     1      44.453 -19.962   4.494  1.00  0.00     0.020 A 
HETATM    4  C   UNL     1      43.912 -18.917   3.727  1.00  0.00    -0.008 A 
HETATM    5  C   UNL     1      43.521 -19.174   2.401  1.00  0.00     0.043 A 
HETATM    6  N   UNL     1      42.995 -18.179   1.668  1.00  0.00    -0.346 N 
HETATM    7  H   UNL     1      42.736 -18.398   0.714  1.00  0.00     0.167 HD
HETATM    8  C   UNL     1      42.789 -16.926   2.114  1.00  0.00     0.086 A 
HETATM    9  C   UNL     1      43.210 -16.611   3.420  1.00  0.00    -0.023 A 
HETATM   10  C   UNL     1      43.056 -15.229   3.996  1.00  0.00     0.052 C 
HETATM   11  C   UNL     1      43.750 -17.622   4.228  1.00  0.00     0.023 A 
HETATM   12  C   UNL     1      43.676 -20.453   1.854  1.00  0.00     0.031 A 
HETATM   13  C   UNL     1      44.213 -21.483   2.628  1.00  0.00     0.009 A 
ENDROOT
BRANCH   8  14
HETATM   14  N   UNL     1      42.254 -15.944   1.274  1.00  0.00    -0.277 NA
HETATM   15  H   UNL     1      41.564 -15.375   1.768  1.00  0.00     0.129 HD
BRANCH  14  16
HETATM   16  C   UNL     1      41.807 -16.333  -0.063  1.00  0.00     0.113 C 
BRANCH  16  17
HETATM   17  C   UNL     1      40.938 -15.267  -0.744  1.00  0.00     0.137 C 
BRANCH  17  18
HETATM   18  N   UNL     1      41.652 -14.122  -1.302  1.00  0.00    -0.360 N 
HETATM   19  C   UNL     1      41.882 -13.891  -2.645  1.00  0.00     0.221 C 
HETATM   20  O   UNL     1      41.412 -14.595  -3.536  1.00  0.00    -0.273 OA
HETATM   21  H   UNL     1      42.101 -13.501  -0.637  1.00  0.00     0.162 HD
BRANCH  19  22
HETATM   22  C   UNL     1      42.765 -12.674  -2.921  1.00  0.00     0.070 C 
HETATM   23  C   UNL     1      42.152 -11.810  -4.021  1.00  0.00     0.019 C 
HETATM   24  C   UNL     1      42.967 -11.849  -1.650  1.00  0.00     0.019 C 
ENDBRANCH  19  22
ENDBRANCH  17  18
ENDBRANCH  16  17
ENDBRANCH  14  16
ENDBRANCH   8  14
TORSDOF 5
ENDMDL
MODEL 10
REMARK VINA RESULT:      -7.3      2.090      3.150
REMARK  5 active torsions:
REMARK  status: ('A' for Active; 'I' for Inactive)
REMARK    1  A    between atoms: C_8  and  N_9 
REMARK    2  A    between atoms: N_9  and  C_10 
REMARK    3  A    between atoms: C_10  and  C_11 
REMARK    4  A    between atoms: C_11  and  N_12 
REMARK       I    between atoms: N_12  and  C_13 
REMARK    5  A    between atoms: C_13  and  C_14 
ROOT
HETATM    1  C   UNL     1      45.487 -21.505   4.745  1.00  0.00     0.048 C 
HETATM    2  C   UNL     1      44.486 -20.392   4.617  1.00  0.00    -0.061 A 
HETATM    3  C   UNL     1      44.084 -19.933   3.354  1.00  0.00     0.020 A 
HETATM    4  C   UNL     1      43.131 -18.908   3.233  1.00  0.00    -0.008 A 
HETATM    5  C   UNL     1      42.573 -18.351   4.398  1.00  0.00     0.043 A 
HETATM    6  N   UNL     1      41.668 -17.366   4.284  1.00  0.00    -0.346 N 
HETATM    7  H   UNL     1      41.280 -16.997   5.144  1.00  0.00     0.167 HD
HETATM    8  C   UNL     1      41.251 -16.840   3.119  1.00  0.00     0.086 A 
HETATM    9  C   UNL     1      41.746 -17.399   1.925  1.00  0.00    -0.023 A 
HETATM   10  C   UNL     1      41.312 -16.904   0.572  1.00  0.00     0.052 C 
HETATM   11  C   UNL     1      42.705 -18.419   1.994  1.00  0.00     0.023 A 
HETATM   12  C   UNL     1      42.961 -18.818   5.659  1.00  0.00     0.031 A 
HETATM   13  C   UNL     1      43.910 -19.836   5.765  1.00  0.00     0.009 A 
ENDROOT
BRANCH   8  14
HETATM   14  N   UNL     1      40.287 -15.826   3.093  1.00  0.00    -0.277 NA
HETATM   15  H   UNL     1      40.115 -15.508   2.137  1.00  0.00     0.129 HD
BRANCH  14  16
HETATM   16  C   UNL     1      40.408 -14.719   4.040  1.00  0.00     0.113 C 
BRANCH  16  17
HETATM   17  C   UNL     1      41.686 -13.893   3.843  1.00  0.00     0.137 C 
BRANCH  17  18
HETATM   18  N   UNL     1      42.812 -14.244   4.706  1.00  0.00    -0.360 N 
HETATM   19  C   UNL     1      43.158 -13.603   5.881  1.00  0.00     0.221 C 
HETATM   20  O   UNL     1      42.478 -12.711   6.383  1.00  0.00    -0.273 OA
HETATM   21  H   UNL     1      43.446 -14.953   4.356  1.00  0.00     0.162 HD
BRANCH  19  22
HETATM   22  C   UNL     1      44.456 -14.114   6.504  1.00  0.00     0.070 C 
HETATM   23  C   UNL     1      44.750 -13.374   7.808  1.00  0.00     0.019 C 
HETATM   24  C   UNL     1      44.384 -15.620   6.756  1.00  0.00     0.019 C 
ENDBRANCH  19  22
ENDBRANCH  17  18
ENDBRANCH  16  17
ENDBRANCH  14  16
ENDBRANCH   8  14
TORSDOF 5
ENDMDL
