MODEL 1
REMARK VINA RESULT:      -9.2      0.000      0.000
REMARK  9 active torsions:
REMARK  status: ('A' for Active; 'I' for Inactive)
REMARK    1  A    between atoms: C_7  and  C_8 
REMARK    2  A    between atoms: C_9  and  O_10 
REMARK    3  A    between atoms: C_13  and  N_14 
REMARK    4  A    between atoms: N_14  and  C_15 
REMARK    5  A    between atoms: C_15  and  N_16 
REMARK       I    between atoms: N_16  and  C_17 
REMARK    6  A    between atoms: C_17  and  C_18 
REMARK    7  A    between atoms: C_21  and  O_22 
REMARK    8  A    between atoms: O_22  and  C_23 
REMARK    9  A    between atoms: C_23  and  C_24 
ROOT
HETATM    1  C   UNL     1      41.228 -14.271   1.008  1.00  0.00     0.052 A 
HETATM    2  C   UNL     1      41.319 -15.556   0.455  1.00  0.00     0.080 A 
HETATM    3  C   UNL     1      40.846 -16.668   1.146  1.00  0.00     0.040 A 
HETATM    4  C   UNL     1      40.297 -16.518   2.422  1.00  0.00     0.032 A 
HETATM    5  C   UNL     1      40.190 -15.249   2.999  1.00  0.00     0.035 A 
HETATM    6  C   UNL     1      40.657 -14.137   2.287  1.00  0.00     0.048 A 
ENDROOT
BRANCH   5   7
HETATM    7  N   UNL     1      39.720 -15.164   4.330  1.00  0.00    -0.337 N 
HETATM    8  H   UNL     1      38.875 -15.686   4.535  1.00  0.00     0.168 HD
BRANCH   7   9
HETATM    9  C   UNL     1      40.235 -14.419   5.362  1.00  0.00     0.157 C 
HETATM   10  S   UNL     1      39.843 -12.831   5.728  1.00  0.00    -0.047 SA
BRANCH   9  11
HETATM   11  N   UNL     1      41.150 -15.048   6.178  1.00  0.00    -0.201 NA
HETATM   12  C   UNL     1      42.487 -15.106   5.855  1.00  0.00     0.237 C 
HETATM   13  O   UNL     1      43.300 -14.292   6.275  1.00  0.00    -0.274 OA
HETATM   14  H   UNL     1      41.032 -14.635   7.098  1.00  0.00     0.139 HD
BRANCH  12  15
HETATM   15  C   UNL     1      42.935 -16.274   5.059  1.00  0.00     0.026 A 
HETATM   16  C   UNL     1      42.616 -17.561   5.504  1.00  0.00     0.019 A 
HETATM   17  C   UNL     1      42.925 -18.673   4.714  1.00  0.00     0.038 A 
HETATM   18  C   UNL     1      43.522 -18.501   3.464  1.00  0.00     0.068 A 
HETATM   19  C   UNL     1      43.864 -17.214   3.037  1.00  0.00     0.038 A 
HETATM   20  C   UNL     1      43.576 -16.099   3.829  1.00  0.00     0.019 A 
BRANCH  18  21
HETATM   21  O   UNL     1      43.813 -19.497   2.573  1.00  0.00    -0.351 OA
BRANCH  21  22
HETATM   22  C   UNL     1      44.955 -20.307   2.864  1.00  0.00     0.179 C 
BRANCH  22  23
HETATM   23  C   UNL     1      44.664 -21.756   2.442  1.00  0.00     0.002 C 
HETATM   24  C   UNL     1      44.535 -22.653   3.672  1.00  0.00     0.011 C 
HETATM   25  C   UNL     1      43.395 -21.841   1.591  1.00  0.00     0.011 C 
ENDBRANCH  22  23
ENDBRANCH  21  22
ENDBRANCH  18  21
ENDBRANCH  12  15
ENDBRANCH   9  11
ENDBRANCH   7   9
ENDBRANCH   5   7
BRANCH   1  26
HETATM   26  C   UNL     1      41.770 -13.112   0.306  1.00  0.00     0.183 A 
HETATM   27  O   UNL     1      41.665 -13.101  -1.058  1.00  0.00    -0.288 OA
HETATM   28  C   UNL     1      42.200 -11.899  -1.425  1.00  0.00     0.112 A 
HETATM   29  C   UNL     1      42.599 -11.250  -0.269  1.00  0.00     0.094 A 
HETATM   30  C   UNL     1      42.319 -11.388  -2.717  1.00  0.00    -0.025 A 
HETATM   31  C   UNL     1      43.141  -9.962  -0.365  1.00  0.00     0.041 A 
HETATM   32  N   UNL     1      42.358 -12.046   0.827  1.00  0.00    -0.221 NA
HETATM   33  C   UNL     1      43.261  -9.376  -1.638  1.00  0.00    -0.059 A 
HETATM   34  C   UNL     1      43.774  -7.971  -1.780  1.00  0.00     0.048 C 
HETATM   35  C   UNL     1      42.854 -10.086  -2.784  1.00  0.00     0.016 A 
HETATM   36  C   UNL     1      41.893 -12.115  -3.951  1.00  0.00     0.051 C 
ENDBRANCH   1  26
BRANCH   2  37
HETATM   37  O   UNL     1      41.885 -15.799  -0.770  1.00  0.00    -0.360 OA
HETATM   38  H   UNL     1      42.268 -14.962  -1.108  1.00  0.00     0.217 HD
ENDBRANCH   2  37
TORSDOF 9
ENDMDL
MODEL 2
REMARK VINA RESULT:      -8.8      4.244      8.004
REMARK  9 active torsions:
REMARK  status: ('A' for Active; 'I' for Inactive)
REMARK    1  A    between atoms: C_7  and  C_8 
REMARK    2  A    between atoms: C_9  and  O_10 
REMARK    3  A    between atoms: C_13  and  N_14 
REMARK    4  A    between atoms: N_14  and  C_15 
REMARK    5  A    between atoms: C_15  and  N_16 
REMARK       I    between atoms: N_16  and  C_17 
REMARK    6  A    between atoms: C_17  and  C_18 
REMARK    7  A    between atoms: C_21  and  O_22 
REMARK    8  A    between atoms: O_22  and  C_23 
REMARK    9  A    between atoms: C_23  and  C_24 
ROOT
HETATM    1  C   UNL     1      40.936 -11.419   6.738  1.00  0.00     0.052 A 
HETATM    2  C   UNL     1      39.782 -12.211   6.668  1.00  0.00     0.080 A 
HETATM    3  C   UNL     1      39.147 -12.445   5.451  1.00  0.00     0.040 A 
HETATM    4  C   UNL     1      39.642 -11.864   4.280  1.00  0.00     0.032 A 
HETATM    5  C   UNL     1      40.792 -11.072   4.318  1.00  0.00     0.035 A 
HETATM    6  C   UNL     1      41.430 -10.856   5.546  1.00  0.00     0.048 A 
ENDROOT
BRANCH   5   7
HETATM    7  N   UNL     1      41.193 -10.427   3.124  1.00  0.00    -0.337 N 
HETATM    8  H   UNL     1      41.465  -9.455   3.216  1.00  0.00     0.168 HD
BRANCH   7   9
HETATM    9  C   UNL     1      41.204 -10.940   1.850  1.00  0.00     0.157 C 
HETATM   10  S   UNL     1      40.095 -10.607   0.639  1.00  0.00    -0.047 SA
BRANCH   9  11
HETATM   11  N   UNL     1      42.239 -11.797   1.542  1.00  0.00    -0.201 NA
HETATM   12  C   UNL     1      42.053 -13.160   1.482  1.00  0.00     0.237 C 
HETATM   13  O   UNL     1      41.811 -13.745   0.434  1.00  0.00    -0.274 OA
HETATM   14  H   UNL     1      42.627 -11.460   0.667  1.00  0.00     0.139 HD
BRANCH  12  15
HETATM   15  C   UNL     1      42.274 -13.922   2.735  1.00  0.00     0.026 A 
HETATM   16  C   UNL     1      43.352 -13.578   3.558  1.00  0.00     0.019 A 
HETATM   17  C   UNL     1      43.514 -14.203   4.799  1.00  0.00     0.038 A 
HETATM   18  C   UNL     1      42.583 -15.148   5.234  1.00  0.00     0.068 A 
HETATM   19  C   UNL     1      41.525 -15.508   4.395  1.00  0.00     0.038 A 
HETATM   20  C   UNL     1      41.366 -14.902   3.146  1.00  0.00     0.019 A 
BRANCH  18  21
HETATM   21  O   UNL     1      42.593 -15.779   6.448  1.00  0.00    -0.351 OA
BRANCH  21  22
HETATM   22  C   UNL     1      42.711 -17.204   6.431  1.00  0.00     0.179 C 
BRANCH  22  23
HETATM   23  C   UNL     1      43.979 -17.594   5.655  1.00  0.00     0.002 C 
HETATM   24  C   UNL     1      45.080 -18.034   6.619  1.00  0.00     0.011 C 
HETATM   25  C   UNL     1      43.689 -18.706   4.643  1.00  0.00     0.011 C 
ENDBRANCH  22  23
ENDBRANCH  21  22
ENDBRANCH  18  21
ENDBRANCH  12  15
ENDBRANCH   9  11
ENDBRANCH   7   9
ENDBRANCH   5   7
BRANCH   1  26
HETATM   26  C   UNL     1      41.572 -11.132   8.020  1.00  0.00     0.183 A 
HETATM   27  O   UNL     1      42.929 -11.297   8.097  1.00  0.00    -0.288 OA
HETATM   28  C   UNL     1      43.240 -10.915   9.370  1.00  0.00     0.112 A 
HETATM   29  C   UNL     1      42.061 -10.540   9.994  1.00  0.00     0.094 A 
HETATM   30  C   UNL     1      44.505 -10.882   9.955  1.00  0.00    -0.025 A 
HETATM   31  C   UNL     1      42.111 -10.055  11.306  1.00  0.00     0.041 A 
HETATM   32  N   UNL     1      40.998 -10.719   9.139  1.00  0.00    -0.221 NA
HETATM   33  C   UNL     1      43.361  -9.968  11.944  1.00  0.00    -0.059 A 
HETATM   34  C   UNL     1      43.467  -9.390  13.327  1.00  0.00     0.048 C 
HETATM   35  C   UNL     1      44.528 -10.377  11.271  1.00  0.00     0.016 A 
HETATM   36  C   UNL     1      45.761 -11.305   9.266  1.00  0.00     0.051 C 
ENDBRANCH   1  26
BRANCH   2  37
HETATM   37  O   UNL     1      39.203 -12.780   7.773  1.00  0.00    -0.360 OA
HETATM   38  H   UNL     1      39.625 -12.404   8.574  1.00  0.00     0.217 HD
ENDBRANCH   2  37
TORSDOF 9
ENDMDL
MODEL 3
REMARK VINA RESULT:      -8.8      1.491      2.222
REMARK  9 active torsions:
REMARK  status: ('A' for Active; 'I' for Inactive)
REMARK    1  A    between atoms: C_7  and  C_8 
REMARK    2  A    between atoms: C_9  and  O_10 
REMARK    3  A    between atoms: C_13  and  N_14 
REMARK    4  A    between atoms: N_14  and  C_15 
REMARK    5  A    between atoms: C_15  and  N_16 
REMARK       I    between atoms: N_16  and  C_17 
REMARK    6  A    between atoms: C_17  and  C_18 
REMARK    7  A    between atoms: C_21  and  O_22 
REMARK    8  A    between atoms: O_22  and  C_23 
REMARK    9  A    between atoms: C_23  and  C_24 
ROOT
HETATM    1  C   UNL     1      41.769 -14.301   0.602  1.00  0.00     0.052 A 
HETATM    2  C   UNL     1      41.500 -15.661   0.394  1.00  0.00     0.080 A 
HETATM    3  C   UNL     1      41.479 -16.557   1.460  1.00  0.00     0.040 A 
HETATM    4  C   UNL     1      41.759 -16.112   2.755  1.00  0.00     0.032 A 
HETATM    5  C   UNL     1      42.029 -14.762   2.993  1.00  0.00     0.035 A 
HETATM    6  C   UNL     1      42.032 -13.868   1.915  1.00  0.00     0.048 A 
ENDROOT
BRANCH   5   7
HETATM    7  N   UNL     1      42.403 -14.382   4.303  1.00  0.00    -0.337 N 
HETATM    8  H   UNL     1      43.368 -14.093   4.422  1.00  0.00     0.168 HD
BRANCH   7   9
HETATM    9  C   UNL     1      41.636 -14.410   5.442  1.00  0.00     0.157 C 
HETATM   10  S   UNL     1      40.035 -13.932   5.570  1.00  0.00    -0.047 SA
BRANCH   9  11
HETATM   11  N   UNL     1      42.245 -14.891   6.581  1.00  0.00    -0.201 NA
HETATM   12  C   UNL     1      43.543 -15.350   6.568  1.00  0.00     0.237 C 
HETATM   13  O   UNL     1      44.494 -14.638   6.865  1.00  0.00    -0.274 OA
HETATM   14  H   UNL     1      42.139 -14.164   7.281  1.00  0.00     0.139 HD
BRANCH  12  15
HETATM   15  C   UNL     1      43.742 -16.792   6.287  1.00  0.00     0.026 A 
HETATM   16  C   UNL     1      42.632 -17.581   5.966  1.00  0.00     0.019 A 
HETATM   17  C   UNL     1      42.806 -18.915   5.584  1.00  0.00     0.038 A 
HETATM   18  C   UNL     1      44.091 -19.454   5.490  1.00  0.00     0.068 A 
HETATM   19  C   UNL     1      45.194 -18.670   5.840  1.00  0.00     0.038 A 
HETATM   20  C   UNL     1      45.026 -17.341   6.241  1.00  0.00     0.019 A 
BRANCH  18  21
HETATM   21  O   UNL     1      44.397 -20.719   5.067  1.00  0.00    -0.351 OA
BRANCH  21  22
HETATM   22  C   UNL     1      45.027 -20.834   3.788  1.00  0.00     0.179 C 
BRANCH  22  23
HETATM   23  C   UNL     1      43.956 -20.741   2.690  1.00  0.00     0.002 C 
HETATM   24  C   UNL     1      43.981 -19.359   2.039  1.00  0.00     0.011 C 
HETATM   25  C   UNL     1      44.154 -21.827   1.630  1.00  0.00     0.011 C 
ENDBRANCH  22  23
ENDBRANCH  21  22
ENDBRANCH  18  21
ENDBRANCH  12  15
ENDBRANCH   9  11
ENDBRANCH   7   9
ENDBRANCH   5   7
BRANCH   1  26
HETATM   26  C   UNL     1      41.841 -13.371  -0.520  1.00  0.00     0.183 A 
HETATM   27  O   UNL     1      42.496 -12.187  -0.312  1.00  0.00    -0.288 OA
HETATM   28  C   UNL     1      42.446 -11.560  -1.524  1.00  0.00     0.112 A 
HETATM   29  C   UNL     1      41.767 -12.393  -2.398  1.00  0.00     0.094 A 
HETATM   30  C   UNL     1      42.986 -10.317  -1.853  1.00  0.00    -0.025 A 
HETATM   31  C   UNL     1      41.620 -12.002  -3.735  1.00  0.00     0.041 A 
HETATM   32  N   UNL     1      41.350 -13.527  -1.740  1.00  0.00    -0.221 NA
HETATM   33  C   UNL     1      42.168 -10.772  -4.139  1.00  0.00    -0.059 A 
HETATM   34  C   UNL     1      42.091 -10.345  -5.578  1.00  0.00     0.048 C 
HETATM   35  C   UNL     1      42.836  -9.955  -3.207  1.00  0.00     0.016 A 
HETATM   36  C   UNL     1      43.702  -9.430  -0.889  1.00  0.00     0.051 C 
ENDBRANCH   1  26
BRANCH   2  37
HETATM   37  O   UNL     1      41.261 -16.191  -0.848  1.00  0.00    -0.360 OA
HETATM   38  H   UNL     1      40.901 -17.097  -0.736  1.00  0.00     0.217 HD
ENDBRANCH   2  37
TORSDOF 9
ENDMDL
MODEL 4
REMARK VINA RESULT:      -8.7      4.810      9.351
REMARK  9 active torsions:
REMARK  status: ('A' for Active; 'I' for Inactive)
REMARK    1  A    between atoms: C_7  and  C_8 
REMARK    2  A    between atoms: C_9  and  O_10 
REMARK    3  A    between atoms: C_13  and  N_14 
REMARK    4  A    between atoms: N_14  and  C_15 
REMARK    5  A    between atoms: C_15  and  N_16 
REMARK       I    between atoms: N_16  and  C_17 
REMARK    6  A    between atoms: C_17  and  C_18 
REMARK    7  A    between atoms: C_21  and  O_22 
REMARK    8  A    between atoms: O_22  and  C_23 
REMARK    9  A    between atoms: C_23  and  C_24 
ROOT
HETATM    1  C   UNL     1      41.436 -15.581   3.241  1.00  0.00     0.052 A 
HETATM    2  C   UNL     1      40.218 -15.392   2.573  1.00  0.00     0.080 A 
HETATM    3  C   UNL     1      39.475 -14.228   2.753  1.00  0.00     0.040 A 
HETATM    4  C   UNL     1      39.926 -13.240   3.633  1.00  0.00     0.032 A 
HETATM    5  C   UNL     1      41.137 -13.399   4.311  1.00  0.00     0.035 A 
HETATM    6  C   UNL     1      41.882 -14.568   4.110  1.00  0.00     0.048 A 
ENDROOT
BRANCH   5   7
HETATM    7  N   UNL     1      41.497 -12.417   5.263  1.00  0.00    -0.337 N 
HETATM    8  H   UNL     1      42.351 -12.594   5.781  1.00  0.00     0.168 HD
BRANCH   7   9
HETATM    9  C   UNL     1      40.805 -11.282   5.610  1.00  0.00     0.157 C 
HETATM   10  S   UNL     1      41.019  -9.754   4.959  1.00  0.00    -0.047 SA
BRANCH   9  11
HETATM   11  N   UNL     1      39.833 -11.427   6.577  1.00  0.00    -0.201 NA
HETATM   12  C   UNL     1      39.595 -10.447   7.514  1.00  0.00     0.237 C 
HETATM   13  O   UNL     1      38.730  -9.593   7.366  1.00  0.00    -0.274 OA
HETATM   14  H   UNL     1      38.976 -11.648   6.078  1.00  0.00     0.139 HD
BRANCH  12  15
HETATM   15  C   UNL     1      40.358 -10.533   8.782  1.00  0.00     0.026 A 
HETATM   16  C   UNL     1      39.701 -10.952   9.943  1.00  0.00     0.019 A 
HETATM   17  C   UNL     1      40.423 -11.153  11.125  1.00  0.00     0.038 A 
HETATM   18  C   UNL     1      41.806 -10.967  11.140  1.00  0.00     0.068 A 
HETATM   19  C   UNL     1      42.453 -10.521   9.984  1.00  0.00     0.038 A 
HETATM   20  C   UNL     1      41.736 -10.300   8.805  1.00  0.00     0.019 A 
BRANCH  18  21
HETATM   21  O   UNL     1      42.631 -11.193  12.208  1.00  0.00    -0.351 OA
BRANCH  21  22
HETATM   22  C   UNL     1      43.665 -10.231  12.436  1.00  0.00     0.179 C 
BRANCH  22  23
HETATM   23  C   UNL     1      43.294  -9.374  13.656  1.00  0.00     0.002 C 
HETATM   24  C   UNL     1      42.621  -8.077  13.210  1.00  0.00     0.011 C 
HETATM   25  C   UNL     1      42.380 -10.141  14.615  1.00  0.00     0.011 C 
ENDBRANCH  22  23
ENDBRANCH  21  22
ENDBRANCH  18  21
ENDBRANCH  12  15
ENDBRANCH   9  11
ENDBRANCH   7   9
ENDBRANCH   5   7
BRANCH   1  26
HETATM   26  C   UNL     1      42.189 -16.822   3.092  1.00  0.00     0.183 A 
HETATM   27  O   UNL     1      43.014 -17.182   4.122  1.00  0.00    -0.288 OA
HETATM   28  C   UNL     1      43.535 -18.382   3.730  1.00  0.00     0.112 A 
HETATM   29  C   UNL     1      43.000 -18.683   2.488  1.00  0.00     0.094 A 
HETATM   30  C   UNL     1      44.430 -19.185   4.437  1.00  0.00    -0.025 A 
HETATM   31  C   UNL     1      43.338 -19.898   1.879  1.00  0.00     0.041 A 
HETATM   32  N   UNL     1      42.174 -17.665   2.071  1.00  0.00    -0.221 NA
HETATM   33  C   UNL     1      44.214 -20.768   2.553  1.00  0.00    -0.059 A 
HETATM   34  C   UNL     1      44.549 -22.110   1.966  1.00  0.00     0.048 C 
HETATM   35  C   UNL     1      44.742 -20.406   3.807  1.00  0.00     0.016 A 
HETATM   36  C   UNL     1      45.004 -18.831   5.769  1.00  0.00     0.051 C 
ENDBRANCH   1  26
BRANCH   2  37
HETATM   37  O   UNL     1      39.680 -16.330   1.729  1.00  0.00    -0.360 OA
HETATM   38  H   UNL     1      39.111 -15.869   1.075  1.00  0.00     0.217 HD
ENDBRANCH   2  37
TORSDOF 9
ENDMDL
MODEL 5
REMARK VINA RESULT:      -8.5      4.598      7.911
REMARK  9 active torsions:
REMARK  status: ('A' for Active; 'I' for Inactive)
REMARK    1  A    between atoms: C_7  and  C_8 
REMARK    2  A    between atoms: C_9  and  O_10 
REMARK    3  A    between atoms: C_13  and  N_14 
REMARK    4  A    between atoms: N_14  and  C_15 
REMARK    5  A    between atoms: C_15  and  N_16 
REMARK       I    between atoms: N_16  and  C_17 
REMARK    6  A    between atoms: C_17  and  C_18 
REMARK    7  A    between atoms: C_21  and  O_22 
REMARK    8  A    between atoms: O_22  and  C_23 
REMARK    9  A    between atoms: C_23  and  C_24 
ROOT
HETATM    1  C   UNL     1      40.695 -10.782   7.249  1.00  0.00     0.052 A 
HETATM    2  C   UNL     1      39.674  -9.927   6.811  1.00  0.00     0.080 A 
HETATM    3  C   UNL     1      39.124 -10.061   5.538  1.00  0.00     0.040 A 
HETATM    4  C   UNL     1      39.611 -11.038   4.666  1.00  0.00     0.032 A 
HETATM    5  C   UNL     1      40.626 -11.907   5.075  1.00  0.00     0.035 A 
HETATM    6  C   UNL     1      41.160 -11.771   6.362  1.00  0.00     0.048 A 
ENDROOT
BRANCH   5   7
HETATM    7  N   UNL     1      41.149 -12.810   4.121  1.00  0.00    -0.337 N 
HETATM    8  H   UNL     1      42.159 -12.818   4.025  1.00  0.00     0.168 HD
BRANCH   7   9
HETATM    9  C   UNL     1      40.456 -13.637   3.271  1.00  0.00     0.157 C 
HETATM   10  S   UNL     1      40.183 -13.375   1.639  1.00  0.00    -0.047 SA
BRANCH   9  11
HETATM   11  N   UNL     1      39.953 -14.798   3.817  1.00  0.00    -0.201 NA
HETATM   12  C   UNL     1      40.678 -15.547   4.717  1.00  0.00     0.237 C 
HETATM   13  O   UNL     1      40.555 -15.418   5.928  1.00  0.00    -0.274 OA
HETATM   14  H   UNL     1      39.053 -14.550   4.216  1.00  0.00     0.139 HD
BRANCH  12  15
HETATM   15  C   UNL     1      41.544 -16.612   4.158  1.00  0.00     0.026 A 
HETATM   16  C   UNL     1      41.261 -17.120   2.886  1.00  0.00     0.019 A 
HETATM   17  C   UNL     1      42.129 -18.040   2.289  1.00  0.00     0.038 A 
HETATM   18  C   UNL     1      43.297 -18.431   2.947  1.00  0.00     0.068 A 
HETATM   19  C   UNL     1      43.559 -17.942   4.230  1.00  0.00     0.038 A 
HETATM   20  C   UNL     1      42.688 -17.036   4.841  1.00  0.00     0.019 A 
BRANCH  18  21
HETATM   21  O   UNL     1      44.255 -19.269   2.445  1.00  0.00    -0.351 OA
BRANCH  21  22
HETATM   22  C   UNL     1      44.771 -20.262   3.336  1.00  0.00     0.179 C 
BRANCH  22  23
HETATM   23  C   UNL     1      44.721 -21.633   2.645  1.00  0.00     0.002 C 
HETATM   24  C   UNL     1      44.574 -22.747   3.681  1.00  0.00     0.011 C 
HETATM   25  C   UNL     1      43.575 -21.701   1.631  1.00  0.00     0.011 C 
ENDBRANCH  22  23
ENDBRANCH  21  22
ENDBRANCH  18  21
ENDBRANCH  12  15
ENDBRANCH   9  11
ENDBRANCH   7   9
ENDBRANCH   5   7
BRANCH   1  26
HETATM   26  C   UNL     1      41.305 -10.610   8.563  1.00  0.00     0.183 A 
HETATM   27  O   UNL     1      42.656 -10.813   8.658  1.00  0.00    -0.288 OA
HETATM   28  C   UNL     1      42.944 -10.537   9.964  1.00  0.00     0.112 A 
HETATM   29  C   UNL     1      41.759 -10.183  10.588  1.00  0.00     0.094 A 
HETATM   30  C   UNL     1      44.195 -10.579  10.579  1.00  0.00    -0.025 A 
HETATM   31  C   UNL     1      41.787  -9.801  11.935  1.00  0.00     0.041 A 
HETATM   32  N   UNL     1      40.713 -10.271   9.698  1.00  0.00    -0.221 NA
HETATM   33  C   UNL     1      43.023  -9.793  12.606  1.00  0.00    -0.059 A 
HETATM   34  C   UNL     1      43.108  -9.326  14.031  1.00  0.00     0.048 C 
HETATM   35  C   UNL     1      44.197 -10.177  11.929  1.00  0.00     0.016 A 
HETATM   36  C   UNL     1      45.458 -10.978   9.888  1.00  0.00     0.051 C 
ENDBRANCH   1  26
BRANCH   2  37
HETATM   37  O   UNL     1      39.171  -8.912   7.585  1.00  0.00    -0.360 OA
HETATM   38  H   UNL     1      38.196  -9.009   7.628  1.00  0.00     0.217 HD
ENDBRANCH   2  37
TORSDOF 9
ENDMDL
MODEL 6
REMARK VINA RESULT:      -8.1      3.990      9.153
REMARK  9 active torsions:
REMARK  status: ('A' for Active; 'I' for Inactive)
REMARK    1  A    between atoms: C_7  and  C_8 
REMARK    2  A    between atoms: C_9  and  O_10 
REMARK    3  A    between atoms: C_13  and  N_14 
REMARK    4  A    between atoms: N_14  and  C_15 
REMARK    5  A    between atoms: C_15  and  N_16 
REMARK       I    between atoms: N_16  and  C_17 
REMARK    6  A    between atoms: C_17  and  C_18 
REMARK    7  A    between atoms: C_21  and  O_22 
REMARK    8  A    between atoms: O_22  and  C_23 
REMARK    9  A    between atoms: C_23  and  C_24 
ROOT
HETATM    1  C   UNL     1      43.268 -15.494   4.796  1.00  0.00     0.052 A 
HETATM    2  C   UNL     1      43.689 -15.127   6.082  1.00  0.00     0.080 A 
HETATM    3  C   UNL     1      43.462 -13.842   6.570  1.00  0.00     0.040 A 
HETATM    4  C   UNL     1      42.833 -12.889   5.764  1.00  0.00     0.032 A 
HETATM    5  C   UNL     1      42.399 -13.227   4.480  1.00  0.00     0.035 A 
HETATM    6  C   UNL     1      42.621 -14.527   4.007  1.00  0.00     0.048 A 
ENDROOT
BRANCH   5   7
HETATM    7  N   UNL     1      41.859 -12.200   3.671  1.00  0.00    -0.337 N 
HETATM    8  H   UNL     1      42.515 -11.495   3.353  1.00  0.00     0.168 HD
BRANCH   7   9
HETATM    9  C   UNL     1      40.548 -12.011   3.310  1.00  0.00     0.157 C 
HETATM   10  S   UNL     1      39.988 -11.631   1.777  1.00  0.00    -0.047 SA
BRANCH   9  11
HETATM   11  N   UNL     1      39.607 -12.164   4.306  1.00  0.00    -0.201 NA
HETATM   12  C   UNL     1      39.124 -11.086   5.015  1.00  0.00     0.237 C 
HETATM   13  O   UNL     1      38.091 -10.507   4.705  1.00  0.00    -0.274 OA
HETATM   14  H   UNL     1      38.839 -12.677   3.886  1.00  0.00     0.139 HD
BRANCH  12  15
HETATM   15  C   UNL     1      39.850 -10.719   6.254  1.00  0.00     0.026 A 
HETATM   16  C   UNL     1      39.529 -11.372   7.448  1.00  0.00     0.019 A 
HETATM   17  C   UNL     1      40.277 -11.128   8.605  1.00  0.00     0.038 A 
HETATM   18  C   UNL     1      41.367 -10.257   8.563  1.00  0.00     0.068 A 
HETATM   19  C   UNL     1      41.665  -9.585   7.374  1.00  0.00     0.038 A 
HETATM   20  C   UNL     1      40.911  -9.809   6.218  1.00  0.00     0.019 A 
BRANCH  18  21
HETATM   21  O   UNL     1      42.213  -9.985   9.603  1.00  0.00    -0.351 OA
BRANCH  21  22
HETATM   22  C   UNL     1      42.141 -10.856  10.735  1.00  0.00     0.179 C 
BRANCH  22  23
HETATM   23  C   UNL     1      43.516 -10.905  11.420  1.00  0.00     0.002 C 
HETATM   24  C   UNL     1      44.622 -10.575  10.418  1.00  0.00     0.011 C 
HETATM   25  C   UNL     1      43.578  -9.943  12.609  1.00  0.00     0.011 C 
ENDBRANCH  22  23
ENDBRANCH  21  22
ENDBRANCH  18  21
ENDBRANCH  12  15
ENDBRANCH   9  11
ENDBRANCH   7   9
ENDBRANCH   5   7
BRANCH   1  26
HETATM   26  C   UNL     1      43.551 -16.825   4.267  1.00  0.00     0.183 A 
HETATM   27  O   UNL     1      43.755 -17.830   5.173  1.00  0.00    -0.288 OA
HETATM   28  C   UNL     1      43.943 -18.941   4.403  1.00  0.00     0.112 A 
HETATM   29  C   UNL     1      43.844 -18.553   3.078  1.00  0.00     0.094 A 
HETATM   30  C   UNL     1      44.178 -20.243   4.845  1.00  0.00    -0.025 A 
HETATM   31  C   UNL     1      43.950 -19.524   2.075  1.00  0.00     0.041 A 
HETATM   32  N   UNL     1      43.634 -17.195   2.999  1.00  0.00    -0.221 NA
HETATM   33  C   UNL     1      44.157 -20.863   2.454  1.00  0.00    -0.059 A 
HETATM   34  C   UNL     1      44.210 -21.945   1.413  1.00  0.00     0.048 C 
HETATM   35  C   UNL     1      44.266 -21.202   3.816  1.00  0.00     0.016 A 
HETATM   36  C   UNL     1      44.294 -20.635   6.282  1.00  0.00     0.051 C 
ENDBRANCH   1  26
BRANCH   2  37
HETATM   37  O   UNL     1      44.355 -15.984   6.920  1.00  0.00    -0.360 OA
HETATM   38  H   UNL     1      45.248 -16.150   6.550  1.00  0.00     0.217 HD
ENDBRANCH   2  37
TORSDOF 9
ENDMDL
MODEL 7
REMARK VINA RESULT:      -8.0      4.175      8.689
REMARK  9 active torsions:
REMARK  status: ('A' for Active; 'I' for Inactive)
REMARK    1  A    between atoms: C_7  and  C_8 
REMARK    2  A    between atoms: C_9  and  O_10 
REMARK    3  A    between atoms: C_13  and  N_14 
REMARK    4  A    between atoms: N_14  and  C_15 
REMARK    5  A    between atoms: C_15  and  N_16 
REMARK       I    between atoms: N_16  and  C_17 
REMARK    6  A    between atoms: C_17  and  C_18 
REMARK    7  A    between atoms: C_21  and  O_22 
REMARK    8  A    between atoms: O_22  and  C_23 
REMARK    9  A    between atoms: C_23  and  C_24 
ROOT
HETATM    1  C   UNL     1      43.097 -14.790   5.543  1.00  0.00     0.052 A 
HETATM    2  C   UNL     1      43.937 -14.503   6.628  1.00  0.00     0.080 A 
HETATM    3  C   UNL     1      43.844 -13.289   7.305  1.00  0.00     0.040 A 
HETATM    4  C   UNL     1      42.924 -12.324   6.887  1.00  0.00     0.032 A 
HETATM    5  C   UNL     1      42.071 -12.582   5.811  1.00  0.00     0.035 A 
HETATM    6  C   UNL     1      42.165 -13.813   5.148  1.00  0.00     0.048 A 
ENDROOT
BRANCH   5   7
HETATM    7  N   UNL     1      41.229 -11.536   5.367  1.00  0.00    -0.337 N 
HETATM    8  H   UNL     1      41.651 -10.614   5.328  1.00  0.00     0.168 HD
BRANCH   7   9
HETATM    9  C   UNL     1      39.898 -11.605   5.035  1.00  0.00     0.157 C 
HETATM   10  S   UNL     1      39.269 -12.113   3.568  1.00  0.00    -0.047 SA
BRANCH   9  11
HETATM   11  N   UNL     1      39.001 -11.234   6.013  1.00  0.00    -0.201 NA
HETATM   12  C   UNL     1      39.155 -10.068   6.729  1.00  0.00     0.237 C 
HETATM   13  O   UNL     1      38.600  -9.024   6.411  1.00  0.00    -0.274 OA
HETATM   14  H   UNL     1      38.086 -11.254   5.573  1.00  0.00     0.139 HD
BRANCH  12  15
HETATM   15  C   UNL     1      39.937 -10.151   7.986  1.00  0.00     0.026 A 
HETATM   16  C   UNL     1      39.519 -11.031   8.989  1.00  0.00     0.019 A 
HETATM   17  C   UNL     1      40.302 -11.213  10.134  1.00  0.00     0.038 A 
HETATM   18  C   UNL     1      41.520 -10.543  10.263  1.00  0.00     0.068 A 
HETATM   19  C   UNL     1      41.919  -9.644   9.270  1.00  0.00     0.038 A 
HETATM   20  C   UNL     1      41.133  -9.442   8.132  1.00  0.00     0.019 A 
BRANCH  18  21
HETATM   21  O   UNL     1      42.405 -10.685  11.297  1.00  0.00    -0.351 OA
BRANCH  21  22
HETATM   22  C   UNL     1      43.652  -9.995  11.175  1.00  0.00     0.179 C 
BRANCH  22  23
HETATM   23  C   UNL     1      44.788 -11.025  11.068  1.00  0.00     0.002 C 
HETATM   24  C   UNL     1      44.246 -12.438  11.276  1.00  0.00     0.011 C 
HETATM   25  C   UNL     1      45.499 -10.926   9.716  1.00  0.00     0.011 C 
ENDBRANCH  22  23
ENDBRANCH  21  22
ENDBRANCH  18  21
ENDBRANCH  12  15
ENDBRANCH   9  11
ENDBRANCH   7   9
ENDBRANCH   5   7
BRANCH   1  26
HETATM   26  C   UNL     1      43.229 -16.040   4.803  1.00  0.00     0.183 A 
HETATM   27  O   UNL     1      42.865 -16.028   3.483  1.00  0.00    -0.288 OA
HETATM   28  C   UNL     1      43.138 -17.294   3.050  1.00  0.00     0.112 A 
HETATM   29  C   UNL     1      43.651 -18.002   4.124  1.00  0.00     0.094 A 
HETATM   30  C   UNL     1      42.960 -17.801   1.763  1.00  0.00    -0.025 A 
HETATM   31  C   UNL     1      44.063 -19.326   3.931  1.00  0.00     0.041 A 
HETATM   32  N   UNL     1      43.668 -17.207   5.247  1.00  0.00    -0.221 NA
HETATM   33  C   UNL     1      43.938 -19.889   2.648  1.00  0.00    -0.059 A 
HETATM   34  C   UNL     1      44.430 -21.284   2.382  1.00  0.00     0.048 C 
HETATM   35  C   UNL     1      43.395 -19.131   1.594  1.00  0.00     0.016 A 
HETATM   36  C   UNL     1      42.392 -17.021   0.623  1.00  0.00     0.051 C 
ENDBRANCH   1  26
BRANCH   2  37
HETATM   37  O   UNL     1      44.899 -15.373   7.074  1.00  0.00    -0.360 OA
HETATM   38  H   UNL     1      45.728 -14.870   7.222  1.00  0.00     0.217 HD
ENDBRANCH   2  37
TORSDOF 9
ENDMDL
MODEL 8
REMARK VINA RESULT:      -7.9      4.551      8.184
REMARK  9 active torsions:
REMARK  status: ('A' for Active; 'I' for Inactive)
REMARK    1  A    between atoms: C_7  and  C_8 
REMARK    2  A    between atoms: C_9  and  O_10 
REMARK    3  A    between atoms: C_13  and  N_14 
REMARK    4  A    between atoms: N_14  and  C_15 
REMARK    5  A    between atoms: C_15  and  N_16 
REMARK       I    between atoms: N_16  and  C_17 
REMARK    6  A    between atoms: C_17  and  C_18 
REMARK    7  A    between atoms: C_21  and  O_22 
REMARK    8  A    between atoms: O_22  and  C_23 
REMARK    9  A    between atoms: C_23  and  C_24 
ROOT
HETATM    1  C   UNL     1      40.711 -11.245   6.797  1.00  0.00     0.052 A 
HETATM    2  C   UNL     1      39.773 -12.275   6.643  1.00  0.00     0.080 A 
HETATM    3  C   UNL     1      39.348 -12.673   5.377  1.00  0.00     0.040 A 
HETATM    4  C   UNL     1      39.836 -12.024   4.240  1.00  0.00     0.032 A 
HETATM    5  C   UNL     1      40.774 -10.996   4.362  1.00  0.00     0.035 A 
HETATM    6  C   UNL     1      41.204 -10.615   5.640  1.00  0.00     0.048 A 
ENDROOT
BRANCH   5   7
HETATM    7  N   UNL     1      41.159 -10.307   3.188  1.00  0.00    -0.337 N 
HETATM    8  H   UNL     1      41.489  -9.357   3.320  1.00  0.00     0.168 HD
BRANCH   7   9
HETATM    9  C   UNL     1      41.089 -10.747   1.889  1.00  0.00     0.157 C 
HETATM   10  S   UNL     1      39.864 -10.414   0.796  1.00  0.00    -0.047 SA
BRANCH   9  11
HETATM   11  N   UNL     1      42.139 -11.523   1.445  1.00  0.00    -0.201 NA
HETATM   12  C   UNL     1      41.942 -12.800   0.970  1.00  0.00     0.237 C 
HETATM   13  O   UNL     1      41.805 -13.043  -0.222  1.00  0.00    -0.274 OA
HETATM   14  H   UNL     1      42.623 -10.963   0.750  1.00  0.00     0.139 HD
BRANCH  12  15
HETATM   15  C   UNL     1      42.018 -13.902   1.959  1.00  0.00     0.026 A 
HETATM   16  C   UNL     1      41.077 -14.935   1.899  1.00  0.00     0.019 A 
HETATM   17  C   UNL     1      41.196 -16.043   2.745  1.00  0.00     0.038 A 
HETATM   18  C   UNL     1      42.273 -16.137   3.628  1.00  0.00     0.068 A 
HETATM   19  C   UNL     1      43.194 -15.088   3.705  1.00  0.00     0.038 A 
HETATM   20  C   UNL     1      43.071 -13.968   2.876  1.00  0.00     0.019 A 
BRANCH  18  21
HETATM   21  O   UNL     1      42.537 -17.193   4.457  1.00  0.00    -0.351 OA
BRANCH  21  22
HETATM   22  C   UNL     1      43.742 -17.921   4.205  1.00  0.00     0.179 C 
BRANCH  22  23
HETATM   23  C   UNL     1      43.569 -18.753   2.924  1.00  0.00     0.002 C 
HETATM   24  C   UNL     1      44.170 -18.017   1.727  1.00  0.00     0.011 C 
HETATM   25  C   UNL     1      44.211 -20.135   3.069  1.00  0.00     0.011 C 
ENDBRANCH  22  23
ENDBRANCH  21  22
ENDBRANCH  18  21
ENDBRANCH  12  15
ENDBRANCH   9  11
ENDBRANCH   7   9
ENDBRANCH   5   7
BRANCH   1  26
HETATM   26  C   UNL     1      41.118 -10.794   8.124  1.00  0.00     0.183 A 
HETATM   27  O   UNL     1      40.124 -10.449   9.000  1.00  0.00    -0.288 OA
HETATM   28  C   UNL     1      40.788 -10.124  10.148  1.00  0.00     0.112 A 
HETATM   29  C   UNL     1      42.142 -10.288   9.908  1.00  0.00     0.094 A 
HETATM   30  C   UNL     1      40.229  -9.714  11.358  1.00  0.00    -0.025 A 
HETATM   31  C   UNL     1      43.050 -10.065  10.951  1.00  0.00     0.041 A 
HETATM   32  N   UNL     1      42.346 -10.677   8.604  1.00  0.00    -0.221 NA
HETATM   33  C   UNL     1      42.549  -9.679  12.207  1.00  0.00    -0.059 A 
HETATM   34  C   UNL     1      43.482  -9.495  13.371  1.00  0.00     0.048 C 
HETATM   35  C   UNL     1      41.163  -9.511  12.394  1.00  0.00     0.016 A 
HETATM   36  C   UNL     1      38.765  -9.530  11.588  1.00  0.00     0.051 C 
ENDBRANCH   1  26
BRANCH   2  37
HETATM   37  O   UNL     1      39.208 -12.932   7.706  1.00  0.00    -0.360 OA
HETATM   38  H   UNL     1      38.961 -12.270   8.385  1.00  0.00     0.217 HD
ENDBRANCH   2  37
TORSDOF 9
ENDMDL
MODEL 9
REMARK VINA RESULT:      -7.8      2.380      4.587
REMARK  9 active torsions:
REMARK  status: ('A' for Active; 'I' for Inactive)
REMARK    1  A    between atoms: C_7  and  C_8 
REMARK    2  A    between atoms: C_9  and  O_10 
REMARK    3  A    between atoms: C_13  and  N_14 
REMARK    4  A    between atoms: N_14  and  C_15 
REMARK    5  A    between atoms: C_15  and  N_16 
REMARK       I    between atoms: N_16  and  C_17 
REMARK    6  A    between atoms: C_17  and  C_18 
REMARK    7  A    between atoms: C_21  and  O_22 
REMARK    8  A    between atoms: O_22  and  C_23 
REMARK    9  A    between atoms: C_23  and  C_24 
ROOT
HETATM    1  C   UNL     1      41.328 -13.319   3.293  1.00  0.00     0.052 A 
HETATM    2  C   UNL     1      40.154 -13.223   4.053  1.00  0.00     0.080 A 
HETATM    3  C   UNL     1      40.021 -13.914   5.255  1.00  0.00     0.040 A 
HETATM    4  C   UNL     1      41.054 -14.742   5.704  1.00  0.00     0.032 A 
HETATM    5  C   UNL     1      42.237 -14.855   4.969  1.00  0.00     0.035 A 
HETATM    6  C   UNL     1      42.364 -14.142   3.770  1.00  0.00     0.048 A 
ENDROOT
BRANCH   5   7
HETATM    7  N   UNL     1      43.208 -15.780   5.416  1.00  0.00    -0.337 N 
HETATM    8  H   UNL     1      44.153 -15.629   5.079  1.00  0.00     0.168 HD
BRANCH   7   9
HETATM    9  C   UNL     1      43.020 -16.888   6.205  1.00  0.00     0.157 C 
HETATM   10  S   UNL     1      43.340 -17.001   7.846  1.00  0.00    -0.047 SA
BRANCH   9  11
HETATM   11  N   UNL     1      42.505 -18.005   5.583  1.00  0.00    -0.201 NA
HETATM   12  C   UNL     1      43.130 -18.582   4.500  1.00  0.00     0.237 C 
HETATM   13  O   UNL     1      43.909 -19.519   4.614  1.00  0.00    -0.274 OA
HETATM   14  H   UNL     1      42.372 -18.695   6.316  1.00  0.00     0.139 HD
BRANCH  12  15
HETATM   15  C   UNL     1      42.731 -18.094   3.158  1.00  0.00     0.026 A 
HETATM   16  C   UNL     1      41.405 -17.702   2.945  1.00  0.00     0.019 A 
HETATM   17  C   UNL     1      41.030 -17.131   1.724  1.00  0.00     0.038 A 
HETATM   18  C   UNL     1      41.985 -16.919   0.728  1.00  0.00     0.068 A 
HETATM   19  C   UNL     1      43.302 -17.339   0.936  1.00  0.00     0.038 A 
HETATM   20  C   UNL     1      43.680 -17.928   2.146  1.00  0.00     0.019 A 
BRANCH  18  21
HETATM   21  O   UNL     1      41.760 -16.312  -0.478  1.00  0.00    -0.351 OA
BRANCH  21  22
HETATM   22  C   UNL     1      40.915 -15.159  -0.470  1.00  0.00     0.179 C 
BRANCH  22  23
HETATM   23  C   UNL     1      40.466 -14.854  -1.908  1.00  0.00     0.002 C 
HETATM   24  C   UNL     1      39.117 -14.138  -1.904  1.00  0.00     0.011 C 
HETATM   25  C   UNL     1      41.509 -14.011  -2.647  1.00  0.00     0.011 C 
ENDBRANCH  22  23
ENDBRANCH  21  22
ENDBRANCH  18  21
ENDBRANCH  12  15
ENDBRANCH   9  11
ENDBRANCH   7   9
ENDBRANCH   5   7
BRANCH   1  26
HETATM   26  C   UNL     1      41.448 -12.634   2.009  1.00  0.00     0.183 A 
HETATM   27  O   UNL     1      40.298 -12.144   1.451  1.00  0.00    -0.288 OA
HETATM   28  C   UNL     1      40.718 -11.528   0.308  1.00  0.00     0.112 A 
HETATM   29  C   UNL     1      42.093 -11.676   0.234  1.00  0.00     0.094 A 
HETATM   30  C   UNL     1      39.931 -10.851  -0.624  1.00  0.00    -0.025 A 
HETATM   31  C   UNL     1      42.785 -11.085  -0.830  1.00  0.00     0.041 A 
HETATM   32  N   UNL     1      42.545 -12.417   1.302  1.00  0.00    -0.221 NA
HETATM   33  C   UNL     1      42.053 -10.362  -1.789  1.00  0.00    -0.059 A 
HETATM   34  C   UNL     1      42.763  -9.656  -2.910  1.00  0.00     0.048 C 
HETATM   35  C   UNL     1      40.653 -10.255  -1.676  1.00  0.00     0.016 A 
HETATM   36  C   UNL     1      38.446 -10.716  -0.529  1.00  0.00     0.051 C 
ENDBRANCH   1  26
BRANCH   2  37
HETATM   37  O   UNL     1      39.074 -12.472   3.663  1.00  0.00    -0.360 OA
HETATM   38  H   UNL     1      38.342 -12.629   4.297  1.00  0.00     0.217 HD
ENDBRANCH   2  37
TORSDOF 9
ENDMDL
MODEL 10
REMARK VINA RESULT:      -7.7      3.380      9.082
REMARK  9 active torsions:
REMARK  status: ('A' for Active; 'I' for Inactive)
REMARK    1  A    between atoms: C_7  and  C_8 
REMARK    2  A    between atoms: C_9  and  O_10 
REMARK    3  A    between atoms: C_13  and  N_14 
REMARK    4  A    between atoms: N_14  and  C_15 
REMARK    5  A    between atoms: C_15  and  N_16 
REMARK       I    between atoms: N_16  and  C_17 
REMARK    6  A    between atoms: C_17  and  C_18 
REMARK    7  A    between atoms: C_21  and  O_22 
REMARK    8  A    between atoms: O_22  and  C_23 
REMARK    9  A    between atoms: C_23  and  C_24 
ROOT
HETATM    1  C   UNL     1      42.978 -15.650   2.765  1.00  0.00     0.052 A 
HETATM    2  C   UNL     1      43.038 -14.446   3.482  1.00  0.00     0.080 A 
HETATM    3  C   UNL     1      42.663 -13.242   2.892  1.00  0.00     0.040 A 
HETATM    4  C   UNL     1      42.248 -13.215   1.558  1.00  0.00     0.032 A 
HETATM    5  C   UNL     1      42.175 -14.399   0.819  1.00  0.00     0.035 A 
HETATM    6  C   UNL     1      42.541 -15.606   1.429  1.00  0.00     0.048 A 
ENDROOT
BRANCH   5   7
HETATM    7  N   UNL     1      41.845 -14.304  -0.553  1.00  0.00    -0.337 N 
HETATM    8  H   UNL     1      42.451 -13.716  -1.115  1.00  0.00     0.168 HD
BRANCH   7   9
HETATM    9  C   UNL     1      40.774 -14.865  -1.205  1.00  0.00     0.157 C 
HETATM   10  S   UNL     1      40.794 -15.551  -2.733  1.00  0.00    -0.047 SA
BRANCH   9  11
HETATM   11  N   UNL     1      39.575 -14.873  -0.525  1.00  0.00    -0.201 NA
HETATM   12  C   UNL     1      38.700 -13.811  -0.590  1.00  0.00     0.237 C 
HETATM   13  O   UNL     1      37.770 -13.776  -1.385  1.00  0.00    -0.274 OA
HETATM   14  H   UNL     1      39.105 -15.729  -0.800  1.00  0.00     0.139 HD
BRANCH  12  15
HETATM   15  C   UNL     1      38.859 -12.748   0.430  1.00  0.00     0.026 A 
HETATM   16  C   UNL     1      38.603 -13.050   1.771  1.00  0.00     0.019 A 
HETATM   17  C   UNL     1      38.856 -12.099   2.766  1.00  0.00     0.038 A 
HETATM   18  C   UNL     1      39.396 -10.857   2.426  1.00  0.00     0.068 A 
HETATM   19  C   UNL     1      39.623 -10.551   1.081  1.00  0.00     0.038 A 
HETATM   20  C   UNL     1      39.355 -11.489   0.080  1.00  0.00     0.019 A 
BRANCH  18  21
HETATM   21  O   UNL     1      39.749  -9.871   3.306  1.00  0.00    -0.351 OA
BRANCH  21  22
HETATM   22  C   UNL     1      39.297 -10.021   4.655  1.00  0.00     0.179 C 
BRANCH  22  23
HETATM   23  C   UNL     1      40.511 -10.000   5.597  1.00  0.00     0.002 C 
HETATM   24  C   UNL     1      41.148 -11.386   5.675  1.00  0.00     0.011 C 
HETATM   25  C   UNL     1      41.546  -8.968   5.144  1.00  0.00     0.011 C 
ENDBRANCH  22  23
ENDBRANCH  21  22
ENDBRANCH  18  21
ENDBRANCH  12  15
ENDBRANCH   9  11
ENDBRANCH   7   9
ENDBRANCH   5   7
BRANCH   1  26
HETATM   26  C   UNL     1      43.418 -16.904   3.367  1.00  0.00     0.183 A 
HETATM   27  O   UNL     1      43.254 -17.042   4.719  1.00  0.00    -0.288 OA
HETATM   28  C   UNL     1      43.699 -18.305   4.983  1.00  0.00     0.112 A 
HETATM   29  C   UNL     1      44.108 -18.863   3.783  1.00  0.00     0.094 A 
HETATM   30  C   UNL     1      43.732 -18.946   6.221  1.00  0.00    -0.025 A 
HETATM   31  C   UNL     1      44.567 -20.186   3.770  1.00  0.00     0.041 A 
HETATM   32  N   UNL     1      43.963 -17.949   2.765  1.00  0.00    -0.221 NA
HETATM   33  C   UNL     1      44.597 -20.900   4.981  1.00  0.00    -0.059 A 
HETATM   34  C   UNL     1      45.018 -22.342   5.000  1.00  0.00     0.048 C 
HETATM   35  C   UNL     1      44.184 -20.280   6.177  1.00  0.00     0.016 A 
HETATM   36  C   UNL     1      43.298 -18.318   7.505  1.00  0.00     0.051 C 
ENDBRANCH   1  26
BRANCH   2  37
HETATM   37  O   UNL     1      43.478 -14.375   4.779  1.00  0.00    -0.360 OA
HETATM   38  H   UNL     1      42.765 -13.983   5.328  1.00  0.00     0.217 HD
ENDBRANCH   2  37
TORSDOF 9
ENDMDL
