MODEL 1
REMARK VINA RESULT:      -7.8      0.000      0.000
REMARK  2 active torsions:
REMARK  status: ('A' for Active; 'I' for Inactive)
REMARK    1  A    between atoms: C_12  and  C_13 
REMARK    2  A    between atoms: C_16  and  O_17 
ROOT
HETATM    1  C   UNL     1      41.049 -16.523   1.109  1.00  0.00     0.002 A 
HETATM    2  C   UNL     1      40.640 -16.713   2.428  1.00  0.00     0.026 A 
HETATM    3  C   UNL     1      41.457 -17.387   3.349  1.00  0.00     0.036 A 
HETATM    4  C   UNL     1      42.716 -17.878   2.936  1.00  0.00     0.053 A 
HETATM    5  N   UNL     1      43.625 -18.538   3.797  1.00  0.00    -0.356 N 
HETATM    6  C   UNL     1      43.769 -18.316   5.148  1.00  0.00     0.041 A 
HETATM    7  C   UNL     1      42.964 -17.640   5.982  1.00  0.00     0.056 A 
HETATM    8  C   UNL     1      43.583 -17.687   7.314  1.00  0.00     0.251 A 
HETATM    9  O   UNL     1      43.125 -17.226   8.341  1.00  0.00    -0.268 OA
HETATM   10  N   UNL     1      44.767 -18.367   7.191  1.00  0.00    -0.351 N 
HETATM   11  C   UNL     1      44.987 -18.836   5.865  1.00  0.00     0.180 A 
HETATM   12  C   UNL     1      41.645 -16.995   5.773  1.00  0.00     0.134 C 
HETATM   13  N   UNL     1      40.918 -17.604   4.639  1.00  0.00    -0.278 NA
HETATM   14  C   UNL     1      43.101 -17.692   1.595  1.00  0.00     0.031 A 
HETATM   15  C   UNL     1      42.277 -17.018   0.690  1.00  0.00     0.002 A 
HETATM   16  H   UNL     1      44.448 -18.903   3.327  1.00  0.00     0.166 HD
HETATM   17  H   UNL     1      45.355 -18.542   7.994  1.00  0.00     0.163 HD
HETATM   18  H   UNL     1      40.934 -18.615   4.777  1.00  0.00     0.128 HD
ENDROOT
BRANCH  12  19
HETATM   19  C   UNL     1      41.645 -15.472   5.690  1.00  0.00    -0.035 A 
HETATM   20  C   UNL     1      42.810 -14.726   5.435  1.00  0.00     0.012 A 
HETATM   21  C   UNL     1      42.766 -13.331   5.356  1.00  0.00     0.037 A 
HETATM   22  C   UNL     1      41.554 -12.672   5.521  1.00  0.00     0.065 A 
HETATM   23  C   UNL     1      40.385 -13.384   5.755  1.00  0.00     0.037 A 
HETATM   24  C   UNL     1      40.429 -14.777   5.834  1.00  0.00     0.012 A 
BRANCH  22  25
HETATM   25  O   UNL     1      41.468 -11.313   5.453  1.00  0.00    -0.361 OA
HETATM   26  H   UNL     1      42.341 -10.941   5.655  1.00  0.00     0.217 HD
ENDBRANCH  22  25
ENDBRANCH  12  19
TORSDOF 2
ENDMDL
MODEL 2
REMARK VINA RESULT:      -7.7      2.153      4.626
REMARK  2 active torsions:
REMARK  status: ('A' for Active; 'I' for Inactive)
REMARK    1  A    between atoms: C_12  and  C_13 
REMARK    2  A    between atoms: C_16  and  O_17 
ROOT
HETATM    1  C   UNL     1      44.535 -19.838   2.786  1.00  0.00     0.002 A 
HETATM    2  C   UNL     1      44.582 -18.461   2.993  1.00  0.00     0.026 A 
HETATM    3  C   UNL     1      43.506 -17.637   2.630  1.00  0.00     0.036 A 
HETATM    4  C   UNL     1      42.353 -18.211   2.049  1.00  0.00     0.053 A 
HETATM    5  N   UNL     1      41.204 -17.471   1.683  1.00  0.00    -0.356 N 
HETATM    6  C   UNL     1      40.745 -16.328   2.297  1.00  0.00     0.041 A 
HETATM    7  C   UNL     1      41.370 -15.538   3.184  1.00  0.00     0.056 A 
HETATM    8  C   UNL     1      40.436 -14.462   3.540  1.00  0.00     0.251 A 
HETATM    9  O   UNL     1      40.660 -13.525   4.281  1.00  0.00    -0.268 OA
HETATM   10  N   UNL     1      39.267 -14.695   2.864  1.00  0.00    -0.351 N 
HETATM   11  C   UNL     1      39.346 -15.842   2.024  1.00  0.00     0.180 A 
HETATM   12  C   UNL     1      42.751 -15.564   3.726  1.00  0.00     0.134 C 
HETATM   13  N   UNL     1      43.683 -16.243   2.801  1.00  0.00    -0.278 NA
HETATM   14  C   UNL     1      42.334 -19.602   1.832  1.00  0.00     0.031 A 
HETATM   15  C   UNL     1      43.413 -20.409   2.199  1.00  0.00     0.002 A 
HETATM   16  H   UNL     1      40.496 -18.018   1.202  1.00  0.00     0.166 HD
HETATM   17  H   UNL     1      38.483 -14.061   2.941  1.00  0.00     0.163 HD
HETATM   18  H   UNL     1      43.545 -15.833   1.877  1.00  0.00     0.128 HD
ENDROOT
BRANCH  12  19
HETATM   19  C   UNL     1      42.904 -16.074   5.155  1.00  0.00    -0.035 A 
HETATM   20  C   UNL     1      42.175 -17.170   5.652  1.00  0.00     0.012 A 
HETATM   21  C   UNL     1      42.352 -17.614   6.966  1.00  0.00     0.037 A 
HETATM   22  C   UNL     1      43.267 -16.970   7.790  1.00  0.00     0.065 A 
HETATM   23  C   UNL     1      44.013 -15.897   7.321  1.00  0.00     0.037 A 
HETATM   24  C   UNL     1      43.836 -15.454   6.009  1.00  0.00     0.012 A 
BRANCH  22  25
HETATM   25  O   UNL     1      43.468 -17.370   9.078  1.00  0.00    -0.361 OA
HETATM   26  H   UNL     1      42.606 -17.427   9.519  1.00  0.00     0.217 HD
ENDBRANCH  22  25
ENDBRANCH  12  19
TORSDOF 2
ENDMDL
MODEL 3
REMARK VINA RESULT:      -7.2      2.147      3.210
REMARK  2 active torsions:
REMARK  status: ('A' for Active; 'I' for Inactive)
REMARK    1  A    between atoms: C_12  and  C_13 
REMARK    2  A    between atoms: C_16  and  O_17 
ROOT
HETATM    1  C   UNL     1      39.465 -13.364   0.346  1.00  0.00     0.002 A 
HETATM    2  C   UNL     1      39.336 -14.358   1.314  1.00  0.00     0.026 A 
HETATM    3  C   UNL     1      40.193 -15.468   1.331  1.00  0.00     0.036 A 
HETATM    4  C   UNL     1      41.208 -15.581   0.353  1.00  0.00     0.053 A 
HETATM    5  N   UNL     1      42.143 -16.641   0.307  1.00  0.00    -0.356 N 
HETATM    6  C   UNL     1      42.629 -17.343   1.387  1.00  0.00     0.041 A 
HETATM    7  C   UNL     1      42.179 -17.362   2.652  1.00  0.00     0.056 A 
HETATM    8  C   UNL     1      43.061 -18.257   3.412  1.00  0.00     0.251 A 
HETATM    9  O   UNL     1      42.945 -18.565   4.581  1.00  0.00    -0.268 OA
HETATM   10  N   UNL     1      44.033 -18.700   2.553  1.00  0.00    -0.351 N 
HETATM   11  C   UNL     1      43.853 -18.205   1.230  1.00  0.00     0.180 A 
HETATM   12  C   UNL     1      40.996 -16.731   3.286  1.00  0.00     0.134 C 
HETATM   13  N   UNL     1      39.928 -16.465   2.300  1.00  0.00    -0.278 NA
HETATM   14  C   UNL     1      41.309 -14.575  -0.626  1.00  0.00     0.031 A 
HETATM   15  C   UNL     1      40.448 -13.475  -0.629  1.00  0.00     0.002 A 
HETATM   16  H   UNL     1      42.753 -16.620  -0.505  1.00  0.00     0.166 HD
HETATM   17  H   UNL     1      44.742 -19.353   2.857  1.00  0.00     0.163 HD
HETATM   18  H   UNL     1      39.780 -17.327   1.774  1.00  0.00     0.128 HD
ENDROOT
BRANCH  12  19
HETATM   19  C   UNL     1      41.270 -15.513   4.162  1.00  0.00    -0.035 A 
HETATM   20  C   UNL     1      42.468 -14.780   4.088  1.00  0.00     0.012 A 
HETATM   21  C   UNL     1      42.678 -13.661   4.901  1.00  0.00     0.037 A 
HETATM   22  C   UNL     1      41.685 -13.263   5.787  1.00  0.00     0.065 A 
HETATM   23  C   UNL     1      40.486 -13.957   5.869  1.00  0.00     0.037 A 
HETATM   24  C   UNL     1      40.277 -15.073   5.057  1.00  0.00     0.012 A 
BRANCH  22  25
HETATM   25  O   UNL     1      41.850 -12.179   6.599  1.00  0.00    -0.361 OA
HETATM   26  H   UNL     1      41.375 -12.343   7.429  1.00  0.00     0.217 HD
ENDBRANCH  22  25
ENDBRANCH  12  19
TORSDOF 2
ENDMDL
MODEL 4
REMARK VINA RESULT:      -7.1      2.404      4.289
REMARK  2 active torsions:
REMARK  status: ('A' for Active; 'I' for Inactive)
REMARK    1  A    between atoms: C_12  and  C_13 
REMARK    2  A    between atoms: C_16  and  O_17 
ROOT
HETATM    1  C   UNL     1      39.382 -12.432   5.203  1.00  0.00     0.002 A 
HETATM    2  C   UNL     1      39.727 -13.692   5.686  1.00  0.00     0.026 A 
HETATM    3  C   UNL     1      39.960 -14.764   4.812  1.00  0.00     0.036 A 
HETATM    4  C   UNL     1      39.845 -14.565   3.417  1.00  0.00     0.053 A 
HETATM    5  N   UNL     1      40.094 -15.571   2.455  1.00  0.00    -0.356 N 
HETATM    6  C   UNL     1      40.987 -16.611   2.580  1.00  0.00     0.041 A 
HETATM    7  C   UNL     1      41.626 -17.047   3.678  1.00  0.00     0.056 A 
HETATM    8  C   UNL     1      42.477 -18.171   3.266  1.00  0.00     0.251 A 
HETATM    9  O   UNL     1      43.171 -18.855   3.991  1.00  0.00    -0.268 OA
HETATM   10  N   UNL     1      42.329 -18.321   1.912  1.00  0.00    -0.351 N 
HETATM   11  C   UNL     1      41.391 -17.401   1.363  1.00  0.00     0.180 A 
HETATM   12  C   UNL     1      41.531 -16.639   5.100  1.00  0.00     0.134 C 
HETATM   13  N   UNL     1      40.221 -16.024   5.402  1.00  0.00    -0.278 NA
HETATM   14  C   UNL     1      39.477 -13.289   2.951  1.00  0.00     0.031 A 
HETATM   15  C   UNL     1      39.249 -12.231   3.834  1.00  0.00     0.002 A 
HETATM   16  H   UNL     1      39.886 -15.292   1.501  1.00  0.00     0.166 HD
HETATM   17  H   UNL     1      42.809 -19.058   1.412  1.00  0.00     0.163 HD
HETATM   18  H   UNL     1      39.502 -16.651   5.041  1.00  0.00     0.128 HD
ENDROOT
BRANCH  12  19
HETATM   19  C   UNL     1      42.685 -15.798   5.638  1.00  0.00    -0.035 A 
HETATM   20  C   UNL     1      43.246 -16.007   6.911  1.00  0.00     0.012 A 
HETATM   21  C   UNL     1      44.311 -15.223   7.364  1.00  0.00     0.037 A 
HETATM   22  C   UNL     1      44.828 -14.228   6.543  1.00  0.00     0.065 A 
HETATM   23  C   UNL     1      44.306 -14.012   5.275  1.00  0.00     0.037 A 
HETATM   24  C   UNL     1      43.243 -14.796   4.823  1.00  0.00     0.012 A 
BRANCH  22  25
HETATM   25  O   UNL     1      45.865 -13.440   6.948  1.00  0.00    -0.361 OA
HETATM   26  H   UNL     1      46.671 -13.978   6.962  1.00  0.00     0.217 HD
ENDBRANCH  22  25
ENDBRANCH  12  19
TORSDOF 2
ENDMDL
MODEL 5
REMARK VINA RESULT:      -7.1      2.839      5.996
REMARK  2 active torsions:
REMARK  status: ('A' for Active; 'I' for Inactive)
REMARK    1  A    between atoms: C_12  and  C_13 
REMARK    2  A    between atoms: C_16  and  O_17 
ROOT
HETATM    1  C   UNL     1      44.200 -15.197   7.257  1.00  0.00     0.002 A 
HETATM    2  C   UNL     1      43.136 -15.945   6.759  1.00  0.00     0.026 A 
HETATM    3  C   UNL     1      42.571 -15.657   5.507  1.00  0.00     0.036 A 
HETATM    4  C   UNL     1      43.091 -14.594   4.735  1.00  0.00     0.053 A 
HETATM    5  N   UNL     1      42.616 -14.248   3.449  1.00  0.00    -0.356 N 
HETATM    6  C   UNL     1      42.079 -15.114   2.522  1.00  0.00     0.041 A 
HETATM    7  C   UNL     1      41.670 -16.382   2.690  1.00  0.00     0.056 A 
HETATM    8  C   UNL     1      41.198 -16.861   1.384  1.00  0.00     0.251 A 
HETATM    9  O   UNL     1      40.707 -17.947   1.147  1.00  0.00    -0.268 OA
HETATM   10  N   UNL     1      41.393 -15.848   0.482  1.00  0.00    -0.351 N 
HETATM   11  C   UNL     1      41.929 -14.677   1.089  1.00  0.00     0.180 A 
HETATM   12  C   UNL     1      41.570 -17.232   3.901  1.00  0.00     0.134 C 
HETATM   13  N   UNL     1      41.440 -16.418   5.127  1.00  0.00    -0.278 NA
HETATM   14  C   UNL     1      44.155 -13.839   5.265  1.00  0.00     0.031 A 
HETATM   15  C   UNL     1      44.707 -14.138   6.513  1.00  0.00     0.002 A 
HETATM   16  H   UNL     1      43.038 -13.409   3.063  1.00  0.00     0.166 HD
HETATM   17  H   UNL     1      41.116 -15.949  -0.485  1.00  0.00     0.163 HD
HETATM   18  H   UNL     1      40.696 -15.740   4.963  1.00  0.00     0.128 HD
ENDROOT
BRANCH  12  19
HETATM   19  C   UNL     1      42.634 -18.315   4.054  1.00  0.00    -0.035 A 
HETATM   20  C   UNL     1      43.449 -18.733   2.986  1.00  0.00     0.012 A 
HETATM   21  C   UNL     1      44.421 -19.721   3.169  1.00  0.00     0.037 A 
HETATM   22  C   UNL     1      44.591 -20.291   4.425  1.00  0.00     0.065 A 
HETATM   23  C   UNL     1      43.813 -19.885   5.500  1.00  0.00     0.037 A 
HETATM   24  C   UNL     1      42.843 -18.899   5.317  1.00  0.00     0.012 A 
BRANCH  22  25
HETATM   25  O   UNL     1      45.527 -21.259   4.645  1.00  0.00    -0.361 OA
HETATM   26  H   UNL     1      46.389 -20.923   4.355  1.00  0.00     0.217 HD
ENDBRANCH  22  25
ENDBRANCH  12  19
TORSDOF 2
ENDMDL
MODEL 6
REMARK VINA RESULT:      -7.0      2.214      2.918
REMARK  2 active torsions:
REMARK  status: ('A' for Active; 'I' for Inactive)
REMARK    1  A    between atoms: C_12  and  C_13 
REMARK    2  A    between atoms: C_16  and  O_17 
ROOT
HETATM    1  C   UNL     1      40.144 -14.324   2.479  1.00  0.00     0.002 A 
HETATM    2  C   UNL     1      40.270 -15.257   3.506  1.00  0.00     0.026 A 
HETATM    3  C   UNL     1      40.924 -16.480   3.297  1.00  0.00     0.036 A 
HETATM    4  C   UNL     1      41.468 -16.772   2.026  1.00  0.00     0.053 A 
HETATM    5  N   UNL     1      42.175 -17.960   1.725  1.00  0.00    -0.356 N 
HETATM    6  C   UNL     1      42.943 -18.691   2.603  1.00  0.00     0.041 A 
HETATM    7  C   UNL     1      43.010 -18.603   3.941  1.00  0.00     0.056 A 
HETATM    8  C   UNL     1      43.996 -19.594   4.391  1.00  0.00     0.251 A 
HETATM    9  O   UNL     1      44.295 -19.845   5.542  1.00  0.00    -0.268 OA
HETATM   10  N   UNL     1      44.504 -20.203   3.274  1.00  0.00    -0.351 N 
HETATM   11  C   UNL     1      43.898 -19.729   2.075  1.00  0.00     0.180 A 
HETATM   12  C   UNL     1      42.246 -17.786   4.914  1.00  0.00     0.134 C 
HETATM   13  N   UNL     1      40.925 -17.396   4.376  1.00  0.00    -0.278 NA
HETATM   14  C   UNL     1      41.313 -15.824   0.997  1.00  0.00     0.031 A 
HETATM   15  C   UNL     1      40.660 -14.609   1.221  1.00  0.00     0.002 A 
HETATM   16  H   UNL     1      42.427 -18.055   0.746  1.00  0.00     0.166 HD
HETATM   17  H   UNL     1      45.189 -20.943   3.347  1.00  0.00     0.163 HD
HETATM   18  H   UNL     1      40.482 -18.243   4.019  1.00  0.00     0.128 HD
ENDROOT
BRANCH  12  19
HETATM   19  C   UNL     1      42.982 -16.594   5.517  1.00  0.00    -0.035 A 
HETATM   20  C   UNL     1      43.390 -15.487   4.751  1.00  0.00     0.012 A 
HETATM   21  C   UNL     1      44.053 -14.408   5.344  1.00  0.00     0.037 A 
HETATM   22  C   UNL     1      44.306 -14.425   6.710  1.00  0.00     0.065 A 
HETATM   23  C   UNL     1      43.899 -15.496   7.494  1.00  0.00     0.037 A 
HETATM   24  C   UNL     1      43.237 -16.573   6.902  1.00  0.00     0.012 A 
BRANCH  22  25
HETATM   25  O   UNL     1      44.952 -13.394   7.326  1.00  0.00    -0.361 OA
HETATM   26  H   UNL     1      45.003 -13.589   8.276  1.00  0.00     0.217 HD
ENDBRANCH  22  25
ENDBRANCH  12  19
TORSDOF 2
ENDMDL
MODEL 7
REMARK VINA RESULT:      -7.0      2.612      5.087
REMARK  2 active torsions:
REMARK  status: ('A' for Active; 'I' for Inactive)
REMARK    1  A    between atoms: C_12  and  C_13 
REMARK    2  A    between atoms: C_16  and  O_17 
ROOT
HETATM    1  C   UNL     1      41.593 -16.211   0.044  1.00  0.00     0.002 A 
HETATM    2  C   UNL     1      42.667 -16.290   0.927  1.00  0.00     0.026 A 
HETATM    3  C   UNL     1      42.472 -16.211   2.314  1.00  0.00     0.036 A 
HETATM    4  C   UNL     1      41.164 -16.052   2.827  1.00  0.00     0.053 A 
HETATM    5  N   UNL     1      40.860 -15.998   4.207  1.00  0.00    -0.356 N 
HETATM    6  C   UNL     1      41.547 -16.635   5.215  1.00  0.00     0.041 A 
HETATM    7  C   UNL     1      42.751 -17.229   5.171  1.00  0.00     0.056 A 
HETATM    8  C   UNL     1      43.016 -17.770   6.510  1.00  0.00     0.251 A 
HETATM    9  O   UNL     1      44.028 -18.336   6.874  1.00  0.00    -0.268 OA
HETATM   10  N   UNL     1      41.918 -17.501   7.285  1.00  0.00    -0.351 N 
HETATM   11  C   UNL     1      40.924 -16.764   6.580  1.00  0.00     0.180 A 
HETATM   12  C   UNL     1      43.762 -17.326   4.091  1.00  0.00     0.134 C 
HETATM   13  N   UNL     1      43.632 -16.215   3.124  1.00  0.00    -0.278 NA
HETATM   14  C   UNL     1      40.095 -15.955   1.916  1.00  0.00     0.031 A 
HETATM   15  C   UNL     1      40.306 -16.036   0.537  1.00  0.00     0.002 A 
HETATM   16  H   UNL     1      39.885 -15.796   4.408  1.00  0.00     0.166 HD
HETATM   17  H   UNL     1      41.889 -17.764   8.261  1.00  0.00     0.163 HD
HETATM   18  H   UNL     1      43.596 -15.349   3.661  1.00  0.00     0.128 HD
ENDROOT
BRANCH  12  19
HETATM   19  C   UNL     1      43.869 -18.675   3.387  1.00  0.00    -0.035 A 
HETATM   20  C   UNL     1      44.902 -19.592   3.657  1.00  0.00     0.012 A 
HETATM   21  C   UNL     1      44.959 -20.824   2.999  1.00  0.00     0.037 A 
HETATM   22  C   UNL     1      43.978 -21.151   2.071  1.00  0.00     0.065 A 
HETATM   23  C   UNL     1      42.938 -20.274   1.797  1.00  0.00     0.037 A 
HETATM   24  C   UNL     1      42.881 -19.045   2.456  1.00  0.00     0.012 A 
BRANCH  22  25
HETATM   25  O   UNL     1      43.999 -22.342   1.405  1.00  0.00    -0.361 OA
HETATM   26  H   UNL     1      44.907 -22.510   1.107  1.00  0.00     0.217 HD
ENDBRANCH  22  25
ENDBRANCH  12  19
TORSDOF 2
ENDMDL
MODEL 8
REMARK VINA RESULT:      -7.0      3.495      6.089
REMARK  2 active torsions:
REMARK  status: ('A' for Active; 'I' for Inactive)
REMARK    1  A    between atoms: C_12  and  C_13 
REMARK    2  A    between atoms: C_16  and  O_17 
ROOT
HETATM    1  C   UNL     1      42.216 -18.212   1.826  1.00  0.00     0.002 A 
HETATM    2  C   UNL     1      41.078 -17.540   1.387  1.00  0.00     0.026 A 
HETATM    3  C   UNL     1      40.476 -16.544   2.172  1.00  0.00     0.036 A 
HETATM    4  C   UNL     1      41.035 -16.214   3.428  1.00  0.00     0.053 A 
HETATM    5  N   UNL     1      40.525 -15.202   4.275  1.00  0.00    -0.356 N 
HETATM    6  C   UNL     1      39.884 -14.053   3.872  1.00  0.00     0.041 A 
HETATM    7  C   UNL     1      39.392 -13.741   2.662  1.00  0.00     0.056 A 
HETATM    8  C   UNL     1      38.824 -12.390   2.760  1.00  0.00     0.251 A 
HETATM    9  O   UNL     1      38.245 -11.784   1.881  1.00  0.00    -0.268 OA
HETATM   10  N   UNL     1      39.049 -11.944   4.036  1.00  0.00    -0.351 N 
HETATM   11  C   UNL     1      39.697 -12.920   4.846  1.00  0.00     0.180 A 
HETATM   12  C   UNL     1      39.288 -14.527   1.409  1.00  0.00     0.134 C 
HETATM   13  N   UNL     1      39.276 -15.980   1.678  1.00  0.00    -0.278 NA
HETATM   14  C   UNL     1      42.175 -16.918   3.860  1.00  0.00     0.031 A 
HETATM   15  C   UNL     1      42.762 -17.906   3.067  1.00  0.00     0.002 A 
HETATM   16  H   UNL     1      40.988 -15.146   5.177  1.00  0.00     0.166 HD
HETATM   17  H   UNL     1      38.720 -11.037   4.339  1.00  0.00     0.163 HD
HETATM   18  H   UNL     1      38.576 -16.148   2.401  1.00  0.00     0.128 HD
ENDROOT
BRANCH  12  19
HETATM   19  C   UNL     1      40.277 -14.167   0.304  1.00  0.00    -0.035 A 
HETATM   20  C   UNL     1      41.368 -13.305   0.515  1.00  0.00     0.012 A 
HETATM   21  C   UNL     1      42.259 -13.009  -0.521  1.00  0.00     0.037 A 
HETATM   22  C   UNL     1      42.070 -13.580  -1.774  1.00  0.00     0.065 A 
HETATM   23  C   UNL     1      41.012 -14.448  -2.005  1.00  0.00     0.037 A 
HETATM   24  C   UNL     1      40.122 -14.744  -0.970  1.00  0.00     0.012 A 
BRANCH  22  25
HETATM   25  O   UNL     1      42.914 -13.315  -2.811  1.00  0.00    -0.361 OA
HETATM   26  H   UNL     1      43.199 -14.158  -3.197  1.00  0.00     0.217 HD
ENDBRANCH  22  25
ENDBRANCH  12  19
TORSDOF 2
ENDMDL
MODEL 9
REMARK VINA RESULT:      -6.9      2.657      4.984
REMARK  2 active torsions:
REMARK  status: ('A' for Active; 'I' for Inactive)
REMARK    1  A    between atoms: C_12  and  C_13 
REMARK    2  A    between atoms: C_16  and  O_17 
ROOT
HETATM    1  C   UNL     1      44.545 -14.728   6.829  1.00  0.00     0.002 A 
HETATM    2  C   UNL     1      44.057 -13.936   5.791  1.00  0.00     0.026 A 
HETATM    3  C   UNL     1      43.289 -14.490   4.756  1.00  0.00     0.036 A 
HETATM    4  C   UNL     1      43.000 -15.873   4.766  1.00  0.00     0.053 A 
HETATM    5  N   UNL     1      42.206 -16.519   3.789  1.00  0.00    -0.356 N 
HETATM    6  C   UNL     1      41.162 -15.955   3.090  1.00  0.00     0.041 A 
HETATM    7  C   UNL     1      40.817 -14.662   2.986  1.00  0.00     0.056 A 
HETATM    8  C   UNL     1      39.618 -14.600   2.140  1.00  0.00     0.251 A 
HETATM    9  O   UNL     1      39.039 -13.595   1.779  1.00  0.00    -0.268 OA
HETATM   10  N   UNL     1      39.282 -15.888   1.812  1.00  0.00    -0.351 N 
HETATM   11  C   UNL     1      40.201 -16.839   2.340  1.00  0.00     0.180 A 
HETATM   12  C   UNL     1      41.463 -13.426   3.492  1.00  0.00     0.134 C 
HETATM   13  N   UNL     1      42.913 -13.620   3.705  1.00  0.00    -0.278 NA
HETATM   14  C   UNL     1      43.518 -16.658   5.813  1.00  0.00     0.031 A 
HETATM   15  C   UNL     1      44.281 -16.092   6.837  1.00  0.00     0.002 A 
HETATM   16  H   UNL     1      42.163 -17.528   3.892  1.00  0.00     0.166 HD
HETATM   17  H   UNL     1      38.495 -16.086   1.209  1.00  0.00     0.163 HD
HETATM   18  H   UNL     1      43.290 -14.038   2.855  1.00  0.00     0.128 HD
ENDROOT
BRANCH  12  19
HETATM   19  C   UNL     1      40.800 -12.763   4.695  1.00  0.00    -0.035 A 
HETATM   20  C   UNL     1      39.896 -13.441   5.532  1.00  0.00     0.012 A 
HETATM   21  C   UNL     1      39.317 -12.802   6.633  1.00  0.00     0.037 A 
HETATM   22  C   UNL     1      39.647 -11.480   6.908  1.00  0.00     0.065 A 
HETATM   23  C   UNL     1      40.549 -10.792   6.110  1.00  0.00     0.037 A 
HETATM   24  C   UNL     1      41.127 -11.431   5.012  1.00  0.00     0.012 A 
BRANCH  22  25
HETATM   25  O   UNL     1      39.103 -10.819   7.971  1.00  0.00    -0.361 OA
HETATM   26  H   UNL     1      38.378 -11.356   8.327  1.00  0.00     0.217 HD
ENDBRANCH  22  25
ENDBRANCH  12  19
TORSDOF 2
ENDMDL
MODEL 10
REMARK VINA RESULT:      -6.9      2.356      4.888
REMARK  2 active torsions:
REMARK  status: ('A' for Active; 'I' for Inactive)
REMARK    1  A    between atoms: C_12  and  C_13 
REMARK    2  A    between atoms: C_16  and  O_17 
ROOT
HETATM    1  C   UNL     1      43.301 -17.291   1.546  1.00  0.00     0.002 A 
HETATM    2  C   UNL     1      43.758 -16.187   2.263  1.00  0.00     0.026 A 
HETATM    3  C   UNL     1      42.943 -15.062   2.459  1.00  0.00     0.036 A 
HETATM    4  C   UNL     1      41.634 -15.047   1.924  1.00  0.00     0.053 A 
HETATM    5  N   UNL     1      40.725 -13.977   2.098  1.00  0.00    -0.356 N 
HETATM    6  C   UNL     1      40.660 -13.135   3.184  1.00  0.00     0.041 A 
HETATM    7  C   UNL     1      41.548 -12.970   4.178  1.00  0.00     0.056 A 
HETATM    8  C   UNL     1      40.992 -11.965   5.093  1.00  0.00     0.251 A 
HETATM    9  O   UNL     1      41.529 -11.516   6.087  1.00  0.00    -0.268 OA
HETATM   10  N   UNL     1      39.761 -11.608   4.610  1.00  0.00    -0.351 N 
HETATM   11  C   UNL     1      39.446 -12.269   3.388  1.00  0.00     0.180 A 
HETATM   12  C   UNL     1      42.897 -13.545   4.399  1.00  0.00     0.134 C 
HETATM   13  N   UNL     1      43.526 -13.959   3.127  1.00  0.00    -0.278 NA
HETATM   14  C   UNL     1      41.199 -16.164   1.187  1.00  0.00     0.031 A 
HETATM   15  C   UNL     1      42.023 -17.277   1.001  1.00  0.00     0.002 A 
HETATM   16  H   UNL     1      39.857 -14.084   1.581  1.00  0.00     0.166 HD
HETATM   17  H   UNL     1      39.201 -10.905   5.073  1.00  0.00     0.163 HD
HETATM   18  H   UNL     1      43.447 -13.174   2.481  1.00  0.00     0.128 HD
ENDROOT
BRANCH  12  19
HETATM   19  C   UNL     1      42.998 -14.638   5.459  1.00  0.00    -0.035 A 
HETATM   20  C   UNL     1      44.122 -14.786   6.291  1.00  0.00     0.012 A 
HETATM   21  C   UNL     1      44.171 -15.795   7.258  1.00  0.00     0.037 A 
HETATM   22  C   UNL     1      43.092 -16.657   7.406  1.00  0.00     0.065 A 
HETATM   23  C   UNL     1      41.962 -16.523   6.611  1.00  0.00     0.037 A 
HETATM   24  C   UNL     1      41.913 -15.516   5.645  1.00  0.00     0.012 A 
BRANCH  22  25
HETATM   25  O   UNL     1      43.101 -17.655   8.336  1.00  0.00    -0.361 OA
HETATM   26  H   UNL     1      43.193 -17.253   9.214  1.00  0.00     0.217 HD
ENDBRANCH  22  25
ENDBRANCH  12  19
TORSDOF 2
ENDMDL
