MODEL 1
REMARK VINA RESULT:      -9.5      0.000      0.000
REMARK  8 active torsions:
REMARK  status: ('A' for Active; 'I' for Inactive)
REMARK    1  A    between atoms: C_2  and  N_3 
REMARK    2  A    between atoms: C_2  and  C_34 
REMARK       I    between atoms: N_3  and  C_4 
REMARK    3  A    between atoms: C_4  and  C_5 
REMARK    4  A    between atoms: C_5  and  N_6 
REMARK       I    between atoms: N_12  and  C_13 
REMARK    5  A    between atoms: C_13  and  C_14 
REMARK    6  A    between atoms: C_14  and  O_15 
REMARK    7  A    between atoms: O_15  and  C_16 
REMARK    8  A    between atoms: N_25  and  C_26 
ROOT
HETATM    1  N   UNL     1      40.892 -11.173   4.343  1.00  0.00    -0.325 N 
HETATM    2  C   UNL     1      41.529 -12.379   4.546  1.00  0.00     0.250 C 
HETATM    3  O   UNL     1      42.381 -12.584   5.399  1.00  0.00    -0.270 OA
HETATM    4  C   UNL     1      40.989 -13.394   3.516  1.00  0.00     0.118 C 
HETATM    5  C   UNL     1      40.140 -14.421   4.278  1.00  0.00     0.061 C 
HETATM    6  C   UNL     1      40.993 -15.441   5.026  1.00  0.00     0.129 C 
HETATM    7  N   UNL     1      42.039 -16.006   4.179  1.00  0.00    -0.350 N 
HETATM    8  C   UNL     1      42.355 -17.357   4.342  1.00  0.00     0.244 C 
HETATM    9  O   UNL     1      41.736 -18.086   5.121  1.00  0.00    -0.271 OA
HETATM   10  C   UNL     1      42.941 -15.034   3.567  1.00  0.00     0.129 C 
HETATM   11  C   UNL     1      42.189 -13.982   2.761  1.00  0.00     0.061 C 
HETATM   12  N   UNL     1      40.152 -12.525   2.640  1.00  0.00    -0.346 N 
HETATM   13  C   UNL     1      40.122 -11.154   3.136  1.00  0.00     0.254 C 
ENDROOT
BRANCH  12  14
HETATM   14  C   UNL     1      39.474 -12.857   1.481  1.00  0.00     0.032 A 
HETATM   15  C   UNL     1      38.231 -13.509   1.473  1.00  0.00     0.029 A 
HETATM   16  C   UNL     1      37.562 -13.853   0.288  1.00  0.00     0.002 A 
HETATM   17  C   UNL     1      38.121 -13.549  -0.944  1.00  0.00     0.000 A 
HETATM   18  C   UNL     1      39.343 -12.897  -0.985  1.00  0.00     0.002 A 
HETATM   19  C   UNL     1      39.999 -12.558   0.206  1.00  0.00     0.029 A 
ENDBRANCH  12  14
BRANCH   1  20
HETATM   20  C   UNL     1      41.364  -9.953   4.978  1.00  0.00     0.230 C 
BRANCH  20  21
HETATM   21  C   UNL     1      40.814  -9.627   6.375  1.00  0.00     0.236 C 
HETATM   22  N   UNL     1      41.466 -10.280   7.399  1.00  0.00    -0.351 N 
HETATM   23  H   UNL     1      42.192 -10.953   7.187  1.00  0.00     0.163 HD
HETATM   24  O   UNL     1      39.923  -8.806   6.577  1.00  0.00    -0.272 OA
BRANCH  22  25
HETATM   25  C   UNL     1      41.080 -10.101   8.791  1.00  0.00     0.113 C 
HETATM   26  C   UNL     1      39.925 -11.030   9.173  1.00  0.00     0.037 C 
BRANCH  25  27
HETATM   27  C   UNL     1      42.278 -10.295   9.703  1.00  0.00    -0.036 A 
HETATM   28  C   UNL     1      43.383 -11.037   9.255  1.00  0.00     0.009 A 
HETATM   29  C   UNL     1      44.500 -11.215  10.073  1.00  0.00     0.001 A 
HETATM   30  C   UNL     1      44.526 -10.662  11.352  1.00  0.00     0.000 A 
HETATM   31  C   UNL     1      43.435  -9.930  11.813  1.00  0.00     0.001 A 
HETATM   32  C   UNL     1      42.318  -9.746  10.995  1.00  0.00     0.009 A 
ENDBRANCH  25  27
ENDBRANCH  22  25
ENDBRANCH  20  21
ENDBRANCH   1  20
BRANCH   8  33
HETATM   33  C   UNL     1      43.515 -17.933   3.525  1.00  0.00     0.278 C 
BRANCH  33  34
HETATM   34  O   UNL     1      44.396 -18.647   4.388  1.00  0.00    -0.342 OA
BRANCH  34  35
HETATM   35  C   UNL     1      44.469 -19.990   4.147  1.00  0.00     0.069 A 
HETATM   36  C   UNL     1      44.768 -20.952   5.112  1.00  0.00     0.037 A 
HETATM   37  C   UNL     1      44.844 -22.301   4.752  1.00  0.00     0.003 A 
HETATM   38  C   UNL     1      44.628 -22.687   3.430  1.00  0.00     0.000 A 
HETATM   39  C   UNL     1      44.346 -21.726   2.462  1.00  0.00     0.003 A 
HETATM   40  C   UNL     1      44.278 -20.378   2.820  1.00  0.00     0.037 A 
ENDBRANCH  34  35
ENDBRANCH  33  34
ENDBRANCH   8  33
TORSDOF 8
ENDMDL
MODEL 2
REMARK VINA RESULT:      -9.3      1.729      9.057
REMARK  8 active torsions:
REMARK  status: ('A' for Active; 'I' for Inactive)
REMARK    1  A    between atoms: C_2  and  N_3 
REMARK    2  A    between atoms: C_2  and  C_34 
REMARK       I    between atoms: N_3  and  C_4 
REMARK    3  A    between atoms: C_4  and  C_5 
REMARK    4  A    between atoms: C_5  and  N_6 
REMARK       I    between atoms: N_12  and  C_13 
REMARK    5  A    between atoms: C_13  and  C_14 
REMARK    6  A    between atoms: C_14  and  O_15 
REMARK    7  A    between atoms: O_15  and  C_16 
REMARK    8  A    between atoms: N_25  and  C_26 
ROOT
HETATM    1  N   UNL     1      40.816 -15.325   3.585  1.00  0.00    -0.325 N 
HETATM    2  C   UNL     1      40.960 -14.543   4.712  1.00  0.00     0.250 C 
HETATM    3  O   UNL     1      41.550 -14.885   5.728  1.00  0.00    -0.270 OA
HETATM    4  C   UNL     1      40.248 -13.196   4.466  1.00  0.00     0.118 C 
HETATM    5  C   UNL     1      41.331 -12.117   4.336  1.00  0.00     0.061 C 
HETATM    6  C   UNL     1      41.912 -11.708   5.686  1.00  0.00     0.129 C 
HETATM    7  N   UNL     1      40.869 -11.426   6.667  1.00  0.00    -0.350 N 
HETATM    8  C   UNL     1      41.084 -10.380   7.569  1.00  0.00     0.244 C 
HETATM    9  O   UNL     1      42.084  -9.661   7.512  1.00  0.00    -0.271 OA
HETATM   10  C   UNL     1      39.920 -12.510   6.900  1.00  0.00     0.129 C 
HETATM   11  C   UNL     1      39.251 -12.974   5.611  1.00  0.00     0.061 C 
HETATM   12  N   UNL     1      39.559 -13.448   3.168  1.00  0.00    -0.346 N 
HETATM   13  C   UNL     1      39.886 -14.770   2.648  1.00  0.00     0.254 C 
ENDROOT
BRANCH  12  14
HETATM   14  C   UNL     1      38.688 -12.627   2.475  1.00  0.00     0.032 A 
HETATM   15  C   UNL     1      38.426 -11.296   2.838  1.00  0.00     0.029 A 
HETATM   16  C   UNL     1      37.527 -10.481   2.134  1.00  0.00     0.002 A 
HETATM   17  C   UNL     1      36.854 -10.974   1.026  1.00  0.00     0.000 A 
HETATM   18  C   UNL     1      37.088 -12.280   0.625  1.00  0.00     0.002 A 
HETATM   19  C   UNL     1      37.990 -13.083   1.337  1.00  0.00     0.029 A 
ENDBRANCH  12  14
BRANCH   1  20
HETATM   20  C   UNL     1      41.148 -16.740   3.599  1.00  0.00     0.230 C 
BRANCH  20  21
HETATM   21  C   UNL     1      42.638 -17.114   3.565  1.00  0.00     0.236 C 
HETATM   22  N   UNL     1      42.999 -18.055   4.507  1.00  0.00    -0.351 N 
HETATM   23  H   UNL     1      42.317 -18.385   5.178  1.00  0.00     0.163 HD
HETATM   24  O   UNL     1      43.427 -16.677   2.732  1.00  0.00    -0.272 OA
BRANCH  22  25
HETATM   25  C   UNL     1      44.370 -18.528   4.629  1.00  0.00     0.113 C 
HETATM   26  C   UNL     1      44.908 -18.318   6.046  1.00  0.00     0.037 C 
BRANCH  25  27
HETATM   27  C   UNL     1      44.469 -19.983   4.205  1.00  0.00    -0.036 A 
HETATM   28  C   UNL     1      44.750 -20.971   5.163  1.00  0.00     0.009 A 
HETATM   29  C   UNL     1      44.832 -22.316   4.796  1.00  0.00     0.001 A 
HETATM   30  C   UNL     1      44.639 -22.691   3.469  1.00  0.00     0.000 A 
HETATM   31  C   UNL     1      44.365 -21.722   2.506  1.00  0.00     0.001 A 
HETATM   32  C   UNL     1      44.279 -20.377   2.870  1.00  0.00     0.009 A 
ENDBRANCH  25  27
ENDBRANCH  22  25
ENDBRANCH  20  21
ENDBRANCH   1  20
BRANCH   8  33
HETATM   33  C   UNL     1      40.038 -10.139   8.661  1.00  0.00     0.278 C 
BRANCH  33  34
HETATM   34  O   UNL     1      40.574  -9.261   9.647  1.00  0.00    -0.342 OA
BRANCH  34  35
HETATM   35  C   UNL     1      41.125  -9.887  10.730  1.00  0.00     0.069 A 
HETATM   36  C   UNL     1      40.455 -10.805  11.540  1.00  0.00     0.037 A 
HETATM   37  C   UNL     1      41.105 -11.367  12.642  1.00  0.00     0.003 A 
HETATM   38  C   UNL     1      42.419 -11.009  12.940  1.00  0.00     0.000 A 
HETATM   39  C   UNL     1      43.083 -10.080  12.142  1.00  0.00     0.003 A 
HETATM   40  C   UNL     1      42.433  -9.513  11.046  1.00  0.00     0.037 A 
ENDBRANCH  34  35
ENDBRANCH  33  34
ENDBRANCH   8  33
TORSDOF 8
ENDMDL
MODEL 3
REMARK VINA RESULT:      -9.2      3.463      8.739
REMARK  8 active torsions:
REMARK  status: ('A' for Active; 'I' for Inactive)
REMARK    1  A    between atoms: C_2  and  N_3 
REMARK    2  A    between atoms: C_2  and  C_34 
REMARK       I    between atoms: N_3  and  C_4 
REMARK    3  A    between atoms: C_4  and  C_5 
REMARK    4  A    between atoms: C_5  and  N_6 
REMARK       I    between atoms: N_12  and  C_13 
REMARK    5  A    between atoms: C_13  and  C_14 
REMARK    6  A    between atoms: C_14  and  O_15 
REMARK    7  A    between atoms: O_15  and  C_16 
REMARK    8  A    between atoms: N_25  and  C_26 
ROOT
HETATM    1  N   UNL     1      40.599 -15.286   4.972  1.00  0.00    -0.325 N 
HETATM    2  C   UNL     1      40.776 -15.348   3.606  1.00  0.00     0.250 C 
HETATM    3  O   UNL     1      41.127 -16.346   2.991  1.00  0.00    -0.270 OA
HETATM    4  C   UNL     1      40.469 -13.957   3.011  1.00  0.00     0.118 C 
HETATM    5  C   UNL     1      39.157 -14.069   2.223  1.00  0.00     0.061 C 
HETATM    6  C   UNL     1      39.348 -14.746   0.869  1.00  0.00     0.129 C 
HETATM    7  N   UNL     1      40.472 -14.180   0.128  1.00  0.00    -0.350 N 
HETATM    8  C   UNL     1      40.347 -14.057  -1.258  1.00  0.00     0.244 C 
HETATM    9  O   UNL     1      39.304 -14.346  -1.850  1.00  0.00    -0.271 OA
HETATM   10  C   UNL     1      41.755 -14.206   0.824  1.00  0.00     0.129 C 
HETATM   11  C   UNL     1      41.685 -13.519   2.183  1.00  0.00     0.061 C 
HETATM   12  N   UNL     1      40.306 -13.129   4.241  1.00  0.00    -0.346 N 
HETATM   13  C   UNL     1      40.419 -13.946   5.443  1.00  0.00     0.254 C 
ENDROOT
BRANCH  12  14
HETATM   14  C   UNL     1      40.100 -11.765   4.348  1.00  0.00     0.032 A 
HETATM   15  C   UNL     1      38.835 -11.165   4.244  1.00  0.00     0.029 A 
HETATM   16  C   UNL     1      38.644  -9.778   4.339  1.00  0.00     0.002 A 
HETATM   17  C   UNL     1      39.724  -8.935   4.547  1.00  0.00     0.000 A 
HETATM   18  C   UNL     1      40.991  -9.484   4.664  1.00  0.00     0.002 A 
HETATM   19  C   UNL     1      41.168 -10.871   4.569  1.00  0.00     0.029 A 
ENDBRANCH  12  14
BRANCH   1  20
HETATM   20  C   UNL     1      41.060 -16.356   5.843  1.00  0.00     0.230 C 
BRANCH  20  21
HETATM   21  C   UNL     1      42.544 -16.742   5.760  1.00  0.00     0.236 C 
HETATM   22  N   UNL     1      42.771 -17.970   5.175  1.00  0.00    -0.351 N 
HETATM   23  H   UNL     1      41.988 -18.551   4.904  1.00  0.00     0.163 HD
HETATM   24  O   UNL     1      43.457 -16.000   6.113  1.00  0.00    -0.272 OA
BRANCH  22  25
HETATM   25  C   UNL     1      44.114 -18.506   5.016  1.00  0.00     0.113 C 
HETATM   26  C   UNL     1      44.696 -18.961   6.357  1.00  0.00     0.037 C 
BRANCH  25  27
HETATM   27  C   UNL     1      44.120 -19.630   3.996  1.00  0.00    -0.036 A 
HETATM   28  C   UNL     1      43.538 -19.430   2.733  1.00  0.00     0.009 A 
HETATM   29  C   UNL     1      43.545 -20.445   1.776  1.00  0.00     0.001 A 
HETATM   30  C   UNL     1      44.127 -21.677   2.068  1.00  0.00     0.000 A 
HETATM   31  C   UNL     1      44.702 -21.894   3.318  1.00  0.00     0.001 A 
HETATM   32  C   UNL     1      44.701 -20.878   4.276  1.00  0.00     0.009 A 
ENDBRANCH  25  27
ENDBRANCH  22  25
ENDBRANCH  20  21
ENDBRANCH   1  20
BRANCH   8  33
HETATM   33  C   UNL     1      41.555 -13.555  -2.052  1.00  0.00     0.278 C 
BRANCH  33  34
HETATM   34  O   UNL     1      41.228 -12.323  -2.689  1.00  0.00    -0.342 OA
BRANCH  34  35
HETATM   35  C   UNL     1      42.020 -11.267  -2.333  1.00  0.00     0.069 A 
HETATM   36  C   UNL     1      42.875 -11.257  -1.231  1.00  0.00     0.037 A 
HETATM   37  C   UNL     1      43.623 -10.112  -0.939  1.00  0.00     0.003 A 
HETATM   38  C   UNL     1      43.511  -8.978  -1.742  1.00  0.00     0.000 A 
HETATM   39  C   UNL     1      42.644  -8.981  -2.832  1.00  0.00     0.003 A 
HETATM   40  C   UNL     1      41.892 -10.121  -3.120  1.00  0.00     0.037 A 
ENDBRANCH  34  35
ENDBRANCH  33  34
ENDBRANCH   8  33
TORSDOF 8
ENDMDL
MODEL 4
REMARK VINA RESULT:      -9.1      2.676      9.489
REMARK  8 active torsions:
REMARK  status: ('A' for Active; 'I' for Inactive)
REMARK    1  A    between atoms: C_2  and  N_3 
REMARK    2  A    between atoms: C_2  and  C_34 
REMARK       I    between atoms: N_3  and  C_4 
REMARK    3  A    between atoms: C_4  and  C_5 
REMARK    4  A    between atoms: C_5  and  N_6 
REMARK       I    between atoms: N_12  and  C_13 
REMARK    5  A    between atoms: C_13  and  C_14 
REMARK    6  A    between atoms: C_14  and  O_15 
REMARK    7  A    between atoms: O_15  and  C_16 
REMARK    8  A    between atoms: N_25  and  C_26 
ROOT
HETATM    1  N   UNL     1      40.124 -15.072   2.587  1.00  0.00    -0.325 N 
HETATM    2  C   UNL     1      40.159 -13.927   3.355  1.00  0.00     0.250 C 
HETATM    3  O   UNL     1      39.695 -12.846   3.018  1.00  0.00    -0.270 OA
HETATM    4  C   UNL     1      40.882 -14.249   4.680  1.00  0.00     0.118 C 
HETATM    5  C   UNL     1      39.833 -14.223   5.799  1.00  0.00     0.061 C 
HETATM    6  C   UNL     1      39.451 -12.803   6.206  1.00  0.00     0.129 C 
HETATM    7  N   UNL     1      40.625 -11.965   6.434  1.00  0.00    -0.350 N 
HETATM    8  C   UNL     1      40.571 -11.031   7.472  1.00  0.00     0.244 C 
HETATM    9  O   UNL     1      39.599 -10.946   8.227  1.00  0.00    -0.271 OA
HETATM   10  C   UNL     1      41.555 -11.873   5.313  1.00  0.00     0.129 C 
HETATM   11  C   UNL     1      42.030 -13.244   4.846  1.00  0.00     0.061 C 
HETATM   12  N   UNL     1      41.384 -15.630   4.425  1.00  0.00    -0.346 N 
HETATM   13  C   UNL     1      40.942 -16.118   3.124  1.00  0.00     0.254 C 
ENDROOT
BRANCH  12  14
HETATM   14  C   UNL     1      42.187 -16.423   5.225  1.00  0.00     0.032 A 
HETATM   15  C   UNL     1      41.936 -16.649   6.588  1.00  0.00     0.029 A 
HETATM   16  C   UNL     1      42.768 -17.444   7.390  1.00  0.00     0.002 A 
HETATM   17  C   UNL     1      43.892 -18.050   6.849  1.00  0.00     0.000 A 
HETATM   18  C   UNL     1      44.175 -17.862   5.505  1.00  0.00     0.002 A 
HETATM   19  C   UNL     1      43.334 -17.067   4.715  1.00  0.00     0.029 A 
ENDBRANCH  12  14
BRANCH   1  20
HETATM   20  C   UNL     1      39.743 -15.030   1.185  1.00  0.00     0.230 C 
BRANCH  20  21
HETATM   21  C   UNL     1      40.873 -15.089   0.146  1.00  0.00     0.236 C 
HETATM   22  N   UNL     1      40.854 -14.049  -0.760  1.00  0.00    -0.351 N 
HETATM   23  H   UNL     1      40.101 -13.374  -0.736  1.00  0.00     0.163 HD
HETATM   24  O   UNL     1      41.760 -15.939   0.157  1.00  0.00    -0.272 OA
BRANCH  22  25
HETATM   25  C   UNL     1      41.843 -13.941  -1.822  1.00  0.00     0.113 C 
HETATM   26  C   UNL     1      41.331 -14.557  -3.126  1.00  0.00     0.037 C 
BRANCH  25  27
HETATM   27  C   UNL     1      42.258 -12.493  -2.014  1.00  0.00    -0.036 A 
HETATM   28  C   UNL     1      42.144 -11.897  -3.281  1.00  0.00     0.009 A 
HETATM   29  C   UNL     1      42.506 -10.563  -3.476  1.00  0.00     0.001 A 
HETATM   30  C   UNL     1      42.993  -9.808  -2.411  1.00  0.00     0.000 A 
HETATM   31  C   UNL     1      43.119 -10.387  -1.150  1.00  0.00     0.001 A 
HETATM   32  C   UNL     1      42.753 -11.719  -0.951  1.00  0.00     0.009 A 
ENDBRANCH  25  27
ENDBRANCH  22  25
ENDBRANCH  20  21
ENDBRANCH   1  20
BRANCH   8  33
HETATM   33  C   UNL     1      41.759 -10.084   7.657  1.00  0.00     0.278 C 
BRANCH  33  34
HETATM   34  O   UNL     1      42.837 -10.787   8.269  1.00  0.00    -0.342 OA
BRANCH  34  35
HETATM   35  C   UNL     1      43.041 -10.486   9.586  1.00  0.00     0.069 A 
HETATM   36  C   UNL     1      42.268  -9.587  10.321  1.00  0.00     0.037 A 
HETATM   37  C   UNL     1      42.581  -9.329  11.659  1.00  0.00     0.003 A 
HETATM   38  C   UNL     1      43.667  -9.963  12.260  1.00  0.00     0.000 A 
HETATM   39  C   UNL     1      44.450 -10.848  11.522  1.00  0.00     0.003 A 
HETATM   40  C   UNL     1      44.143 -11.100  10.185  1.00  0.00     0.037 A 
ENDBRANCH  34  35
ENDBRANCH  33  34
ENDBRANCH   8  33
TORSDOF 8
ENDMDL
MODEL 5
REMARK VINA RESULT:      -8.9      4.794      9.644
REMARK  8 active torsions:
REMARK  status: ('A' for Active; 'I' for Inactive)
REMARK    1  A    between atoms: C_2  and  N_3 
REMARK    2  A    between atoms: C_2  and  C_34 
REMARK       I    between atoms: N_3  and  C_4 
REMARK    3  A    between atoms: C_4  and  C_5 
REMARK    4  A    between atoms: C_5  and  N_6 
REMARK       I    between atoms: N_12  and  C_13 
REMARK    5  A    between atoms: C_13  and  C_14 
REMARK    6  A    between atoms: C_14  and  O_15 
REMARK    7  A    between atoms: O_15  and  C_16 
REMARK    8  A    between atoms: N_25  and  C_26 
ROOT
HETATM    1  N   UNL     1      41.083 -15.251   1.322  1.00  0.00    -0.325 N 
HETATM    2  C   UNL     1      39.868 -14.618   1.479  1.00  0.00     0.250 C 
HETATM    3  O   UNL     1      38.987 -14.980   2.247  1.00  0.00    -0.270 OA
HETATM    4  C   UNL     1      39.821 -13.408   0.522  1.00  0.00     0.118 C 
HETATM    5  C   UNL     1      39.891 -12.137   1.378  1.00  0.00     0.061 C 
HETATM    6  C   UNL     1      38.561 -11.816   2.054  1.00  0.00     0.129 C 
HETATM    7  N   UNL     1      37.443 -11.873   1.116  1.00  0.00    -0.350 N 
HETATM    8  C   UNL     1      36.414 -10.939   1.267  1.00  0.00     0.244 C 
HETATM    9  O   UNL     1      36.460 -10.044   2.114  1.00  0.00    -0.271 OA
HETATM   10  C   UNL     1      37.288 -13.138   0.405  1.00  0.00     0.129 C 
HETATM   11  C   UNL     1      38.557 -13.538  -0.339  1.00  0.00     0.061 C 
HETATM   12  N   UNL     1      41.063 -13.604  -0.280  1.00  0.00    -0.346 N 
HETATM   13  C   UNL     1      41.818 -14.757   0.196  1.00  0.00     0.254 C 
ENDROOT
BRANCH  12  14
HETATM   14  C   UNL     1      41.521 -12.875  -1.362  1.00  0.00     0.032 A 
HETATM   15  C   UNL     1      42.368 -11.761  -1.239  1.00  0.00     0.029 A 
HETATM   16  C   UNL     1      42.812 -11.021  -2.346  1.00  0.00     0.002 A 
HETATM   17  C   UNL     1      42.424 -11.377  -3.628  1.00  0.00     0.000 A 
HETATM   18  C   UNL     1      41.596 -12.476  -3.798  1.00  0.00     0.002 A 
HETATM   19  C   UNL     1      41.160 -13.207  -2.684  1.00  0.00     0.029 A 
ENDBRANCH  12  14
BRANCH   1  20
HETATM   20  C   UNL     1      41.330 -16.566   1.890  1.00  0.00     0.230 C 
BRANCH  20  21
HETATM   21  C   UNL     1      42.666 -16.781   2.618  1.00  0.00     0.236 C 
HETATM   22  N   UNL     1      42.796 -18.028   3.190  1.00  0.00    -0.351 N 
HETATM   23  H   UNL     1      42.023 -18.681   3.160  1.00  0.00     0.163 HD
HETATM   24  O   UNL     1      43.571 -15.950   2.631  1.00  0.00    -0.272 OA
BRANCH  22  25
HETATM   25  C   UNL     1      43.991 -18.411   3.927  1.00  0.00     0.113 C 
HETATM   26  C   UNL     1      43.903 -17.982   5.394  1.00  0.00     0.037 C 
BRANCH  25  27
HETATM   27  C   UNL     1      44.239 -19.903   3.797  1.00  0.00    -0.036 A 
HETATM   28  C   UNL     1      44.072 -20.533   2.553  1.00  0.00     0.009 A 
HETATM   29  C   UNL     1      44.308 -21.901   2.409  1.00  0.00     0.001 A 
HETATM   30  C   UNL     1      44.709 -22.661   3.506  1.00  0.00     0.000 A 
HETATM   31  C   UNL     1      44.873 -22.053   4.748  1.00  0.00     0.001 A 
HETATM   32  C   UNL     1      44.641 -20.683   4.894  1.00  0.00     0.009 A 
ENDBRANCH  25  27
ENDBRANCH  22  25
ENDBRANCH  20  21
ENDBRANCH   1  20
BRANCH   8  33
HETATM   33  C   UNL     1      35.194 -11.052   0.349  1.00  0.00     0.278 C 
BRANCH  33  34
HETATM   34  O   UNL     1      35.319 -10.124  -0.725  1.00  0.00    -0.342 OA
BRANCH  34  35
HETATM   35  C   UNL     1      36.271 -10.447  -1.652  1.00  0.00     0.069 A 
HETATM   36  C   UNL     1      37.517  -9.828  -1.754  1.00  0.00     0.037 A 
HETATM   37  C   UNL     1      38.408 -10.217  -2.759  1.00  0.00     0.003 A 
HETATM   38  C   UNL     1      38.053 -11.216  -3.663  1.00  0.00     0.000 A 
HETATM   39  C   UNL     1      36.802 -11.823  -3.572  1.00  0.00     0.003 A 
HETATM   40  C   UNL     1      35.909 -11.430  -2.574  1.00  0.00     0.037 A 
ENDBRANCH  34  35
ENDBRANCH  33  34
ENDBRANCH   8  33
TORSDOF 8
ENDMDL
MODEL 6
REMARK VINA RESULT:      -8.9      2.614      6.809
REMARK  8 active torsions:
REMARK  status: ('A' for Active; 'I' for Inactive)
REMARK    1  A    between atoms: C_2  and  N_3 
REMARK    2  A    between atoms: C_2  and  C_34 
REMARK       I    between atoms: N_3  and  C_4 
REMARK    3  A    between atoms: C_4  and  C_5 
REMARK    4  A    between atoms: C_5  and  N_6 
REMARK       I    between atoms: N_12  and  C_13 
REMARK    5  A    between atoms: C_13  and  C_14 
REMARK    6  A    between atoms: C_14  and  O_15 
REMARK    7  A    between atoms: O_15  and  C_16 
REMARK    8  A    between atoms: N_25  and  C_26 
ROOT
HETATM    1  N   UNL     1      40.786 -13.490   5.371  1.00  0.00    -0.325 N 
HETATM    2  C   UNL     1      40.586 -13.388   4.010  1.00  0.00     0.250 C 
HETATM    3  O   UNL     1      39.901 -12.533   3.467  1.00  0.00    -0.270 OA
HETATM    4  C   UNL     1      41.359 -14.531   3.317  1.00  0.00     0.118 C 
HETATM    5  C   UNL     1      42.539 -13.902   2.564  1.00  0.00     0.061 C 
HETATM    6  C   UNL     1      42.110 -13.232   1.263  1.00  0.00     0.129 C 
HETATM    7  N   UNL     1      41.251 -14.097   0.460  1.00  0.00    -0.350 N 
HETATM    8  C   UNL     1      41.398 -14.059  -0.930  1.00  0.00     0.244 C 
HETATM    9  O   UNL     1      42.266 -13.376  -1.478  1.00  0.00    -0.271 OA
HETATM   10  C   UNL     1      40.047 -14.580   1.131  1.00  0.00     0.129 C 
HETATM   11  C   UNL     1      40.368 -15.302   2.435  1.00  0.00     0.061 C 
HETATM   12  N   UNL     1      41.815 -15.342   4.482  1.00  0.00    -0.346 N 
HETATM   13  C   UNL     1      41.431 -14.714   5.741  1.00  0.00     0.254 C 
ENDROOT
BRANCH  12  14
HETATM   14  C   UNL     1      42.489 -16.549   4.488  1.00  0.00     0.032 A 
HETATM   15  C   UNL     1      43.326 -16.972   3.443  1.00  0.00     0.029 A 
HETATM   16  C   UNL     1      43.992 -18.207   3.456  1.00  0.00     0.002 A 
HETATM   17  C   UNL     1      43.843 -19.071   4.531  1.00  0.00     0.000 A 
HETATM   18  C   UNL     1      43.034 -18.692   5.590  1.00  0.00     0.002 A 
HETATM   19  C   UNL     1      42.376 -17.454   5.565  1.00  0.00     0.029 A 
ENDBRANCH  12  14
BRANCH   1  20
HETATM   20  C   UNL     1      39.986 -12.722   6.312  1.00  0.00     0.230 C 
BRANCH  20  21
HETATM   21  C   UNL     1      40.582 -11.406   6.832  1.00  0.00     0.236 C 
HETATM   22  N   UNL     1      40.830 -11.403   8.189  1.00  0.00    -0.351 N 
HETATM   23  H   UNL     1      40.562 -12.199   8.753  1.00  0.00     0.163 HD
HETATM   24  O   UNL     1      40.883 -10.463   6.104  1.00  0.00    -0.272 OA
BRANCH  22  25
HETATM   25  C   UNL     1      41.389 -10.240   8.862  1.00  0.00     0.113 C 
HETATM   26  C   UNL     1      40.403  -9.657   9.878  1.00  0.00     0.037 C 
BRANCH  25  27
HETATM   27  C   UNL     1      42.716 -10.589   9.510  1.00  0.00    -0.036 A 
HETATM   28  C   UNL     1      43.010 -10.114  10.799  1.00  0.00     0.009 A 
HETATM   29  C   UNL     1      44.219 -10.436  11.418  1.00  0.00     0.001 A 
HETATM   30  C   UNL     1      45.154 -11.230  10.758  1.00  0.00     0.000 A 
HETATM   31  C   UNL     1      44.880 -11.703   9.476  1.00  0.00     0.001 A 
HETATM   32  C   UNL     1      43.670 -11.387   8.856  1.00  0.00     0.009 A 
ENDBRANCH  25  27
ENDBRANCH  22  25
ENDBRANCH  20  21
ENDBRANCH   1  20
BRANCH   8  33
HETATM   33  C   UNL     1      40.437 -14.891  -1.782  1.00  0.00     0.278 C 
BRANCH  33  34
HETATM   34  O   UNL     1      40.344 -14.323  -3.086  1.00  0.00    -0.342 OA
BRANCH  34  35
HETATM   35  C   UNL     1      39.088 -13.918  -3.443  1.00  0.00     0.069 A 
HETATM   36  C   UNL     1      38.651 -12.593  -3.432  1.00  0.00     0.037 A 
HETATM   37  C   UNL     1      37.334 -12.289  -3.791  1.00  0.00     0.003 A 
HETATM   38  C   UNL     1      36.454 -13.308  -4.154  1.00  0.00     0.000 A 
HETATM   39  C   UNL     1      36.885 -14.633  -4.150  1.00  0.00     0.003 A 
HETATM   40  C   UNL     1      38.197 -14.937  -3.784  1.00  0.00     0.037 A 
ENDBRANCH  34  35
ENDBRANCH  33  34
ENDBRANCH   8  33
TORSDOF 8
ENDMDL
MODEL 7
REMARK VINA RESULT:      -8.7      4.493      6.158
REMARK  8 active torsions:
REMARK  status: ('A' for Active; 'I' for Inactive)
REMARK    1  A    between atoms: C_2  and  N_3 
REMARK    2  A    between atoms: C_2  and  C_34 
REMARK       I    between atoms: N_3  and  C_4 
REMARK    3  A    between atoms: C_4  and  C_5 
REMARK    4  A    between atoms: C_5  and  N_6 
REMARK       I    between atoms: N_12  and  C_13 
REMARK    5  A    between atoms: C_13  and  C_14 
REMARK    6  A    between atoms: C_14  and  O_15 
REMARK    7  A    between atoms: O_15  and  C_16 
REMARK    8  A    between atoms: N_25  and  C_26 
ROOT
HETATM    1  N   UNL     1      38.946 -11.861   1.479  1.00  0.00    -0.325 N 
HETATM    2  C   UNL     1      39.737 -12.704   2.231  1.00  0.00     0.250 C 
HETATM    3  O   UNL     1      40.097 -12.483   3.379  1.00  0.00    -0.270 OA
HETATM    4  C   UNL     1      40.083 -13.941   1.375  1.00  0.00     0.118 C 
HETATM    5  C   UNL     1      39.326 -15.138   1.963  1.00  0.00     0.061 C 
HETATM    6  C   UNL     1      39.980 -15.676   3.232  1.00  0.00     0.129 C 
HETATM    7  N   UNL     1      41.417 -15.870   3.066  1.00  0.00    -0.350 N 
HETATM    8  C   UNL     1      42.005 -16.974   3.690  1.00  0.00     0.244 C 
HETATM    9  O   UNL     1      41.340 -17.807   4.310  1.00  0.00    -0.271 OA
HETATM   10  C   UNL     1      42.164 -14.688   2.645  1.00  0.00     0.129 C 
HETATM   11  C   UNL     1      41.611 -14.088   1.358  1.00  0.00     0.061 C 
HETATM   12  N   UNL     1      39.547 -13.547   0.040  1.00  0.00    -0.346 N 
HETATM   13  C   UNL     1      38.877 -12.254   0.104  1.00  0.00     0.254 C 
ENDROOT
BRANCH  12  14
HETATM   14  C   UNL     1      39.637 -14.222  -1.164  1.00  0.00     0.032 A 
HETATM   15  C   UNL     1      40.746 -15.000  -1.532  1.00  0.00     0.029 A 
HETATM   16  C   UNL     1      40.829 -15.667  -2.764  1.00  0.00     0.002 A 
HETATM   17  C   UNL     1      39.791 -15.579  -3.679  1.00  0.00     0.000 A 
HETATM   18  C   UNL     1      38.672 -14.829  -3.355  1.00  0.00     0.002 A 
HETATM   19  C   UNL     1      38.601 -14.170  -2.120  1.00  0.00     0.029 A 
ENDBRANCH  12  14
BRANCH   1  20
HETATM   20  C   UNL     1      38.670 -10.499   1.909  1.00  0.00     0.230 C 
BRANCH  20  21
HETATM   21  C   UNL     1      37.406  -9.827   1.352  1.00  0.00     0.236 C 
HETATM   22  N   UNL     1      36.230 -10.394   1.797  1.00  0.00    -0.351 N 
HETATM   23  H   UNL     1      36.257 -11.218   2.383  1.00  0.00     0.163 HD
HETATM   24  O   UNL     1      37.429  -8.830   0.634  1.00  0.00    -0.272 OA
BRANCH  22  25
HETATM   25  C   UNL     1      34.931  -9.895   1.371  1.00  0.00     0.113 C 
HETATM   26  C   UNL     1      34.326 -10.777   0.275  1.00  0.00     0.037 C 
BRANCH  25  27
HETATM   27  C   UNL     1      33.997  -9.765   2.561  1.00  0.00    -0.036 A 
HETATM   28  C   UNL     1      34.347  -8.930   3.634  1.00  0.00     0.009 A 
HETATM   29  C   UNL     1      33.496  -8.785   4.731  1.00  0.00     0.001 A 
HETATM   30  C   UNL     1      32.287  -9.476   4.774  1.00  0.00     0.000 A 
HETATM   31  C   UNL     1      31.928 -10.313   3.720  1.00  0.00     0.001 A 
HETATM   32  C   UNL     1      32.775 -10.456   2.619  1.00  0.00     0.009 A 
ENDBRANCH  25  27
ENDBRANCH  22  25
ENDBRANCH  20  21
ENDBRANCH   1  20
BRANCH   8  33
HETATM   33  C   UNL     1      43.525 -17.132   3.600  1.00  0.00     0.278 C 
BRANCH  33  34
HETATM   34  O   UNL     1      43.855 -17.928   2.466  1.00  0.00    -0.342 OA
BRANCH  34  35
HETATM   35  C   UNL     1      44.044 -19.255   2.734  1.00  0.00     0.069 A 
HETATM   36  C   UNL     1      44.621 -19.751   3.903  1.00  0.00     0.037 A 
HETATM   37  C   UNL     1      44.795 -21.128   4.066  1.00  0.00     0.003 A 
HETATM   38  C   UNL     1      44.400 -22.008   3.060  1.00  0.00     0.000 A 
HETATM   39  C   UNL     1      43.839 -21.513   1.884  1.00  0.00     0.003 A 
HETATM   40  C   UNL     1      43.673 -20.138   1.719  1.00  0.00     0.037 A 
ENDBRANCH  34  35
ENDBRANCH  33  34
ENDBRANCH   8  33
TORSDOF 8
ENDMDL
MODEL 8
REMARK VINA RESULT:      -8.6      3.204     10.284
REMARK  8 active torsions:
REMARK  status: ('A' for Active; 'I' for Inactive)
REMARK    1  A    between atoms: C_2  and  N_3 
REMARK    2  A    between atoms: C_2  and  C_34 
REMARK       I    between atoms: N_3  and  C_4 
REMARK    3  A    between atoms: C_4  and  C_5 
REMARK    4  A    between atoms: C_5  and  N_6 
REMARK       I    between atoms: N_12  and  C_13 
REMARK    5  A    between atoms: C_13  and  C_14 
REMARK    6  A    between atoms: C_14  and  O_15 
REMARK    7  A    between atoms: O_15  and  C_16 
REMARK    8  A    between atoms: N_25  and  C_26 
ROOT
HETATM    1  N   UNL     1      39.986 -12.948   3.487  1.00  0.00    -0.325 N 
HETATM    2  C   UNL     1      40.084 -12.046   4.525  1.00  0.00     0.250 C 
HETATM    3  O   UNL     1      39.777 -10.864   4.455  1.00  0.00    -0.270 OA
HETATM    4  C   UNL     1      40.650 -12.781   5.759  1.00  0.00     0.118 C 
HETATM    5  C   UNL     1      39.519 -12.898   6.788  1.00  0.00     0.061 C 
HETATM    6  C   UNL     1      39.266 -11.588   7.528  1.00  0.00     0.129 C 
HETATM    7  N   UNL     1      40.503 -10.995   8.028  1.00  0.00    -0.350 N 
HETATM    8  C   UNL     1      40.465 -10.351   9.268  1.00  0.00     0.244 C 
HETATM    9  O   UNL     1      39.449 -10.331   9.965  1.00  0.00    -0.271 OA
HETATM   10  C   UNL     1      41.530 -10.748   7.021  1.00  0.00     0.129 C 
HETATM   11  C   UNL     1      41.885 -12.009   6.242  1.00  0.00     0.061 C 
HETATM   12  N   UNL     1      41.013 -14.108   5.183  1.00  0.00    -0.346 N 
HETATM   13  C   UNL     1      40.632 -14.193   3.778  1.00  0.00     0.254 C 
ENDROOT
BRANCH  12  14
HETATM   14  C   UNL     1      41.650 -15.174   5.793  1.00  0.00     0.032 A 
HETATM   15  C   UNL     1      43.035 -15.220   6.018  1.00  0.00     0.029 A 
HETATM   16  C   UNL     1      43.668 -16.316   6.624  1.00  0.00     0.002 A 
HETATM   17  C   UNL     1      42.928 -17.414   7.034  1.00  0.00     0.000 A 
HETATM   18  C   UNL     1      41.555 -17.409   6.839  1.00  0.00     0.002 A 
HETATM   19  C   UNL     1      40.935 -16.307   6.234  1.00  0.00     0.029 A 
ENDBRANCH  12  14
BRANCH   1  20
HETATM   20  C   UNL     1      39.734 -12.508   2.124  1.00  0.00     0.230 C 
BRANCH  20  21
HETATM   21  C   UNL     1      40.656 -13.056   1.025  1.00  0.00     0.236 C 
HETATM   22  N   UNL     1      40.051 -13.978   0.197  1.00  0.00    -0.351 N 
HETATM   23  H   UNL     1      39.103 -14.278   0.383  1.00  0.00     0.163 HD
HETATM   24  O   UNL     1      41.806 -12.662   0.846  1.00  0.00    -0.272 OA
BRANCH  22  25
HETATM   25  C   UNL     1      40.771 -14.611  -0.899  1.00  0.00     0.113 C 
HETATM   26  C   UNL     1      41.483 -15.884  -0.436  1.00  0.00     0.037 C 
BRANCH  25  27
HETATM   27  C   UNL     1      39.833 -14.886  -2.060  1.00  0.00    -0.036 A 
HETATM   28  C   UNL     1      38.623 -14.181  -2.163  1.00  0.00     0.009 A 
HETATM   29  C   UNL     1      37.753 -14.409  -3.230  1.00  0.00     0.001 A 
HETATM   30  C   UNL     1      38.076 -15.349  -4.207  1.00  0.00     0.000 A 
HETATM   31  C   UNL     1      39.269 -16.062  -4.116  1.00  0.00     0.001 A 
HETATM   32  C   UNL     1      40.143 -15.833  -3.051  1.00  0.00     0.009 A 
ENDBRANCH  25  27
ENDBRANCH  22  25
ENDBRANCH  20  21
ENDBRANCH   1  20
BRANCH   8  33
HETATM   33  C   UNL     1      41.733  -9.645   9.755  1.00  0.00     0.278 C 
BRANCH  33  34
HETATM   34  O   UNL     1      42.520 -10.553  10.521  1.00  0.00    -0.342 OA
BRANCH  34  35
HETATM   35  C   UNL     1      42.472 -10.352  11.872  1.00  0.00     0.069 A 
HETATM   36  C   UNL     1      41.481 -10.859  12.713  1.00  0.00     0.037 A 
HETATM   37  C   UNL     1      41.511 -10.570  14.080  1.00  0.00     0.003 A 
HETATM   38  C   UNL     1      42.525  -9.770  14.606  1.00  0.00     0.000 A 
HETATM   39  C   UNL     1      43.505  -9.249  13.764  1.00  0.00     0.003 A 
HETATM   40  C   UNL     1      43.472  -9.532  12.398  1.00  0.00     0.037 A 
ENDBRANCH  34  35
ENDBRANCH  33  34
ENDBRANCH   8  33
TORSDOF 8
ENDMDL
MODEL 9
REMARK VINA RESULT:      -8.6      3.286      8.957
REMARK  8 active torsions:
REMARK  status: ('A' for Active; 'I' for Inactive)
REMARK    1  A    between atoms: C_2  and  N_3 
REMARK    2  A    between atoms: C_2  and  C_34 
REMARK       I    between atoms: N_3  and  C_4 
REMARK    3  A    between atoms: C_4  and  C_5 
REMARK    4  A    between atoms: C_5  and  N_6 
REMARK       I    between atoms: N_12  and  C_13 
REMARK    5  A    between atoms: C_13  and  C_14 
REMARK    6  A    between atoms: C_14  and  O_15 
REMARK    7  A    between atoms: O_15  and  C_16 
REMARK    8  A    between atoms: N_25  and  C_26 
ROOT
HETATM    1  N   UNL     1      41.746 -15.482   4.700  1.00  0.00    -0.325 N 
HETATM    2  C   UNL     1      41.081 -14.289   4.885  1.00  0.00     0.250 C 
HETATM    3  O   UNL     1      40.684 -13.870   5.964  1.00  0.00    -0.270 OA
HETATM    4  C   UNL     1      40.922 -13.601   3.513  1.00  0.00     0.118 C 
HETATM    5  C   UNL     1      41.841 -12.372   3.501  1.00  0.00     0.061 C 
HETATM    6  C   UNL     1      41.263 -11.205   4.295  1.00  0.00     0.129 C 
HETATM    7  N   UNL     1      39.870 -10.942   3.945  1.00  0.00    -0.350 N 
HETATM    8  C   UNL     1      39.444  -9.612   3.908  1.00  0.00     0.244 C 
HETATM    9  O   UNL     1      40.219  -8.670   4.093  1.00  0.00    -0.271 OA
HETATM   10  C   UNL     1      38.963 -12.076   4.096  1.00  0.00     0.129 C 
HETATM   11  C   UNL     1      39.432 -13.294   3.309  1.00  0.00     0.061 C 
HETATM   12  N   UNL     1      41.404 -14.662   2.582  1.00  0.00    -0.346 N 
HETATM   13  C   UNL     1      41.879 -15.828   3.317  1.00  0.00     0.254 C 
ENDROOT
BRANCH  12  14
HETATM   14  C   UNL     1      41.421 -14.661   1.199  1.00  0.00     0.032 A 
HETATM   15  C   UNL     1      41.110 -15.788   0.422  1.00  0.00     0.029 A 
HETATM   16  C   UNL     1      41.146 -15.776  -0.980  1.00  0.00     0.002 A 
HETATM   17  C   UNL     1      41.496 -14.621  -1.662  1.00  0.00     0.000 A 
HETATM   18  C   UNL     1      41.803 -13.481  -0.936  1.00  0.00     0.002 A 
HETATM   19  C   UNL     1      41.761 -13.506   0.464  1.00  0.00     0.029 A 
ENDBRANCH  12  14
BRANCH   1  20
HETATM   20  C   UNL     1      41.819 -16.479   5.757  1.00  0.00     0.230 C 
BRANCH  20  21
HETATM   21  C   UNL     1      43.105 -17.314   5.849  1.00  0.00     0.236 C 
HETATM   22  N   UNL     1      42.963 -18.609   5.398  1.00  0.00    -0.351 N 
HETATM   23  H   UNL     1      42.054 -18.945   5.106  1.00  0.00     0.163 HD
HETATM   24  O   UNL     1      44.184 -16.858   6.220  1.00  0.00    -0.272 OA
BRANCH  22  25
HETATM   25  C   UNL     1      44.072 -19.552   5.414  1.00  0.00     0.113 C 
HETATM   26  C   UNL     1      43.995 -20.484   6.626  1.00  0.00     0.037 C 
BRANCH  25  27
HETATM   27  C   UNL     1      44.125 -20.331   4.113  1.00  0.00    -0.036 A 
HETATM   28  C   UNL     1      44.621 -21.645   4.106  1.00  0.00     0.009 A 
HETATM   29  C   UNL     1      44.664 -22.384   2.922  1.00  0.00     0.001 A 
HETATM   30  C   UNL     1      44.219 -21.820   1.729  1.00  0.00     0.000 A 
HETATM   31  C   UNL     1      43.730 -20.516   1.718  1.00  0.00     0.001 A 
HETATM   32  C   UNL     1      43.681 -19.776   2.901  1.00  0.00     0.009 A 
ENDBRANCH  25  27
ENDBRANCH  22  25
ENDBRANCH  20  21
ENDBRANCH   1  20
BRANCH   8  33
HETATM   33  C   UNL     1      37.964  -9.333   3.636  1.00  0.00     0.278 C 
BRANCH  33  34
HETATM   34  O   UNL     1      37.786  -8.999   2.262  1.00  0.00    -0.342 OA
BRANCH  34  35
HETATM   35  C   UNL     1      37.739 -10.071   1.415  1.00  0.00     0.069 A 
HETATM   36  C   UNL     1      36.727 -11.030   1.409  1.00  0.00     0.037 A 
HETATM   37  C   UNL     1      36.790 -12.105   0.517  1.00  0.00     0.003 A 
HETATM   38  C   UNL     1      37.865 -12.224  -0.362  1.00  0.00     0.000 A 
HETATM   39  C   UNL     1      38.885 -11.276  -0.345  1.00  0.00     0.003 A 
HETATM   40  C   UNL     1      38.826 -10.207   0.550  1.00  0.00     0.037 A 
ENDBRANCH  34  35
ENDBRANCH  33  34
ENDBRANCH   8  33
TORSDOF 8
ENDMDL
MODEL 10
REMARK VINA RESULT:      -8.6      3.760      8.471
REMARK  8 active torsions:
REMARK  status: ('A' for Active; 'I' for Inactive)
REMARK    1  A    between atoms: C_2  and  N_3 
REMARK    2  A    between atoms: C_2  and  C_34 
REMARK       I    between atoms: N_3  and  C_4 
REMARK    3  A    between atoms: C_4  and  C_5 
REMARK    4  A    between atoms: C_5  and  N_6 
REMARK       I    between atoms: N_12  and  C_13 
REMARK    5  A    between atoms: C_13  and  C_14 
REMARK    6  A    between atoms: C_14  and  O_15 
REMARK    7  A    between atoms: O_15  and  C_16 
REMARK    8  A    between atoms: N_25  and  C_26 
ROOT
HETATM    1  N   UNL     1      42.405 -13.450   3.709  1.00  0.00    -0.325 N 
HETATM    2  C   UNL     1      42.389 -13.830   2.383  1.00  0.00     0.250 C 
HETATM    3  O   UNL     1      43.098 -14.701   1.898  1.00  0.00    -0.270 OA
HETATM    4  C   UNL     1      41.347 -12.966   1.640  1.00  0.00     0.118 C 
HETATM    5  C   UNL     1      40.169 -13.877   1.272  1.00  0.00     0.061 C 
HETATM    6  C   UNL     1      40.474 -14.768   0.071  1.00  0.00     0.129 C 
HETATM    7  N   UNL     1      41.046 -14.012  -1.039  1.00  0.00    -0.350 N 
HETATM    8  C   UNL     1      40.678 -14.375  -2.337  1.00  0.00     0.244 C 
HETATM    9  O   UNL     1      39.846 -15.258  -2.560  1.00  0.00    -0.271 OA
HETATM   10  C   UNL     1      42.256 -13.257  -0.724  1.00  0.00     0.129 C 
HETATM   11  C   UNL     1      42.049 -12.304   0.447  1.00  0.00     0.061 C 
HETATM   12  N   UNL     1      40.973 -11.973   2.687  1.00  0.00    -0.346 N 
HETATM   13  C   UNL     1      41.650 -12.256   3.947  1.00  0.00     0.254 C 
ENDROOT
BRANCH  12  14
HETATM   14  C   UNL     1      40.132 -10.879   2.584  1.00  0.00     0.032 A 
HETATM   15  C   UNL     1      38.761 -10.928   2.884  1.00  0.00     0.029 A 
HETATM   16  C   UNL     1      37.918  -9.813   2.760  1.00  0.00     0.002 A 
HETATM   17  C   UNL     1      38.424  -8.596   2.329  1.00  0.00     0.000 A 
HETATM   18  C   UNL     1      39.774  -8.499   2.029  1.00  0.00     0.002 A 
HETATM   19  C   UNL     1      40.605  -9.620   2.160  1.00  0.00     0.029 A 
ENDBRANCH  12  14
BRANCH   1  20
HETATM   20  C   UNL     1      43.457 -13.892   4.610  1.00  0.00     0.230 C 
BRANCH  20  21
HETATM   21  C   UNL     1      43.228 -15.209   5.368  1.00  0.00     0.236 C 
HETATM   22  N   UNL     1      43.018 -16.297   4.546  1.00  0.00    -0.351 N 
HETATM   23  H   UNL     1      42.964 -16.169   3.544  1.00  0.00     0.163 HD
HETATM   24  O   UNL     1      43.296 -15.307   6.590  1.00  0.00    -0.272 OA
BRANCH  22  25
HETATM   25  C   UNL     1      42.777 -17.627   5.085  1.00  0.00     0.113 C 
HETATM   26  C   UNL     1      41.287 -17.863   5.342  1.00  0.00     0.037 C 
BRANCH  25  27
HETATM   27  C   UNL     1      43.359 -18.685   4.165  1.00  0.00    -0.036 A 
HETATM   28  C   UNL     1      44.346 -19.561   4.646  1.00  0.00     0.009 A 
HETATM   29  C   UNL     1      44.884 -20.550   3.821  1.00  0.00     0.001 A 
HETATM   30  C   UNL     1      44.450 -20.674   2.503  1.00  0.00     0.000 A 
HETATM   31  C   UNL     1      43.476 -19.809   2.009  1.00  0.00     0.001 A 
HETATM   32  C   UNL     1      42.933 -18.821   2.834  1.00  0.00     0.009 A 
ENDBRANCH  25  27
ENDBRANCH  22  25
ENDBRANCH  20  21
ENDBRANCH   1  20
BRANCH   8  33
HETATM   33  C   UNL     1      41.346 -13.651  -3.509  1.00  0.00     0.278 C 
BRANCH  33  34
HETATM   34  O   UNL     1      40.610 -12.472  -3.822  1.00  0.00    -0.342 OA
BRANCH  34  35
HETATM   35  C   UNL     1      41.101 -11.326  -3.261  1.00  0.00     0.069 A 
HETATM   36  C   UNL     1      42.394 -10.840  -3.457  1.00  0.00     0.037 A 
HETATM   37  C   UNL     1      42.805  -9.669  -2.812  1.00  0.00     0.003 A 
HETATM   38  C   UNL     1      41.928  -8.990  -1.967  1.00  0.00     0.000 A 
HETATM   39  C   UNL     1      40.642  -9.484  -1.757  1.00  0.00     0.003 A 
HETATM   40  C   UNL     1      40.235 -10.656  -2.395  1.00  0.00     0.037 A 
ENDBRANCH  34  35
ENDBRANCH  33  34
ENDBRANCH   8  33
TORSDOF 8
ENDMDL
