MODEL 1
REMARK VINA RESULT:      -7.9      0.000      0.000
REMARK  5 active torsions:
REMARK  status: ('A' for Active; 'I' for Inactive)
REMARK    1  A    between atoms: C_2  and  N_3 
REMARK    2  A    between atoms: C_2  and  C_21 
REMARK       I    between atoms: N_3  and  C_5 
REMARK       I    between atoms: C_5  and  N_6 
REMARK    3  A    between atoms: N_6  and  C_7 
REMARK    4  A    between atoms: C_7  and  C_8 
REMARK    5  A    between atoms: C_10  and  C_11 
ROOT
HETATM    1  N   UNL     1      42.827 -14.111   6.379  1.00  0.00    -0.218 N 
HETATM    2  H   UNL     1      42.400 -13.513   7.069  1.00  0.00     0.178 HD
HETATM    3  C   UNL     1      42.158 -14.293   5.213  1.00  0.00     0.670 C 
HETATM    4  N   UNL     1      42.594 -15.200   4.311  1.00  0.00    -0.221 N 
HETATM    5  N   UNL     1      41.030 -13.569   4.972  1.00  0.00    -0.231 N 
HETATM    6  C   UNL     1      40.472 -12.566   5.876  1.00  0.00     0.165 C 
HETATM    7  H   UNL     1      43.291 -15.861   4.623  1.00  0.00     0.178 HD
HETATM    8  H   UNL     1      40.555 -13.712   4.094  1.00  0.00     0.177 HD
ENDROOT
BRANCH   4   9
HETATM    9  C   UNL     1      42.278 -15.208   2.881  1.00  0.00     0.199 C 
BRANCH   9  10
HETATM   10  C   UNL     1      42.795 -16.477   2.311  1.00  0.00     0.077 A 
HETATM   11  N   UNL     1      43.202 -17.517   3.132  1.00  0.00    -0.225 NA
HETATM   12  C   UNL     1      43.499 -18.494   2.291  1.00  0.00     0.179 A 
HETATM   13  O   UNL     1      43.357 -18.148   0.973  1.00  0.00    -0.301 OA
HETATM   14  C   UNL     1      42.912 -16.862   0.998  1.00  0.00     0.173 A 
BRANCH  12  15
HETATM   15  C   UNL     1      43.912 -19.865   2.578  1.00  0.00     0.017 A 
HETATM   16  C   UNL     1      44.478 -20.175   3.825  1.00  0.00     0.016 A 
HETATM   17  C   UNL     1      44.857 -21.483   4.135  1.00  0.00     0.001 A 
HETATM   18  C   UNL     1      44.672 -22.500   3.202  1.00  0.00     0.000 A 
HETATM   19  C   UNL     1      44.113 -22.211   1.959  1.00  0.00     0.001 A 
HETATM   20  C   UNL     1      43.737 -20.901   1.648  1.00  0.00     0.016 A 
ENDBRANCH  12  15
ENDBRANCH   9  10
ENDBRANCH   4   9
BRANCH   1  21
HETATM   21  C   UNL     1      44.215 -14.542   6.626  1.00  0.00     0.135 C 
HETATM   22  C   UNL     1      44.825 -13.731   7.766  1.00  0.00     0.038 C 
BRANCH  21  23
HETATM   23  C   UNL     1      44.268 -16.016   6.910  1.00  0.00     0.005 A 
HETATM   24  S   UNL     1      43.256 -16.744   8.089  1.00  0.00    -0.104 SA
HETATM   25  C   UNL     1      43.916 -18.292   7.799  1.00  0.00     0.050 A 
HETATM   26  C   UNL     1      44.888 -18.265   6.826  1.00  0.00     0.008 A 
HETATM   27  C   UNL     1      45.094 -16.953   6.313  1.00  0.00     0.017 A 
ENDBRANCH  21  23
ENDBRANCH   1  21
TORSDOF 5
ENDMDL
MODEL 2
REMARK VINA RESULT:      -7.8      4.125      6.475
REMARK  5 active torsions:
REMARK  status: ('A' for Active; 'I' for Inactive)
REMARK    1  A    between atoms: C_2  and  N_3 
REMARK    2  A    between atoms: C_2  and  C_21 
REMARK       I    between atoms: N_3  and  C_5 
REMARK       I    between atoms: C_5  and  N_6 
REMARK    3  A    between atoms: N_6  and  C_7 
REMARK    4  A    between atoms: C_7  and  C_8 
REMARK    5  A    between atoms: C_10  and  C_11 
ROOT
HETATM    1  N   UNL     1      39.941 -14.154  -0.557  1.00  0.00    -0.218 N 
HETATM    2  H   UNL     1      39.109 -13.826  -1.021  1.00  0.00     0.178 HD
HETATM    3  C   UNL     1      39.849 -14.428   0.768  1.00  0.00     0.670 C 
HETATM    4  N   UNL     1      40.958 -14.722   1.483  1.00  0.00    -0.221 N 
HETATM    5  N   UNL     1      38.630 -14.382   1.374  1.00  0.00    -0.231 N 
HETATM    6  C   UNL     1      37.372 -14.076   0.698  1.00  0.00     0.165 C 
HETATM    7  H   UNL     1      41.849 -14.526   1.049  1.00  0.00     0.178 HD
HETATM    8  H   UNL     1      38.584 -14.601   2.357  1.00  0.00     0.177 HD
ENDROOT
BRANCH   4   9
HETATM    9  C   UNL     1      40.992 -15.448   2.754  1.00  0.00     0.199 C 
BRANCH   9  10
HETATM   10  C   UNL     1      42.168 -16.354   2.725  1.00  0.00     0.077 A 
HETATM   11  N   UNL     1      42.040 -17.703   3.010  1.00  0.00    -0.225 NA
HETATM   12  C   UNL     1      43.248 -18.195   2.792  1.00  0.00     0.179 A 
HETATM   13  O   UNL     1      44.170 -17.249   2.427  1.00  0.00    -0.301 OA
HETATM   14  C   UNL     1      43.472 -16.081   2.390  1.00  0.00     0.173 A 
BRANCH  12  15
HETATM   15  C   UNL     1      43.706 -19.580   2.854  1.00  0.00     0.017 A 
HETATM   16  C   UNL     1      44.379 -20.040   3.998  1.00  0.00     0.016 A 
HETATM   17  C   UNL     1      44.804 -21.367   4.095  1.00  0.00     0.001 A 
HETATM   18  C   UNL     1      44.558 -22.254   3.049  1.00  0.00     0.000 A 
HETATM   19  C   UNL     1      43.893 -21.815   1.906  1.00  0.00     0.001 A 
HETATM   20  C   UNL     1      43.470 -20.486   1.809  1.00  0.00     0.016 A 
ENDBRANCH  12  15
ENDBRANCH   9  10
ENDBRANCH   4   9
BRANCH   1  21
HETATM   21  C   UNL     1      41.095 -14.500  -1.407  1.00  0.00     0.135 C 
HETATM   22  C   UNL     1      40.694 -15.547  -2.443  1.00  0.00     0.038 C 
BRANCH  21  23
HETATM   23  C   UNL     1      41.660 -13.270  -2.059  1.00  0.00     0.005 A 
HETATM   24  S   UNL     1      42.301 -11.974  -1.136  1.00  0.00    -0.104 SA
HETATM   25  C   UNL     1      42.676 -11.072  -2.537  1.00  0.00     0.050 A 
HETATM   26  C   UNL     1      42.324 -11.737  -3.689  1.00  0.00     0.008 A 
HETATM   27  C   UNL     1      41.736 -13.004  -3.415  1.00  0.00     0.017 A 
ENDBRANCH  21  23
ENDBRANCH   1  21
TORSDOF 5
ENDMDL
MODEL 3
REMARK VINA RESULT:      -7.7      2.678      4.949
REMARK  5 active torsions:
REMARK  status: ('A' for Active; 'I' for Inactive)
REMARK    1  A    between atoms: C_2  and  N_3 
REMARK    2  A    between atoms: C_2  and  C_21 
REMARK       I    between atoms: N_3  and  C_5 
REMARK       I    between atoms: C_5  and  N_6 
REMARK    3  A    between atoms: N_6  and  C_7 
REMARK    4  A    between atoms: C_7  and  C_8 
REMARK    5  A    between atoms: C_10  and  C_11 
ROOT
HETATM    1  N   UNL     1      40.959 -14.718   3.580  1.00  0.00    -0.218 N 
HETATM    2  H   UNL     1      40.059 -14.265   3.550  1.00  0.00     0.178 HD
HETATM    3  C   UNL     1      41.657 -14.641   4.742  1.00  0.00     0.670 C 
HETATM    4  N   UNL     1      42.930 -15.090   4.803  1.00  0.00    -0.221 N 
HETATM    5  N   UNL     1      41.067 -14.087   5.837  1.00  0.00    -0.231 N 
HETATM    6  C   UNL     1      39.701 -13.572   5.880  1.00  0.00     0.165 C 
HETATM    7  H   UNL     1      43.393 -15.281   3.926  1.00  0.00     0.178 HD
HETATM    8  H   UNL     1      41.600 -14.051   6.692  1.00  0.00     0.177 HD
ENDROOT
BRANCH   4   9
HETATM    9  C   UNL     1      43.643 -15.483   6.020  1.00  0.00     0.199 C 
BRANCH   9  10
HETATM   10  C   UNL     1      44.066 -16.896   5.859  1.00  0.00     0.077 A 
HETATM   11  N   UNL     1      43.658 -17.645   4.767  1.00  0.00    -0.225 NA
HETATM   12  C   UNL     1      44.297 -18.795   4.908  1.00  0.00     0.179 A 
HETATM   13  O   UNL     1      45.060 -18.865   6.045  1.00  0.00    -0.301 OA
HETATM   14  C   UNL     1      44.903 -17.653   6.643  1.00  0.00     0.173 A 
BRANCH  12  15
HETATM   15  C   UNL     1      44.321 -19.953   4.019  1.00  0.00     0.017 A 
HETATM   16  C   UNL     1      44.751 -21.197   4.509  1.00  0.00     0.016 A 
HETATM   17  C   UNL     1      44.758 -22.327   3.688  1.00  0.00     0.001 A 
HETATM   18  C   UNL     1      44.333 -22.229   2.365  1.00  0.00     0.000 A 
HETATM   19  C   UNL     1      43.904 -21.002   1.862  1.00  0.00     0.001 A 
HETATM   20  C   UNL     1      43.899 -19.871   2.684  1.00  0.00     0.016 A 
ENDBRANCH  12  15
ENDBRANCH   9  10
ENDBRANCH   4   9
BRANCH   1  21
HETATM   21  C   UNL     1      41.317 -15.585   2.443  1.00  0.00     0.135 C 
HETATM   22  C   UNL     1      40.807 -17.004   2.679  1.00  0.00     0.038 C 
BRANCH  21  23
HETATM   23  C   UNL     1      40.785 -15.017   1.158  1.00  0.00     0.005 A 
HETATM   24  S   UNL     1      39.308 -14.145   1.099  1.00  0.00    -0.104 SA
HETATM   25  C   UNL     1      39.442 -13.897  -0.585  1.00  0.00     0.050 A 
HETATM   26  C   UNL     1      40.586 -14.462  -1.101  1.00  0.00     0.008 A 
HETATM   27  C   UNL     1      41.361 -15.110  -0.098  1.00  0.00     0.017 A 
ENDBRANCH  21  23
ENDBRANCH   1  21
TORSDOF 5
ENDMDL
MODEL 4
REMARK VINA RESULT:      -7.7      2.372      4.363
REMARK  5 active torsions:
REMARK  status: ('A' for Active; 'I' for Inactive)
REMARK    1  A    between atoms: C_2  and  N_3 
REMARK    2  A    between atoms: C_2  and  C_21 
REMARK       I    between atoms: N_3  and  C_5 
REMARK       I    between atoms: C_5  and  N_6 
REMARK    3  A    between atoms: N_6  and  C_7 
REMARK    4  A    between atoms: C_7  and  C_8 
REMARK    5  A    between atoms: C_10  and  C_11 
ROOT
HETATM    1  N   UNL     1      42.769 -13.249   6.274  1.00  0.00    -0.218 N 
HETATM    2  H   UNL     1      43.316 -12.411   6.392  1.00  0.00     0.178 HD
HETATM    3  C   UNL     1      43.274 -14.399   6.787  1.00  0.00     0.670 C 
HETATM    4  N   UNL     1      42.670 -15.581   6.532  1.00  0.00    -0.221 N 
HETATM    5  N   UNL     1      44.406 -14.351   7.542  1.00  0.00    -0.231 N 
HETATM    6  C   UNL     1      45.136 -13.131   7.877  1.00  0.00     0.165 C 
HETATM    7  H   UNL     1      41.978 -15.595   5.796  1.00  0.00     0.178 HD
HETATM    8  H   UNL     1      44.756 -15.217   7.922  1.00  0.00     0.177 HD
ENDROOT
BRANCH   4   9
HETATM    9  C   UNL     1      42.803 -16.802   7.330  1.00  0.00     0.199 C 
BRANCH   9  10
HETATM   10  C   UNL     1      43.657 -17.748   6.568  1.00  0.00     0.077 A 
HETATM   11  N   UNL     1      43.112 -18.595   5.616  1.00  0.00    -0.225 NA
HETATM   12  C   UNL     1      44.162 -19.203   5.089  1.00  0.00     0.179 A 
HETATM   13  O   UNL     1      45.353 -18.845   5.664  1.00  0.00    -0.301 OA
HETATM   14  C   UNL     1      45.019 -17.921   6.605  1.00  0.00     0.173 A 
BRANCH  12  15
HETATM   15  C   UNL     1      44.218 -20.154   3.982  1.00  0.00     0.017 A 
HETATM   16  C   UNL     1      44.678 -21.461   4.210  1.00  0.00     0.016 A 
HETATM   17  C   UNL     1      44.716 -22.399   3.175  1.00  0.00     0.001 A 
HETATM   18  C   UNL     1      44.292 -22.041   1.897  1.00  0.00     0.000 A 
HETATM   19  C   UNL     1      43.834 -20.748   1.652  1.00  0.00     0.001 A 
HETATM   20  C   UNL     1      43.799 -19.810   2.688  1.00  0.00     0.016 A 
ENDBRANCH  12  15
ENDBRANCH   9  10
ENDBRANCH   4   9
BRANCH   1  21
HETATM   21  C   UNL     1      41.399 -13.092   5.754  1.00  0.00     0.135 C 
HETATM   22  C   UNL     1      40.741 -11.856   6.362  1.00  0.00     0.038 C 
BRANCH  21  23
HETATM   23  C   UNL     1      41.407 -13.028   4.253  1.00  0.00     0.005 A 
HETATM   24  S   UNL     1      39.956 -12.883   3.349  1.00  0.00    -0.104 SA
HETATM   25  C   UNL     1      40.800 -12.892   1.864  1.00  0.00     0.050 A 
HETATM   26  C   UNL     1      42.159 -13.002   2.044  1.00  0.00     0.008 A 
HETATM   27  C   UNL     1      42.511 -13.083   3.421  1.00  0.00     0.017 A 
ENDBRANCH  21  23
ENDBRANCH   1  21
TORSDOF 5
ENDMDL
MODEL 5
REMARK VINA RESULT:      -7.6      3.475      5.878
REMARK  5 active torsions:
REMARK  status: ('A' for Active; 'I' for Inactive)
REMARK    1  A    between atoms: C_2  and  N_3 
REMARK    2  A    between atoms: C_2  and  C_21 
REMARK       I    between atoms: N_3  and  C_5 
REMARK       I    between atoms: C_5  and  N_6 
REMARK    3  A    between atoms: N_6  and  C_7 
REMARK    4  A    between atoms: C_7  and  C_8 
REMARK    5  A    between atoms: C_10  and  C_11 
ROOT
HETATM    1  N   UNL     1      40.980 -14.255   1.023  1.00  0.00    -0.218 N 
HETATM    2  H   UNL     1      40.029 -13.993   0.813  1.00  0.00     0.178 HD
HETATM    3  C   UNL     1      41.465 -13.913   2.243  1.00  0.00     0.670 C 
HETATM    4  N   UNL     1      42.773 -14.095   2.531  1.00  0.00    -0.221 N 
HETATM    5  N   UNL     1      40.626 -13.363   3.163  1.00  0.00    -0.231 N 
HETATM    6  C   UNL     1      39.200 -13.122   2.955  1.00  0.00     0.165 C 
HETATM    7  H   UNL     1      43.392 -14.291   1.757  1.00  0.00     0.178 HD
HETATM    8  H   UNL     1      41.006 -13.126   4.067  1.00  0.00     0.177 HD
ENDROOT
BRANCH   4   9
HETATM    9  C   UNL     1      43.348 -14.200   3.874  1.00  0.00     0.199 C 
BRANCH   9  10
HETATM   10  C   UNL     1      43.388 -15.639   4.237  1.00  0.00     0.077 A 
HETATM   11  N   UNL     1      43.542 -16.617   3.267  1.00  0.00    -0.225 NA
HETATM   12  C   UNL     1      43.630 -17.742   3.957  1.00  0.00     0.179 A 
HETATM   13  O   UNL     1      43.499 -17.571   5.310  1.00  0.00    -0.301 OA
HETATM   14  C   UNL     1      43.342 -16.229   5.476  1.00  0.00     0.173 A 
BRANCH  12  15
HETATM   15  C   UNL     1      43.878 -19.100   3.480  1.00  0.00     0.017 A 
HETATM   16  C   UNL     1      44.615 -19.993   4.275  1.00  0.00     0.016 A 
HETATM   17  C   UNL     1      44.844 -21.306   3.856  1.00  0.00     0.001 A 
HETATM   18  C   UNL     1      44.334 -21.745   2.637  1.00  0.00     0.000 A 
HETATM   19  C   UNL     1      43.601 -20.873   1.834  1.00  0.00     0.001 A 
HETATM   20  C   UNL     1      43.376 -19.558   2.253  1.00  0.00     0.016 A 
ENDBRANCH  12  15
ENDBRANCH   9  10
ENDBRANCH   4   9
BRANCH   1  21
HETATM   21  C   UNL     1      41.655 -15.160   0.075  1.00  0.00     0.135 C 
HETATM   22  C   UNL     1      41.312 -16.613   0.394  1.00  0.00     0.038 C 
BRANCH  21  23
HETATM   23  C   UNL     1      41.294 -14.808  -1.340  1.00  0.00     0.005 A 
HETATM   24  S   UNL     1      41.623 -13.257  -1.996  1.00  0.00    -0.104 SA
HETATM   25  C   UNL     1      40.942 -13.675  -3.505  1.00  0.00     0.050 A 
HETATM   26  C   UNL     1      40.472 -14.968  -3.519  1.00  0.00     0.008 A 
HETATM   27  C   UNL     1      40.672 -15.623  -2.270  1.00  0.00     0.017 A 
ENDBRANCH  21  23
ENDBRANCH   1  21
TORSDOF 5
ENDMDL
MODEL 6
REMARK VINA RESULT:      -7.4      4.486      6.533
REMARK  5 active torsions:
REMARK  status: ('A' for Active; 'I' for Inactive)
REMARK    1  A    between atoms: C_2  and  N_3 
REMARK    2  A    between atoms: C_2  and  C_21 
REMARK       I    between atoms: N_3  and  C_5 
REMARK       I    between atoms: C_5  and  N_6 
REMARK    3  A    between atoms: N_6  and  C_7 
REMARK    4  A    between atoms: C_7  and  C_8 
REMARK    5  A    between atoms: C_10  and  C_11 
ROOT
HETATM    1  N   UNL     1      40.647 -13.073  -1.230  1.00  0.00    -0.218 N 
HETATM    2  H   UNL     1      40.104 -12.685  -1.986  1.00  0.00     0.178 HD
HETATM    3  C   UNL     1      40.017 -13.925  -0.384  1.00  0.00     0.670 C 
HETATM    4  N   UNL     1      40.639 -14.358   0.735  1.00  0.00    -0.221 N 
HETATM    5  N   UNL     1      38.744 -14.321  -0.662  1.00  0.00    -0.231 N 
HETATM    6  C   UNL     1      37.982 -13.913  -1.840  1.00  0.00     0.165 C 
HETATM    7  H   UNL     1      41.480 -13.871   1.012  1.00  0.00     0.178 HD
HETATM    8  H   UNL     1      38.300 -14.963  -0.025  1.00  0.00     0.177 HD
ENDROOT
BRANCH   4   9
HETATM    9  C   UNL     1      40.304 -15.568   1.489  1.00  0.00     0.199 C 
BRANCH   9  10
HETATM   10  C   UNL     1      41.472 -16.482   1.417  1.00  0.00     0.077 A 
HETATM   11  N   UNL     1      41.706 -17.423   2.407  1.00  0.00    -0.225 NA
HETATM   12  C   UNL     1      42.750 -18.103   1.964  1.00  0.00     0.179 A 
HETATM   13  O   UNL     1      43.243 -17.642   0.772  1.00  0.00    -0.301 OA
HETATM   14  C   UNL     1      42.424 -16.608   0.435  1.00  0.00     0.173 A 
BRANCH  12  15
HETATM   15  C   UNL     1      43.406 -19.271   2.546  1.00  0.00     0.017 A 
HETATM   16  C   UNL     1      43.462 -20.471   1.819  1.00  0.00     0.016 A 
HETATM   17  C   UNL     1      44.107 -21.596   2.341  1.00  0.00     0.001 A 
HETATM   18  C   UNL     1      44.707 -21.534   3.596  1.00  0.00     0.000 A 
HETATM   19  C   UNL     1      44.660 -20.351   4.332  1.00  0.00     0.001 A 
HETATM   20  C   UNL     1      44.012 -19.227   3.810  1.00  0.00     0.016 A 
ENDBRANCH  12  15
ENDBRANCH   9  10
ENDBRANCH   4   9
BRANCH   1  21
HETATM   21  C   UNL     1      42.103 -12.840  -1.258  1.00  0.00     0.135 C 
HETATM   22  C   UNL     1      42.673 -13.220  -2.622  1.00  0.00     0.038 C 
BRANCH  21  23
HETATM   23  C   UNL     1      42.417 -11.413  -0.909  1.00  0.00     0.005 A 
HETATM   24  S   UNL     1      41.599 -10.593   0.357  1.00  0.00    -0.104 SA
HETATM   25  C   UNL     1      42.481  -9.156   0.088  1.00  0.00     0.050 A 
HETATM   26  C   UNL     1      43.383  -9.289  -0.942  1.00  0.00     0.008 A 
HETATM   27  C   UNL     1      43.346 -10.589  -1.520  1.00  0.00     0.017 A 
ENDBRANCH  21  23
ENDBRANCH   1  21
TORSDOF 5
ENDMDL
MODEL 7
REMARK VINA RESULT:      -7.3      3.076      7.665
REMARK  5 active torsions:
REMARK  status: ('A' for Active; 'I' for Inactive)
REMARK    1  A    between atoms: C_2  and  N_3 
REMARK    2  A    between atoms: C_2  and  C_21 
REMARK       I    between atoms: N_3  and  C_5 
REMARK       I    between atoms: C_5  and  N_6 
REMARK    3  A    between atoms: N_6  and  C_7 
REMARK    4  A    between atoms: C_7  and  C_8 
REMARK    5  A    between atoms: C_10  and  C_11 
ROOT
HETATM    1  N   UNL     1      42.769 -17.840   5.227  1.00  0.00    -0.218 N 
HETATM    2  H   UNL     1      42.125 -18.498   5.636  1.00  0.00     0.178 HD
HETATM    3  C   UNL     1      42.375 -16.543   5.158  1.00  0.00     0.670 C 
HETATM    4  N   UNL     1      43.122 -15.640   4.485  1.00  0.00    -0.221 N 
HETATM    5  N   UNL     1      41.210 -16.169   5.754  1.00  0.00    -0.231 N 
HETATM    6  C   UNL     1      40.330 -17.062   6.503  1.00  0.00     0.165 C 
HETATM    7  H   UNL     1      43.846 -16.000   3.880  1.00  0.00     0.178 HD
HETATM    8  H   UNL     1      40.943 -15.198   5.700  1.00  0.00     0.177 HD
ENDROOT
BRANCH   4   9
HETATM    9  C   UNL     1      43.091 -14.188   4.678  1.00  0.00     0.199 C 
BRANCH   9  10
HETATM   10  C   UNL     1      43.808 -13.886   5.942  1.00  0.00     0.077 A 
HETATM   11  N   UNL     1      43.491 -12.766   6.694  1.00  0.00    -0.225 NA
HETATM   12  C   UNL     1      44.247 -12.878   7.773  1.00  0.00     0.179 A 
HETATM   13  O   UNL     1      45.073 -13.972   7.756  1.00  0.00    -0.301 OA
HETATM   14  C   UNL     1      44.786 -14.604   6.585  1.00  0.00     0.173 A 
BRANCH  12  15
HETATM   15  C   UNL     1      44.292 -12.031   8.961  1.00  0.00     0.017 A 
HETATM   16  C   UNL     1      43.229 -11.154   9.231  1.00  0.00     0.016 A 
HETATM   17  C   UNL     1      43.233 -10.352  10.376  1.00  0.00     0.001 A 
HETATM   18  C   UNL     1      44.301 -10.419  11.268  1.00  0.00     0.000 A 
HETATM   19  C   UNL     1      45.365 -11.283  11.016  1.00  0.00     0.001 A 
HETATM   20  C   UNL     1      45.361 -12.083   9.869  1.00  0.00     0.016 A 
ENDBRANCH  12  15
ENDBRANCH   9  10
ENDBRANCH   4   9
BRANCH   1  21
HETATM   21  C   UNL     1      44.136 -18.318   4.950  1.00  0.00     0.135 C 
HETATM   22  C   UNL     1      44.810 -18.769   6.244  1.00  0.00     0.038 C 
BRANCH  21  23
HETATM   23  C   UNL     1      44.115 -19.419   3.929  1.00  0.00     0.005 A 
HETATM   24  S   UNL     1      44.910 -20.916   4.200  1.00  0.00    -0.104 SA
HETATM   25  C   UNL     1      44.434 -21.522   2.676  1.00  0.00     0.050 A 
HETATM   26  C   UNL     1      43.685 -20.611   1.969  1.00  0.00     0.008 A 
HETATM   27  C   UNL     1      43.501 -19.396   2.689  1.00  0.00     0.017 A 
ENDBRANCH  21  23
ENDBRANCH   1  21
TORSDOF 5
ENDMDL
MODEL 8
REMARK VINA RESULT:      -7.3      3.812      6.124
REMARK  5 active torsions:
REMARK  status: ('A' for Active; 'I' for Inactive)
REMARK    1  A    between atoms: C_2  and  N_3 
REMARK    2  A    between atoms: C_2  and  C_21 
REMARK       I    between atoms: N_3  and  C_5 
REMARK       I    between atoms: C_5  and  N_6 
REMARK    3  A    between atoms: N_6  and  C_7 
REMARK    4  A    between atoms: C_7  and  C_8 
REMARK    5  A    between atoms: C_10  and  C_11 
ROOT
HETATM    1  N   UNL     1      40.126 -12.861   1.189  1.00  0.00    -0.218 N 
HETATM    2  H   UNL     1      39.590 -12.008   1.230  1.00  0.00     0.178 HD
HETATM    3  C   UNL     1      41.271 -12.912   1.915  1.00  0.00     0.670 C 
HETATM    4  N   UNL     1      42.113 -13.962   1.785  1.00  0.00    -0.221 N 
HETATM    5  N   UNL     1      41.572 -11.886   2.757  1.00  0.00    -0.231 N 
HETATM    6  C   UNL     1      40.736 -10.708   2.971  1.00  0.00     0.165 C 
HETATM    7  H   UNL     1      41.964 -14.577   0.998  1.00  0.00     0.178 HD
HETATM    8  H   UNL     1      42.423 -11.951   3.294  1.00  0.00     0.177 HD
ENDROOT
BRANCH   4   9
HETATM    9  C   UNL     1      43.114 -14.384   2.767  1.00  0.00     0.199 C 
BRANCH   9  10
HETATM   10  C   UNL     1      42.836 -15.800   3.115  1.00  0.00     0.077 A 
HETATM   11  N   UNL     1      43.599 -16.830   2.588  1.00  0.00    -0.225 NA
HETATM   12  C   UNL     1      43.134 -17.914   3.186  1.00  0.00     0.179 A 
HETATM   13  O   UNL     1      42.086 -17.668   4.035  1.00  0.00    -0.301 OA
HETATM   14  C   UNL     1      41.904 -16.320   3.979  1.00  0.00     0.173 A 
BRANCH  12  15
HETATM   15  C   UNL     1      43.600 -19.294   3.089  1.00  0.00     0.017 A 
HETATM   16  C   UNL     1      43.316 -20.045   1.938  1.00  0.00     0.016 A 
HETATM   17  C   UNL     1      43.773 -21.359   1.807  1.00  0.00     0.001 A 
HETATM   18  C   UNL     1      44.524 -21.938   2.827  1.00  0.00     0.000 A 
HETATM   19  C   UNL     1      44.815 -21.208   3.977  1.00  0.00     0.001 A 
HETATM   20  C   UNL     1      44.355 -19.894   4.108  1.00  0.00     0.016 A 
ENDBRANCH  12  15
ENDBRANCH   9  10
ENDBRANCH   4   9
BRANCH   1  21
HETATM   21  C   UNL     1      39.500 -14.019   0.524  1.00  0.00     0.135 C 
HETATM   22  C   UNL     1      38.020 -14.101   0.887  1.00  0.00     0.038 C 
BRANCH  21  23
HETATM   23  C   UNL     1      39.698 -13.946  -0.963  1.00  0.00     0.005 A 
HETATM   24  S   UNL     1      40.880 -14.898  -1.763  1.00  0.00    -0.104 SA
HETATM   25  C   UNL     1      40.473 -14.245  -3.288  1.00  0.00     0.050 A 
HETATM   26  C   UNL     1      39.458 -13.320  -3.199  1.00  0.00     0.008 A 
HETATM   27  C   UNL     1      39.011 -13.144  -1.858  1.00  0.00     0.017 A 
ENDBRANCH  21  23
ENDBRANCH   1  21
TORSDOF 5
ENDMDL
MODEL 9
REMARK VINA RESULT:      -7.3      2.063      3.593
REMARK  5 active torsions:
REMARK  status: ('A' for Active; 'I' for Inactive)
REMARK    1  A    between atoms: C_2  and  N_3 
REMARK    2  A    between atoms: C_2  and  C_21 
REMARK       I    between atoms: N_3  and  C_5 
REMARK       I    between atoms: C_5  and  N_6 
REMARK    3  A    between atoms: N_6  and  C_7 
REMARK    4  A    between atoms: C_7  and  C_8 
REMARK    5  A    between atoms: C_10  and  C_11 
ROOT
HETATM    1  N   UNL     1      43.960 -14.217   7.429  1.00  0.00    -0.218 N 
HETATM    2  H   UNL     1      44.228 -14.607   8.319  1.00  0.00     0.178 HD
HETATM    3  C   UNL     1      43.443 -15.067   6.506  1.00  0.00     0.670 C 
HETATM    4  N   UNL     1      43.208 -14.642   5.245  1.00  0.00    -0.221 N 
HETATM    5  N   UNL     1      43.186 -16.356   6.859  1.00  0.00    -0.231 N 
HETATM    6  C   UNL     1      43.403 -16.918   8.190  1.00  0.00     0.165 C 
HETATM    7  H   UNL     1      43.616 -13.759   4.973  1.00  0.00     0.178 HD
HETATM    8  H   UNL     1      42.792 -16.967   6.160  1.00  0.00     0.177 HD
ENDROOT
BRANCH   4   9
HETATM    9  C   UNL     1      42.282 -15.257   4.292  1.00  0.00     0.199 C 
BRANCH   9  10
HETATM   10  C   UNL     1      43.016 -16.331   3.578  1.00  0.00     0.077 A 
HETATM   11  N   UNL     1      43.058 -17.623   4.076  1.00  0.00    -0.225 NA
HETATM   12  C   UNL     1      43.701 -18.307   3.144  1.00  0.00     0.179 A 
HETATM   13  O   UNL     1      44.124 -17.539   2.091  1.00  0.00    -0.301 OA
HETATM   14  C   UNL     1      43.685 -16.284   2.379  1.00  0.00     0.173 A 
BRANCH  12  15
HETATM   15  C   UNL     1      43.981 -19.739   3.077  1.00  0.00     0.017 A 
HETATM   16  C   UNL     1      43.676 -20.453   1.907  1.00  0.00     0.016 A 
HETATM   17  C   UNL     1      43.959 -21.818   1.806  1.00  0.00     0.001 A 
HETATM   18  C   UNL     1      44.553 -22.486   2.874  1.00  0.00     0.000 A 
HETATM   19  C   UNL     1      44.862 -21.793   4.043  1.00  0.00     0.001 A 
HETATM   20  C   UNL     1      44.576 -20.428   4.144  1.00  0.00     0.016 A 
ENDBRANCH  12  15
ENDBRANCH   9  10
ENDBRANCH   4   9
BRANCH   1  21
HETATM   21  C   UNL     1      43.959 -12.748   7.311  1.00  0.00     0.135 C 
HETATM   22  C   UNL     1      42.588 -12.255   6.854  1.00  0.00     0.038 C 
BRANCH  21  23
HETATM   23  C   UNL     1      44.367 -12.112   8.609  1.00  0.00     0.005 A 
HETATM   24  S   UNL     1      43.307 -11.083   9.482  1.00  0.00    -0.104 SA
HETATM   25  C   UNL     1      44.465 -10.816  10.708  1.00  0.00     0.050 A 
HETATM   26  C   UNL     1      45.638 -11.494  10.467  1.00  0.00     0.008 A 
HETATM   27  C   UNL     1      45.584 -12.240   9.255  1.00  0.00     0.017 A 
ENDBRANCH  21  23
ENDBRANCH   1  21
TORSDOF 5
ENDMDL
MODEL 10
REMARK VINA RESULT:      -7.3      4.008      7.115
REMARK  5 active torsions:
REMARK  status: ('A' for Active; 'I' for Inactive)
REMARK    1  A    between atoms: C_2  and  N_3 
REMARK    2  A    between atoms: C_2  and  C_21 
REMARK       I    between atoms: N_3  and  C_5 
REMARK       I    between atoms: C_5  and  N_6 
REMARK    3  A    between atoms: N_6  and  C_7 
REMARK    4  A    between atoms: C_7  and  C_8 
REMARK    5  A    between atoms: C_10  and  C_11 
ROOT
HETATM    1  N   UNL     1      42.138 -17.836   3.422  1.00  0.00    -0.218 N 
HETATM    2  H   UNL     1      42.455 -18.091   4.344  1.00  0.00     0.178 HD
HETATM    3  C   UNL     1      41.146 -16.916   3.336  1.00  0.00     0.670 C 
HETATM    4  N   UNL     1      40.569 -16.644   2.144  1.00  0.00    -0.221 N 
HETATM    5  N   UNL     1      40.722 -16.286   4.467  1.00  0.00    -0.231 N 
HETATM    6  C   UNL     1      41.273 -16.505   5.801  1.00  0.00     0.165 C 
HETATM    7  H   UNL     1      40.756 -17.285   1.386  1.00  0.00     0.178 HD
HETATM    8  H   UNL     1      39.991 -15.598   4.377  1.00  0.00     0.177 HD
ENDROOT
BRANCH   4   9
HETATM    9  C   UNL     1      39.838 -15.421   1.804  1.00  0.00     0.199 C 
BRANCH   9  10
HETATM   10  C   UNL     1      40.820 -14.440   1.279  1.00  0.00     0.077 A 
HETATM   11  N   UNL     1      40.753 -13.992  -0.031  1.00  0.00    -0.225 NA
HETATM   12  C   UNL     1      41.703 -13.074  -0.106  1.00  0.00     0.179 A 
HETATM   13  O   UNL     1      42.417 -12.924   1.054  1.00  0.00    -0.301 OA
HETATM   14  C   UNL     1      41.848 -13.800   1.927  1.00  0.00     0.173 A 
BRANCH  12  15
HETATM   15  C   UNL     1      42.057 -12.201  -1.221  1.00  0.00     0.017 A 
HETATM   16  C   UNL     1      42.783 -11.024  -0.979  1.00  0.00     0.016 A 
HETATM   17  C   UNL     1      43.159 -10.184  -2.031  1.00  0.00     0.001 A 
HETATM   18  C   UNL     1      42.816 -10.513  -3.340  1.00  0.00     0.000 A 
HETATM   19  C   UNL     1      42.094 -11.677  -3.599  1.00  0.00     0.001 A 
HETATM   20  C   UNL     1      41.716 -12.515  -2.545  1.00  0.00     0.016 A 
ENDBRANCH  12  15
ENDBRANCH   9  10
ENDBRANCH   4   9
BRANCH   1  21
HETATM   21  C   UNL     1      42.929 -18.327   2.278  1.00  0.00     0.135 C 
HETATM   22  C   UNL     1      43.968 -17.287   1.868  1.00  0.00     0.038 C 
BRANCH  21  23
HETATM   23  C   UNL     1      43.571 -19.645   2.606  1.00  0.00     0.005 A 
HETATM   24  S   UNL     1      44.394 -19.903   4.089  1.00  0.00    -0.104 SA
HETATM   25  C   UNL     1      44.788 -21.511   3.669  1.00  0.00     0.050 A 
HETATM   26  C   UNL     1      44.306 -21.853   2.427  1.00  0.00     0.008 A 
HETATM   27  C   UNL     1      43.606 -20.778   1.811  1.00  0.00     0.017 A 
ENDBRANCH  21  23
ENDBRANCH   1  21
TORSDOF 5
ENDMDL
