MODEL 1
REMARK VINA RESULT:      -7.9      0.000      0.000
REMARK  4 active torsions:
REMARK  status: ('A' for Active; 'I' for Inactive)
REMARK    1  A    between atoms: C_4  and  C_5 
REMARK    2  A    between atoms: C_5  and  C_6 
REMARK       I    between atoms: C_6  and  N_7 
REMARK    3  A    between atoms: N_7  and  N_8 
REMARK       I    between atoms: N_8  and  C_9 
REMARK    4  A    between atoms: C_9  and  C_10 
ROOT
HETATM    1  N   UNL     1      41.402 -17.012   3.978  1.00  0.00    -0.263 N 
HETATM    2  C   UNL     1      42.774 -16.864   3.895  1.00  0.00     0.272 C 
HETATM    3  O   UNL     1      43.282 -15.809   3.514  1.00  0.00    -0.266 OA
HETATM    4  H   UNL     1      40.950 -17.896   4.195  1.00  0.00     0.190 HD
ENDROOT
BRANCH   1   5
HETATM    5  N   UNL     1      40.578 -16.010   3.449  1.00  0.00    -0.267 N 
HETATM    6  C   UNL     1      40.106 -16.176   2.164  1.00  0.00     0.240 C 
HETATM    7  O   UNL     1      40.269 -17.227   1.539  1.00  0.00    -0.271 OA
HETATM    8  H   UNL     1      40.569 -15.115   3.939  1.00  0.00     0.190 HD
BRANCH   6   9
HETATM    9  C   UNL     1      39.469 -14.951   1.538  1.00  0.00     0.150 C 
BRANCH   9  10
HETATM   10  C   UNL     1      40.460 -14.138   0.763  1.00  0.00    -0.008 A 
HETATM   11  S   UNL     1      40.796 -14.519  -0.872  1.00  0.00    -0.099 SA
HETATM   12  C   UNL     1      41.875 -13.204  -1.034  1.00  0.00    -0.021 A 
HETATM   13  C   UNL     1      42.559 -12.944  -2.333  1.00  0.00     0.056 C 
HETATM   14  C   UNL     1      41.995 -12.498   0.145  1.00  0.00     0.015 A 
HETATM   15  C   UNL     1      41.176 -13.034   1.181  1.00  0.00     0.016 A 
ENDBRANCH   9  10
ENDBRANCH   6   9
ENDBRANCH   1   5
BRANCH   2  16
HETATM   16  C   UNL     1      43.557 -18.040   4.277  1.00  0.00     0.061 A 
HETATM   17  C   UNL     1      43.713 -19.250   3.516  1.00  0.00     0.008 A 
HETATM   18  C   UNL     1      44.522 -20.118   4.253  1.00  0.00     0.043 A 
HETATM   19  C   UNL     1      43.243 -19.691   2.260  1.00  0.00     0.015 A 
HETATM   20  C   UNL     1      44.876 -21.396   3.805  1.00  0.00     0.030 A 
HETATM   21  N   UNL     1      44.849 -19.470   5.419  1.00  0.00    -0.364 N 
HETATM   22  C   UNL     1      44.395 -21.803   2.558  1.00  0.00     0.002 A 
HETATM   23  C   UNL     1      43.590 -20.964   1.793  1.00  0.00     0.001 A 
HETATM   24  H   UNL     1      45.425 -19.867   6.149  1.00  0.00     0.165 HD
HETATM   25  C   UNL     1      44.282 -18.223   5.447  1.00  0.00     0.106 A 
ENDBRANCH   2  16
TORSDOF 4
ENDMDL
MODEL 2
REMARK VINA RESULT:      -7.8      2.005      2.733
REMARK  4 active torsions:
REMARK  status: ('A' for Active; 'I' for Inactive)
REMARK    1  A    between atoms: C_4  and  C_5 
REMARK    2  A    between atoms: C_5  and  C_6 
REMARK       I    between atoms: C_6  and  N_7 
REMARK    3  A    between atoms: N_7  and  N_8 
REMARK       I    between atoms: N_8  and  C_9 
REMARK    4  A    between atoms: C_9  and  C_10 
ROOT
HETATM    1  N   UNL     1      42.878 -16.671   0.658  1.00  0.00    -0.263 N 
HETATM    2  C   UNL     1      42.220 -17.591   1.453  1.00  0.00     0.272 C 
HETATM    3  O   UNL     1      41.040 -17.879   1.255  1.00  0.00    -0.266 OA
HETATM    4  H   UNL     1      43.818 -16.340   0.853  1.00  0.00     0.190 HD
ENDROOT
BRANCH   1   5
HETATM    5  N   UNL     1      42.140 -15.926  -0.271  1.00  0.00    -0.267 N 
HETATM    6  C   UNL     1      41.675 -14.688   0.121  1.00  0.00     0.240 C 
HETATM    7  O   UNL     1      42.009 -14.173   1.190  1.00  0.00    -0.271 OA
HETATM    8  H   UNL     1      41.783 -16.428  -1.085  1.00  0.00     0.190 HD
BRANCH   6   9
HETATM    9  C   UNL     1      40.651 -14.053  -0.799  1.00  0.00     0.150 C 
BRANCH   9  10
HETATM   10  C   UNL     1      41.275 -13.075  -1.745  1.00  0.00    -0.008 A 
HETATM   11  S   UNL     1      41.400 -11.422  -1.316  1.00  0.00    -0.099 SA
HETATM   12  C   UNL     1      42.212 -11.030  -2.767  1.00  0.00    -0.021 A 
HETATM   13  C   UNL     1      42.651  -9.630  -3.032  1.00  0.00     0.056 C 
HETATM   14  C   UNL     1      42.368 -12.136  -3.575  1.00  0.00     0.015 A 
HETATM   15  C   UNL     1      41.831 -13.316  -2.985  1.00  0.00     0.016 A 
ENDBRANCH   9  10
ENDBRANCH   6   9
ENDBRANCH   1   5
BRANCH   2  16
HETATM   16  C   UNL     1      43.018 -18.172   2.534  1.00  0.00     0.061 A 
HETATM   17  C   UNL     1      43.503 -19.524   2.611  1.00  0.00     0.008 A 
HETATM   18  C   UNL     1      44.199 -19.662   3.813  1.00  0.00     0.043 A 
HETATM   19  C   UNL     1      43.417 -20.650   1.763  1.00  0.00     0.015 A 
HETATM   20  C   UNL     1      44.804 -20.859   4.212  1.00  0.00     0.030 A 
HETATM   21  N   UNL     1      44.145 -18.446   4.451  1.00  0.00    -0.364 N 
HETATM   22  C   UNL     1      44.702 -21.956   3.352  1.00  0.00     0.002 A 
HETATM   23  C   UNL     1      44.020 -21.856   2.143  1.00  0.00     0.001 A 
HETATM   24  H   UNL     1      44.563 -18.256   5.351  1.00  0.00     0.165 HD
HETATM   25  C   UNL     1      43.444 -17.543   3.696  1.00  0.00     0.106 A 
ENDBRANCH   2  16
TORSDOF 4
ENDMDL
MODEL 3
REMARK VINA RESULT:      -7.7      2.401      3.235
REMARK  4 active torsions:
REMARK  status: ('A' for Active; 'I' for Inactive)
REMARK    1  A    between atoms: C_4  and  C_5 
REMARK    2  A    between atoms: C_5  and  C_6 
REMARK       I    between atoms: C_6  and  N_7 
REMARK    3  A    between atoms: N_7  and  N_8 
REMARK       I    between atoms: N_8  and  C_9 
REMARK    4  A    between atoms: C_9  and  C_10 
ROOT
HETATM    1  N   UNL     1      42.593 -16.591   0.415  1.00  0.00    -0.263 N 
HETATM    2  C   UNL     1      41.944 -17.327   1.390  1.00  0.00     0.272 C 
HETATM    3  O   UNL     1      40.734 -17.543   1.329  1.00  0.00    -0.266 OA
HETATM    4  H   UNL     1      43.567 -16.313   0.485  1.00  0.00     0.190 HD
ENDROOT
BRANCH   1   5
HETATM    5  N   UNL     1      41.829 -15.932  -0.558  1.00  0.00    -0.267 N 
HETATM    6  C   UNL     1      41.500 -14.612  -0.333  1.00  0.00     0.240 C 
HETATM    7  O   UNL     1      41.971 -13.972   0.610  1.00  0.00    -0.271 OA
HETATM    8  H   UNL     1      41.360 -16.518  -1.250  1.00  0.00     0.190 HD
BRANCH   6   9
HETATM    9  C   UNL     1      40.445 -14.035  -1.256  1.00  0.00     0.150 C 
BRANCH   9  10
HETATM   10  C   UNL     1      39.213 -13.620  -0.511  1.00  0.00    -0.008 A 
HETATM   11  S   UNL     1      38.372 -12.198  -0.963  1.00  0.00    -0.099 SA
HETATM   12  C   UNL     1      37.166 -12.448   0.221  1.00  0.00    -0.021 A 
HETATM   13  C   UNL     1      36.032 -11.490   0.357  1.00  0.00     0.056 C 
HETATM   14  C   UNL     1      37.411 -13.584   0.963  1.00  0.00     0.015 A 
HETATM   15  C   UNL     1      38.590 -14.262   0.539  1.00  0.00     0.016 A 
ENDBRANCH   9  10
ENDBRANCH   6   9
ENDBRANCH   1   5
BRANCH   2  16
HETATM   16  C   UNL     1      42.791 -17.806   2.483  1.00  0.00     0.061 A 
HETATM   17  C   UNL     1      43.372 -19.116   2.606  1.00  0.00     0.008 A 
HETATM   18  C   UNL     1      44.087 -19.156   3.805  1.00  0.00     0.043 A 
HETATM   19  C   UNL     1      43.359 -20.278   1.804  1.00  0.00     0.015 A 
HETATM   20  C   UNL     1      44.780 -20.291   4.243  1.00  0.00     0.030 A 
HETATM   21  N   UNL     1      43.952 -17.923   4.396  1.00  0.00    -0.364 N 
HETATM   22  C   UNL     1      44.748 -21.425   3.427  1.00  0.00     0.002 A 
HETATM   23  C   UNL     1      44.050 -21.422   2.223  1.00  0.00     0.001 A 
HETATM   24  H   UNL     1      44.363 -17.668   5.283  1.00  0.00     0.165 HD
HETATM   25  C   UNL     1      43.181 -17.103   3.614  1.00  0.00     0.106 A 
ENDBRANCH   2  16
TORSDOF 4
ENDMDL
MODEL 4
REMARK VINA RESULT:      -7.6      1.517      1.843
REMARK  4 active torsions:
REMARK  status: ('A' for Active; 'I' for Inactive)
REMARK    1  A    between atoms: C_4  and  C_5 
REMARK    2  A    between atoms: C_5  and  C_6 
REMARK       I    between atoms: C_6  and  N_7 
REMARK    3  A    between atoms: N_7  and  N_8 
REMARK       I    between atoms: N_8  and  C_9 
REMARK    4  A    between atoms: C_9  and  C_10 
ROOT
HETATM    1  N   UNL     1      41.827 -17.233   2.383  1.00  0.00    -0.263 N 
HETATM    2  C   UNL     1      43.168 -17.525   2.213  1.00  0.00     0.272 C 
HETATM    3  O   UNL     1      43.808 -17.064   1.268  1.00  0.00    -0.266 OA
HETATM    4  H   UNL     1      41.248 -17.671   3.093  1.00  0.00     0.190 HD
ENDROOT
BRANCH   1   5
HETATM    5  N   UNL     1      41.147 -16.551   1.365  1.00  0.00    -0.267 N 
HETATM    6  C   UNL     1      40.860 -15.217   1.564  1.00  0.00     0.240 C 
HETATM    7  O   UNL     1      41.303 -14.590   2.528  1.00  0.00    -0.271 OA
HETATM    8  H   UNL     1      40.694 -17.122   0.651  1.00  0.00     0.190 HD
BRANCH   6   9
HETATM    9  C   UNL     1      39.883 -14.604   0.579  1.00  0.00     0.150 C 
BRANCH   9  10
HETATM   10  C   UNL     1      40.537 -14.274  -0.728  1.00  0.00    -0.008 A 
HETATM   11  S   UNL     1      41.259 -12.740  -0.966  1.00  0.00    -0.099 SA
HETATM   12  C   UNL     1      41.787 -13.151  -2.538  1.00  0.00    -0.021 A 
HETATM   13  C   UNL     1      42.558 -12.171  -3.356  1.00  0.00     0.056 C 
HETATM   14  C   UNL     1      41.401 -14.429  -2.885  1.00  0.00     0.015 A 
HETATM   15  C   UNL     1      40.683 -15.078  -1.840  1.00  0.00     0.016 A 
ENDBRANCH   9  10
ENDBRANCH   6   9
ENDBRANCH   1   5
BRANCH   2  16
HETATM   16  C   UNL     1      43.749 -18.415   3.219  1.00  0.00     0.061 A 
HETATM   17  C   UNL     1      43.996 -19.825   3.075  1.00  0.00     0.008 A 
HETATM   18  C   UNL     1      44.538 -20.289   4.275  1.00  0.00     0.043 A 
HETATM   19  C   UNL     1      43.812 -20.755   2.029  1.00  0.00     0.015 A 
HETATM   20  C   UNL     1      44.897 -21.626   4.484  1.00  0.00     0.030 A 
HETATM   21  N   UNL     1      44.621 -19.211   5.123  1.00  0.00    -0.364 N 
HETATM   22  C   UNL     1      44.702 -22.522   3.430  1.00  0.00     0.002 A 
HETATM   23  C   UNL     1      44.169 -22.096   2.218  1.00  0.00     0.001 A 
HETATM   24  H   UNL     1      44.973 -19.256   6.069  1.00  0.00     0.165 HD
HETATM   25  C   UNL     1      44.155 -18.081   4.503  1.00  0.00     0.106 A 
ENDBRANCH   2  16
TORSDOF 4
ENDMDL
MODEL 5
REMARK VINA RESULT:      -7.5      1.684      2.285
REMARK  4 active torsions:
REMARK  status: ('A' for Active; 'I' for Inactive)
REMARK    1  A    between atoms: C_4  and  C_5 
REMARK    2  A    between atoms: C_5  and  C_6 
REMARK       I    between atoms: C_6  and  N_7 
REMARK    3  A    between atoms: N_7  and  N_8 
REMARK       I    between atoms: N_8  and  C_9 
REMARK    4  A    between atoms: C_9  and  C_10 
ROOT
HETATM    1  N   UNL     1      42.877 -16.256   3.622  1.00  0.00    -0.263 N 
HETATM    2  C   UNL     1      43.536 -17.245   2.915  1.00  0.00     0.272 C 
HETATM    3  O   UNL     1      43.700 -17.161   1.698  1.00  0.00    -0.266 OA
HETATM    4  H   UNL     1      42.641 -16.340   4.606  1.00  0.00     0.190 HD
ENDROOT
BRANCH   1   5
HETATM    5  N   UNL     1      42.231 -15.233   2.915  1.00  0.00    -0.267 N 
HETATM    6  C   UNL     1      42.851 -14.003   2.852  1.00  0.00     0.240 C 
HETATM    7  O   UNL     1      43.997 -13.827   3.270  1.00  0.00    -0.271 OA
HETATM    8  H   UNL     1      41.245 -15.377   2.695  1.00  0.00     0.190 HD
BRANCH   6   9
HETATM    9  C   UNL     1      41.993 -12.864   2.335  1.00  0.00     0.150 C 
BRANCH   9  10
HETATM   10  C   UNL     1      41.235 -13.248   1.102  1.00  0.00    -0.008 A 
HETATM   11  S   UNL     1      39.523 -13.212   1.098  1.00  0.00    -0.099 SA
HETATM   12  C   UNL     1      39.444 -13.677  -0.545  1.00  0.00    -0.021 A 
HETATM   13  C   UNL     1      38.126 -13.827  -1.224  1.00  0.00     0.056 C 
HETATM   14  C   UNL     1      40.701 -13.878  -1.076  1.00  0.00     0.015 A 
HETATM   15  C   UNL     1      41.734 -13.627  -0.128  1.00  0.00     0.016 A 
ENDBRANCH   9  10
ENDBRANCH   6   9
ENDBRANCH   1   5
BRANCH   2  16
HETATM   16  C   UNL     1      44.001 -18.382   3.711  1.00  0.00     0.061 A 
HETATM   17  C   UNL     1      44.110 -19.748   3.273  1.00  0.00     0.008 A 
HETATM   18  C   UNL     1      44.574 -20.507   4.349  1.00  0.00     0.043 A 
HETATM   19  C   UNL     1      43.860 -20.414   2.053  1.00  0.00     0.015 A 
HETATM   20  C   UNL     1      44.793 -21.887   4.272  1.00  0.00     0.030 A 
HETATM   21  N   UNL     1      44.743 -19.645   5.406  1.00  0.00    -0.364 N 
HETATM   22  C   UNL     1      44.536 -22.517   3.051  1.00  0.00     0.002 A 
HETATM   23  C   UNL     1      44.077 -21.794   1.955  1.00  0.00     0.001 A 
HETATM   24  H   UNL     1      45.065 -19.924   6.322  1.00  0.00     0.165 HD
HETATM   25  C   UNL     1      44.407 -18.369   5.038  1.00  0.00     0.106 A 
ENDBRANCH   2  16
TORSDOF 4
ENDMDL
MODEL 6
REMARK VINA RESULT:      -7.5      2.058      2.343
REMARK  4 active torsions:
REMARK  status: ('A' for Active; 'I' for Inactive)
REMARK    1  A    between atoms: C_4  and  C_5 
REMARK    2  A    between atoms: C_5  and  C_6 
REMARK       I    between atoms: C_6  and  N_7 
REMARK    3  A    between atoms: N_7  and  N_8 
REMARK       I    between atoms: N_8  and  C_9 
REMARK    4  A    between atoms: C_9  and  C_10 
ROOT
HETATM    1  N   UNL     1      43.170 -16.304   2.164  1.00  0.00    -0.263 N 
HETATM    2  C   UNL     1      42.589 -16.953   3.238  1.00  0.00     0.272 C 
HETATM    3  O   UNL     1      41.480 -16.624   3.661  1.00  0.00    -0.266 OA
HETATM    4  H   UNL     1      44.120 -16.485   1.854  1.00  0.00     0.190 HD
ENDROOT
BRANCH   1   5
HETATM    5  N   UNL     1      42.567 -15.141   1.667  1.00  0.00    -0.267 N 
HETATM    6  C   UNL     1      41.885 -15.230   0.472  1.00  0.00     0.240 C 
HETATM    7  O   UNL     1      41.675 -16.311  -0.082  1.00  0.00    -0.271 OA
HETATM    8  H   UNL     1      42.863 -14.256   2.080  1.00  0.00     0.190 HD
BRANCH   6   9
HETATM    9  C   UNL     1      41.504 -13.907  -0.163  1.00  0.00     0.150 C 
BRANCH   9  10
HETATM   10  C   UNL     1      40.164 -13.970  -0.831  1.00  0.00    -0.008 A 
HETATM   11  S   UNL     1      40.043 -14.434  -2.475  1.00  0.00    -0.099 SA
HETATM   12  C   UNL     1      38.338 -14.328  -2.455  1.00  0.00    -0.021 A 
HETATM   13  C   UNL     1      37.547 -14.647  -3.678  1.00  0.00     0.056 C 
HETATM   14  C   UNL     1      37.869 -13.925  -1.222  1.00  0.00     0.015 A 
HETATM   15  C   UNL     1      38.922 -13.722  -0.284  1.00  0.00     0.016 A 
ENDBRANCH   9  10
ENDBRANCH   6   9
ENDBRANCH   1   5
BRANCH   2  16
HETATM   16  C   UNL     1      43.386 -18.029   3.828  1.00  0.00     0.061 A 
HETATM   17  C   UNL     1      43.624 -19.329   3.261  1.00  0.00     0.008 A 
HETATM   18  C   UNL     1      44.415 -20.049   4.159  1.00  0.00     0.043 A 
HETATM   19  C   UNL     1      43.242 -19.964   2.060  1.00  0.00     0.015 A 
HETATM   20  C   UNL     1      44.836 -21.363   3.921  1.00  0.00     0.030 A 
HETATM   21  N   UNL     1      44.653 -19.228   5.234  1.00  0.00    -0.364 N 
HETATM   22  C   UNL     1      44.441 -21.964   2.723  1.00  0.00     0.002 A 
HETATM   23  C   UNL     1      43.656 -21.277   1.802  1.00  0.00     0.001 A 
HETATM   24  H   UNL     1      45.197 -19.492   6.044  1.00  0.00     0.165 HD
HETATM   25  C   UNL     1      44.046 -18.014   5.049  1.00  0.00     0.106 A 
ENDBRANCH   2  16
TORSDOF 4
ENDMDL
MODEL 7
REMARK VINA RESULT:      -7.3      1.946      2.633
REMARK  4 active torsions:
REMARK  status: ('A' for Active; 'I' for Inactive)
REMARK    1  A    between atoms: C_4  and  C_5 
REMARK    2  A    between atoms: C_5  and  C_6 
REMARK       I    between atoms: C_6  and  N_7 
REMARK    3  A    between atoms: N_7  and  N_8 
REMARK       I    between atoms: N_8  and  C_9 
REMARK    4  A    between atoms: C_9  and  C_10 
ROOT
HETATM    1  N   UNL     1      43.031 -16.352   3.215  1.00  0.00    -0.263 N 
HETATM    2  C   UNL     1      43.833 -17.381   2.757  1.00  0.00     0.272 C 
HETATM    3  O   UNL     1      44.206 -17.428   1.584  1.00  0.00    -0.266 OA
HETATM    4  H   UNL     1      42.628 -16.335   4.148  1.00  0.00     0.190 HD
ENDROOT
BRANCH   1   5
HETATM    5  N   UNL     1      42.488 -15.451   2.290  1.00  0.00    -0.267 N 
HETATM    6  C   UNL     1      41.179 -15.637   1.901  1.00  0.00     0.240 C 
HETATM    7  O   UNL     1      40.448 -16.470   2.444  1.00  0.00    -0.271 OA
HETATM    8  H   UNL     1      43.148 -14.863   1.778  1.00  0.00     0.190 HD
BRANCH   6   9
HETATM    9  C   UNL     1      40.732 -14.829   0.699  1.00  0.00     0.150 C 
BRANCH   9  10
HETATM   10  C   UNL     1      39.652 -13.852   1.050  1.00  0.00    -0.008 A 
HETATM   11  S   UNL     1      39.917 -12.677   2.266  1.00  0.00    -0.099 SA
HETATM   12  C   UNL     1      38.374 -11.980   2.032  1.00  0.00    -0.021 A 
HETATM   13  C   UNL     1      37.946 -10.803   2.840  1.00  0.00     0.056 C 
HETATM   14  C   UNL     1      37.660 -12.646   1.057  1.00  0.00     0.015 A 
HETATM   15  C   UNL     1      38.398 -13.723   0.488  1.00  0.00     0.016 A 
ENDBRANCH   9  10
ENDBRANCH   6   9
ENDBRANCH   1   5
BRANCH   2  16
HETATM   16  C   UNL     1      44.186 -18.394   3.752  1.00  0.00     0.061 A 
HETATM   17  C   UNL     1      44.303 -19.810   3.530  1.00  0.00     0.008 A 
HETATM   18  C   UNL     1      44.636 -20.408   4.747  1.00  0.00     0.043 A 
HETATM   19  C   UNL     1      44.161 -20.645   2.400  1.00  0.00     0.015 A 
HETATM   20  C   UNL     1      44.826 -21.788   4.893  1.00  0.00     0.030 A 
HETATM   21  N   UNL     1      44.719 -19.404   5.680  1.00  0.00    -0.364 N 
HETATM   22  C   UNL     1      44.678 -22.587   3.756  1.00  0.00     0.002 A 
HETATM   23  C   UNL     1      44.351 -22.026   2.525  1.00  0.00     0.001 A 
HETATM   24  H   UNL     1      44.940 -19.549   6.656  1.00  0.00     0.165 HD
HETATM   25  C   UNL     1      44.455 -18.191   5.099  1.00  0.00     0.106 A 
ENDBRANCH   2  16
TORSDOF 4
ENDMDL
MODEL 8
REMARK VINA RESULT:      -7.2      5.823      7.911
REMARK  4 active torsions:
REMARK  status: ('A' for Active; 'I' for Inactive)
REMARK    1  A    between atoms: C_4  and  C_5 
REMARK    2  A    between atoms: C_5  and  C_6 
REMARK       I    between atoms: C_6  and  N_7 
REMARK    3  A    between atoms: N_7  and  N_8 
REMARK       I    between atoms: N_8  and  C_9 
REMARK    4  A    between atoms: C_9  and  C_10 
ROOT
HETATM    1  N   UNL     1      42.733 -13.697   6.311  1.00  0.00    -0.263 N 
HETATM    2  C   UNL     1      42.973 -13.969   4.977  1.00  0.00     0.272 C 
HETATM    3  O   UNL     1      44.001 -13.581   4.420  1.00  0.00    -0.266 OA
HETATM    4  H   UNL     1      41.856 -13.916   6.774  1.00  0.00     0.190 HD
ENDROOT
BRANCH   1   5
HETATM    5  N   UNL     1      43.586 -12.815   6.988  1.00  0.00    -0.267 N 
HETATM    6  C   UNL     1      44.474 -13.350   7.898  1.00  0.00     0.240 C 
HETATM    7  O   UNL     1      44.631 -14.566   8.021  1.00  0.00    -0.271 OA
HETATM    8  H   UNL     1      43.346 -11.824   6.954  1.00  0.00     0.190 HD
BRANCH   6   9
HETATM    9  C   UNL     1      45.163 -12.349   8.804  1.00  0.00     0.150 C 
BRANCH   9  10
HETATM   10  C   UNL     1      44.302 -11.958   9.966  1.00  0.00    -0.008 A 
HETATM   11  S   UNL     1      43.090 -10.764   9.776  1.00  0.00    -0.099 SA
HETATM   12  C   UNL     1      42.564 -10.935  11.393  1.00  0.00    -0.021 A 
HETATM   13  C   UNL     1      41.429 -10.119  11.909  1.00  0.00     0.056 C 
HETATM   14  C   UNL     1      43.314 -11.872  12.074  1.00  0.00     0.015 A 
HETATM   15  C   UNL     1      44.314 -12.465  11.250  1.00  0.00     0.016 A 
ENDBRANCH   9  10
ENDBRANCH   6   9
ENDBRANCH   1   5
BRANCH   2  16
HETATM   16  C   UNL     1      41.925 -14.725   4.291  1.00  0.00     0.061 A 
HETATM   17  C   UNL     1      42.108 -15.666   3.218  1.00  0.00     0.008 A 
HETATM   18  C   UNL     1      40.849 -16.141   2.846  1.00  0.00     0.043 A 
HETATM   19  C   UNL     1      43.234 -16.164   2.527  1.00  0.00     0.015 A 
HETATM   20  C   UNL     1      40.659 -17.076   1.822  1.00  0.00     0.030 A 
HETATM   21  N   UNL     1      39.929 -15.519   3.654  1.00  0.00    -0.364 N 
HETATM   22  C   UNL     1      41.793 -17.550   1.156  1.00  0.00     0.002 A 
HETATM   23  C   UNL     1      43.064 -17.103   1.502  1.00  0.00     0.001 A 
HETATM   24  H   UNL     1      38.931 -15.669   3.602  1.00  0.00     0.165 HD
HETATM   25  C   UNL     1      40.558 -14.671   4.527  1.00  0.00     0.106 A 
ENDBRANCH   2  16
TORSDOF 4
ENDMDL
MODEL 9
REMARK VINA RESULT:      -6.9      3.181      3.963
REMARK  4 active torsions:
REMARK  status: ('A' for Active; 'I' for Inactive)
REMARK    1  A    between atoms: C_4  and  C_5 
REMARK    2  A    between atoms: C_5  and  C_6 
REMARK       I    between atoms: C_6  and  N_7 
REMARK    3  A    between atoms: N_7  and  N_8 
REMARK       I    between atoms: N_8  and  C_9 
REMARK    4  A    between atoms: C_9  and  C_10 
ROOT
HETATM    1  N   UNL     1      41.964 -16.864   4.152  1.00  0.00    -0.263 N 
HETATM    2  C   UNL     1      43.210 -17.104   3.602  1.00  0.00     0.272 C 
HETATM    3  O   UNL     1      43.713 -16.324   2.793  1.00  0.00    -0.266 OA
HETATM    4  H   UNL     1      41.480 -17.532   4.745  1.00  0.00     0.190 HD
ENDROOT
BRANCH   1   5
HETATM    5  N   UNL     1      41.190 -15.813   3.644  1.00  0.00    -0.267 N 
HETATM    6  C   UNL     1      41.078 -14.669   4.405  1.00  0.00     0.240 C 
HETATM    7  O   UNL     1      41.743 -14.498   5.430  1.00  0.00    -0.271 OA
HETATM    8  H   UNL     1      40.564 -16.034   2.868  1.00  0.00     0.190 HD
BRANCH   6   9
HETATM    9  C   UNL     1      40.011 -13.688   3.959  1.00  0.00     0.150 C 
BRANCH   9  10
HETATM   10  C   UNL     1      40.137 -12.367   4.655  1.00  0.00    -0.008 A 
HETATM   11  S   UNL     1      39.405 -12.127   6.184  1.00  0.00    -0.099 SA
HETATM   12  C   UNL     1      40.016 -10.536   6.308  1.00  0.00    -0.021 A 
HETATM   13  C   UNL     1      39.728  -9.708   7.514  1.00  0.00     0.056 C 
HETATM   14  C   UNL     1      40.748 -10.185   5.193  1.00  0.00     0.015 A 
HETATM   15  C   UNL     1      40.821 -11.242   4.241  1.00  0.00     0.016 A 
ENDBRANCH   9  10
ENDBRANCH   6   9
ENDBRANCH   1   5
BRANCH   2  16
HETATM   16  C   UNL     1      43.863 -18.339   4.040  1.00  0.00     0.061 A 
HETATM   17  C   UNL     1      43.907 -19.586   3.324  1.00  0.00     0.008 A 
HETATM   18  C   UNL     1      44.610 -20.504   4.106  1.00  0.00     0.043 A 
HETATM   19  C   UNL     1      43.414 -20.021   2.074  1.00  0.00     0.015 A 
HETATM   20  C   UNL     1      44.839 -21.826   3.710  1.00  0.00     0.030 A 
HETATM   21  N   UNL     1      44.983 -19.851   5.256  1.00  0.00    -0.364 N 
HETATM   22  C   UNL     1      44.339 -22.227   2.468  1.00  0.00     0.002 A 
HETATM   23  C   UNL     1      43.637 -21.339   1.658  1.00  0.00     0.001 A 
HETATM   24  H   UNL     1      45.502 -20.277   6.011  1.00  0.00     0.165 HD
HETATM   25  C   UNL     1      44.545 -18.553   5.229  1.00  0.00     0.106 A 
ENDBRANCH   2  16
TORSDOF 4
ENDMDL
MODEL 10
REMARK VINA RESULT:      -6.8      2.343      2.850
REMARK  4 active torsions:
REMARK  status: ('A' for Active; 'I' for Inactive)
REMARK    1  A    between atoms: C_4  and  C_5 
REMARK    2  A    between atoms: C_5  and  C_6 
REMARK       I    between atoms: C_6  and  N_7 
REMARK    3  A    between atoms: N_7  and  N_8 
REMARK       I    between atoms: N_8  and  C_9 
REMARK    4  A    between atoms: C_9  and  C_10 
ROOT
HETATM    1  N   UNL     1      43.058 -15.493   4.787  1.00  0.00    -0.263 N 
HETATM    2  C   UNL     1      42.717 -16.646   4.105  1.00  0.00     0.272 C 
HETATM    3  O   UNL     1      41.769 -16.668   3.319  1.00  0.00    -0.266 OA
HETATM    4  H   UNL     1      43.769 -15.466   5.512  1.00  0.00     0.190 HD
ENDROOT
BRANCH   1   5
HETATM    5  N   UNL     1      42.202 -14.386   4.718  1.00  0.00    -0.267 N 
HETATM    6  C   UNL     1      42.596 -13.315   3.944  1.00  0.00     0.240 C 
HETATM    7  O   UNL     1      43.590 -13.366   3.215  1.00  0.00    -0.271 OA
HETATM    8  H   UNL     1      41.465 -14.329   5.422  1.00  0.00     0.190 HD
BRANCH   6   9
HETATM    9  C   UNL     1      41.792 -12.043   4.129  1.00  0.00     0.150 C 
BRANCH   9  10
HETATM   10  C   UNL     1      40.800 -11.841   3.025  1.00  0.00    -0.008 A 
HETATM   11  S   UNL     1      39.494 -12.931   2.831  1.00  0.00    -0.099 SA
HETATM   12  C   UNL     1      38.853 -12.044   1.519  1.00  0.00    -0.021 A 
HETATM   13  C   UNL     1      37.601 -12.492   0.844  1.00  0.00     0.056 C 
HETATM   14  C   UNL     1      39.632 -10.946   1.220  1.00  0.00     0.015 A 
HETATM   15  C   UNL     1      40.753 -10.826   2.090  1.00  0.00     0.016 A 
ENDBRANCH   9  10
ENDBRANCH   6   9
ENDBRANCH   1   5
BRANCH   2  16
HETATM   16  C   UNL     1      43.546 -17.817   4.395  1.00  0.00     0.061 A 
HETATM   17  C   UNL     1      43.680 -18.995   3.581  1.00  0.00     0.008 A 
HETATM   18  C   UNL     1      44.550 -19.870   4.236  1.00  0.00     0.043 A 
HETATM   19  C   UNL     1      43.144 -19.401   2.340  1.00  0.00     0.015 A 
HETATM   20  C   UNL     1      44.902 -21.123   3.720  1.00  0.00     0.030 A 
HETATM   21  N   UNL     1      44.934 -19.258   5.404  1.00  0.00    -0.364 N 
HETATM   22  C   UNL     1      44.355 -21.496   2.490  1.00  0.00     0.002 A 
HETATM   23  C   UNL     1      43.488 -20.649   1.806  1.00  0.00     0.001 A 
HETATM   24  H   UNL     1      45.560 -19.667   6.083  1.00  0.00     0.165 HD
HETATM   25  C   UNL     1      44.343 -18.026   5.511  1.00  0.00     0.106 A 
ENDBRANCH   2  16
TORSDOF 4
ENDMDL
