MODEL 1
REMARK VINA RESULT:      -8.5      0.000      0.000
REMARK  8 active torsions:
REMARK  status: ('A' for Active; 'I' for Inactive)
REMARK    1  A    between atoms: C_2  and  O_3 
REMARK    2  A    between atoms: O_3  and  C_4 
REMARK    3  A    between atoms: C_4  and  C_5 
REMARK    4  A    between atoms: N_7  and  C_9 
REMARK    5  A    between atoms: C_9  and  C_10 
REMARK       I    between atoms: C_10  and  N_11 
REMARK    6  A    between atoms: N_11  and  C_12 
REMARK    7  A    between atoms: C_20  and  C_21 
REMARK       I    between atoms: C_21  and  N_22 
REMARK    8  A    between atoms: N_22  and  C_23 
ROOT
HETATM    1  C   UNL     1      41.048 -13.487   1.234  1.00  0.00     0.093 C 
HETATM    2  S   UNL     1      40.581 -12.323   0.093  1.00  0.00    -0.075 SA
HETATM    3  C   UNL     1      40.602 -13.454  -1.160  1.00  0.00    -0.008 C 
HETATM    4  C   UNL     1      40.940 -14.729  -0.735  1.00  0.00    -0.026 C 
HETATM    5  C   UNL     1      41.079 -15.837  -1.750  1.00  0.00     0.041 C 
HETATM    6  C   UNL     1      41.208 -15.313  -3.188  1.00  0.00     0.005 C 
HETATM    7  C   UNL     1      40.153 -14.244  -3.485  1.00  0.00     0.005 C 
HETATM    8  C   UNL     1      40.332 -13.027  -2.574  1.00  0.00     0.047 C 
HETATM    9  C   UNL     1      41.106 -14.782   0.716  1.00  0.00     0.073 C 
ENDROOT
BRANCH   1  10
HETATM   10  N   UNL     1      41.232 -13.106   2.561  1.00  0.00    -0.319 N 
HETATM   11  C   UNL     1      40.208 -12.841   3.439  1.00  0.00     0.248 C 
HETATM   12  O   UNL     1      39.002 -12.748   3.191  1.00  0.00    -0.271 OA
HETATM   13  H   UNL     1      42.167 -12.738   2.756  1.00  0.00     0.169 HD
BRANCH  11  14
HETATM   14  C   UNL     1      40.635 -12.623   4.893  1.00  0.00     0.337 C 
BRANCH  14  15
HETATM   15  N   UNL     1      41.617 -13.741   5.287  1.00  0.00    -0.062 N 
HETATM   16  C   UNL     1      42.839 -13.205   6.012  1.00  0.00     0.249 C 
HETATM   17  C   UNL     1      43.888 -14.310   6.122  1.00  0.00     0.111 C 
HETATM   18  C   UNL     1      43.300 -15.550   6.802  1.00  0.00     0.018 C 
HETATM   19  C   UNL     1      42.016 -16.016   6.118  1.00  0.00     0.029 C 
HETATM   20  C   UNL     1      40.986 -14.900   5.990  1.00  0.00     0.235 C 
HETATM   21  H   UNL     1      41.964 -14.062   4.362  1.00  0.00     0.280 HD
BRANCH  17  22
HETATM   22  C   UNL     1      45.067 -13.763   6.895  1.00  0.00     0.264 C 
HETATM   23  O   UNL     1      46.120 -13.428   6.372  1.00  0.00    -0.265 OA
BRANCH  22  24
HETATM   24  O   UNL     1      44.789 -13.731   8.222  1.00  0.00    -0.322 OA
BRANCH  24  25
HETATM   25  C   UNL     1      45.244 -12.571   8.941  1.00  0.00     0.174 C 
HETATM   26  C   UNL     1      44.094 -11.601   9.134  1.00  0.00     0.034 C 
ENDBRANCH  24  25
ENDBRANCH  22  24
ENDBRANCH  17  22
ENDBRANCH  14  15
ENDBRANCH  11  14
ENDBRANCH   1  10
BRANCH   9  27
HETATM   27  C   UNL     1      41.379 -15.926   1.621  1.00  0.00     0.259 C 
HETATM   28  N   UNL     1      42.604 -16.541   1.460  1.00  0.00    -0.323 N 
HETATM   29  H   UNL     1      43.184 -16.210   0.710  1.00  0.00     0.169 HD
HETATM   30  O   UNL     1      40.514 -16.283   2.423  1.00  0.00    -0.267 OA
BRANCH  28  31
HETATM   31  C   UNL     1      43.154 -17.611   2.195  1.00  0.00     0.035 A 
HETATM   32  C   UNL     1      43.639 -17.509   3.500  1.00  0.00     0.031 A 
HETATM   33  C   UNL     1      44.168 -18.633   4.149  1.00  0.00     0.026 A 
HETATM   34  C   UNL     1      44.223 -19.859   3.492  1.00  0.00     0.034 A 
HETATM   35 CL   UNL     1      44.879 -21.233   4.291  1.00  0.00    -0.084 Cl
HETATM   36  C   UNL     1      43.751 -19.975   2.189  1.00  0.00     0.026 A 
HETATM   37  C   UNL     1      43.214 -18.856   1.546  1.00  0.00     0.031 A 
ENDBRANCH  28  31
ENDBRANCH   9  27
TORSDOF 8
ENDMDL
MODEL 2
REMARK VINA RESULT:      -8.4      3.512      6.650
REMARK  8 active torsions:
REMARK  status: ('A' for Active; 'I' for Inactive)
REMARK    1  A    between atoms: C_2  and  O_3 
REMARK    2  A    between atoms: O_3  and  C_4 
REMARK    3  A    between atoms: C_4  and  C_5 
REMARK    4  A    between atoms: N_7  and  C_9 
REMARK    5  A    between atoms: C_9  and  C_10 
REMARK       I    between atoms: C_10  and  N_11 
REMARK    6  A    between atoms: N_11  and  C_12 
REMARK    7  A    between atoms: C_20  and  C_21 
REMARK       I    between atoms: C_21  and  N_22 
REMARK    8  A    between atoms: N_22  and  C_23 
ROOT
HETATM    1  C   UNL     1      43.781 -17.997   4.614  1.00  0.00     0.093 C 
HETATM    2  S   UNL     1      44.455 -19.324   5.427  1.00  0.00    -0.075 SA
HETATM    3  C   UNL     1      44.365 -20.293   4.048  1.00  0.00    -0.008 C 
HETATM    4  C   UNL     1      43.847 -19.627   2.949  1.00  0.00    -0.026 C 
HETATM    5  C   UNL     1      43.628 -20.380   1.660  1.00  0.00     0.041 C 
HETATM    6  C   UNL     1      43.650 -21.904   1.850  1.00  0.00     0.005 C 
HETATM    7  C   UNL     1      44.846 -22.340   2.701  1.00  0.00     0.005 C 
HETATM    8  C   UNL     1      44.768 -21.738   4.107  1.00  0.00     0.047 C 
HETATM    9  C   UNL     1      43.591 -18.219   3.249  1.00  0.00     0.073 C 
ENDROOT
BRANCH   1  10
HETATM   10  N   UNL     1      43.569 -16.808   5.307  1.00  0.00    -0.319 N 
HETATM   11  C   UNL     1      42.329 -16.323   5.650  1.00  0.00     0.248 C 
HETATM   12  O   UNL     1      41.225 -16.747   5.295  1.00  0.00    -0.271 OA
HETATM   13  H   UNL     1      44.367 -16.168   5.278  1.00  0.00     0.169 HD
BRANCH  11  14
HETATM   14  C   UNL     1      42.339 -15.099   6.570  1.00  0.00     0.337 C 
BRANCH  14  15
HETATM   15  N   UNL     1      41.623 -13.941   5.851  1.00  0.00    -0.062 N 
HETATM   16  C   UNL     1      42.048 -13.814   4.399  1.00  0.00     0.249 C 
HETATM   17  C   UNL     1      41.523 -12.496   3.832  1.00  0.00     0.111 C 
HETATM   18  C   UNL     1      40.006 -12.395   4.009  1.00  0.00     0.018 C 
HETATM   19  C   UNL     1      39.588 -12.624   5.461  1.00  0.00     0.029 C 
HETATM   20  C   UNL     1      40.137 -13.929   6.025  1.00  0.00     0.235 C 
HETATM   21  H   UNL     1      42.021 -13.109   6.329  1.00  0.00     0.280 HD
BRANCH  17  22
HETATM   22  C   UNL     1      41.915 -12.424   2.372  1.00  0.00     0.264 C 
HETATM   23  O   UNL     1      42.795 -13.111   1.875  1.00  0.00    -0.265 OA
BRANCH  22  24
HETATM   24  O   UNL     1      41.175 -11.485   1.730  1.00  0.00    -0.322 OA
BRANCH  24  25
HETATM   25  C   UNL     1      41.563 -11.181   0.380  1.00  0.00     0.174 C 
HETATM   26  C   UNL     1      40.577 -10.205  -0.234  1.00  0.00     0.034 C 
ENDBRANCH  24  25
ENDBRANCH  22  24
ENDBRANCH  17  22
ENDBRANCH  14  15
ENDBRANCH  11  14
ENDBRANCH   1  10
BRANCH   9  27
HETATM   27  C   UNL     1      43.125 -17.110   2.380  1.00  0.00     0.259 C 
HETATM   28  N   UNL     1      41.775 -17.097   2.094  1.00  0.00    -0.323 N 
HETATM   29  H   UNL     1      41.229 -17.866   2.442  1.00  0.00     0.169 HD
HETATM   30  O   UNL     1      43.943 -16.301   1.940  1.00  0.00    -0.267 OA
BRANCH  28  31
HETATM   31  C   UNL     1      41.044 -16.155   1.341  1.00  0.00     0.035 A 
HETATM   32  C   UNL     1      41.377 -15.746   0.049  1.00  0.00     0.031 A 
HETATM   33  C   UNL     1      40.586 -14.803  -0.621  1.00  0.00     0.026 A 
HETATM   34  C   UNL     1      39.466 -14.258   0.003  1.00  0.00     0.034 A 
HETATM   35 CL   UNL     1      38.503 -13.097  -0.821  1.00  0.00    -0.084 Cl
HETATM   36  C   UNL     1      39.126 -14.651   1.293  1.00  0.00     0.026 A 
HETATM   37  C   UNL     1      39.910 -15.600   1.956  1.00  0.00     0.031 A 
ENDBRANCH  28  31
ENDBRANCH   9  27
TORSDOF 8
ENDMDL
MODEL 3
REMARK VINA RESULT:      -8.3      2.630      4.512
REMARK  8 active torsions:
REMARK  status: ('A' for Active; 'I' for Inactive)
REMARK    1  A    between atoms: C_2  and  O_3 
REMARK    2  A    between atoms: O_3  and  C_4 
REMARK    3  A    between atoms: C_4  and  C_5 
REMARK    4  A    between atoms: N_7  and  C_9 
REMARK    5  A    between atoms: C_9  and  C_10 
REMARK       I    between atoms: C_10  and  N_11 
REMARK    6  A    between atoms: N_11  and  C_12 
REMARK    7  A    between atoms: C_20  and  C_21 
REMARK       I    between atoms: C_21  and  N_22 
REMARK    8  A    between atoms: N_22  and  C_23 
ROOT
HETATM    1  C   UNL     1      41.628 -13.967   5.219  1.00  0.00     0.093 C 
HETATM    2  S   UNL     1      40.983 -12.400   5.168  1.00  0.00    -0.075 SA
HETATM    3  C   UNL     1      40.065 -12.755   3.796  1.00  0.00    -0.008 C 
HETATM    4  C   UNL     1      40.213 -14.065   3.368  1.00  0.00    -0.026 C 
HETATM    5  C   UNL     1      39.519 -14.517   2.108  1.00  0.00     0.041 C 
HETATM    6  C   UNL     1      39.041 -13.344   1.239  1.00  0.00     0.005 C 
HETATM    7  C   UNL     1      38.313 -12.292   2.080  1.00  0.00     0.005 C 
HETATM    8  C   UNL     1      39.246 -11.687   3.132  1.00  0.00     0.047 C 
HETATM    9  C   UNL     1      41.067 -14.830   4.276  1.00  0.00     0.073 C 
ENDROOT
BRANCH   1  10
HETATM   10  N   UNL     1      42.550 -14.293   6.210  1.00  0.00    -0.319 N 
HETATM   11  C   UNL     1      43.900 -14.048   6.121  1.00  0.00     0.248 C 
HETATM   12  O   UNL     1      44.536 -13.654   5.139  1.00  0.00    -0.271 OA
HETATM   13  H   UNL     1      42.211 -14.998   6.870  1.00  0.00     0.169 HD
BRANCH  11  14
HETATM   14  C   UNL     1      44.697 -14.318   7.400  1.00  0.00     0.337 C 
BRANCH  14  15
HETATM   15  N   UNL     1      44.910 -12.981   8.135  1.00  0.00    -0.062 N 
HETATM   16  C   UNL     1      44.163 -12.925   9.455  1.00  0.00     0.249 C 
HETATM   17  C   UNL     1      44.185 -11.494   9.989  1.00  0.00     0.111 C 
HETATM   18  C   UNL     1      45.623 -10.981  10.107  1.00  0.00     0.018 C 
HETATM   19  C   UNL     1      46.390 -11.137   8.794  1.00  0.00     0.029 C 
HETATM   20  C   UNL     1      46.340 -12.563   8.257  1.00  0.00     0.235 C 
HETATM   21  H   UNL     1      44.419 -12.310   7.512  1.00  0.00     0.280 HD
BRANCH  17  22
HETATM   22  C   UNL     1      43.483 -11.480  11.328  1.00  0.00     0.264 C 
HETATM   23  O   UNL     1      43.693 -12.301  12.209  1.00  0.00    -0.265 OA
BRANCH  22  24
HETATM   24  O   UNL     1      42.591 -10.459  11.385  1.00  0.00    -0.322 OA
BRANCH  24  25
HETATM   25  C   UNL     1      43.062  -9.233  11.971  1.00  0.00     0.174 C 
HETATM   26  C   UNL     1      43.286  -9.426  13.459  1.00  0.00     0.034 C 
ENDBRANCH  24  25
ENDBRANCH  22  24
ENDBRANCH  17  22
ENDBRANCH  14  15
ENDBRANCH  11  14
ENDBRANCH   1  10
BRANCH   9  27
HETATM   27  C   UNL     1      41.439 -16.267   4.279  1.00  0.00     0.259 C 
HETATM   28  N   UNL     1      42.295 -16.668   3.273  1.00  0.00    -0.323 N 
HETATM   29  H   UNL     1      42.548 -15.978   2.588  1.00  0.00     0.169 HD
HETATM   30  O   UNL     1      40.955 -17.016   5.129  1.00  0.00    -0.267 OA
BRANCH  28  31
HETATM   31  C   UNL     1      42.851 -17.945   3.048  1.00  0.00     0.035 A 
HETATM   32  C   UNL     1      42.574 -18.743   1.937  1.00  0.00     0.031 A 
HETATM   33  C   UNL     1      43.179 -20.000   1.801  1.00  0.00     0.026 A 
HETATM   34  C   UNL     1      44.052 -20.467   2.779  1.00  0.00     0.034 A 
HETATM   35 CL   UNL     1      44.786 -22.012   2.610  1.00  0.00    -0.084 Cl
HETATM   36  C   UNL     1      44.332 -19.686   3.895  1.00  0.00     0.026 A 
HETATM   37  C   UNL     1      43.736 -18.427   4.025  1.00  0.00     0.031 A 
ENDBRANCH  28  31
ENDBRANCH   9  27
TORSDOF 8
ENDMDL
MODEL 4
REMARK VINA RESULT:      -8.2      3.466      7.004
REMARK  8 active torsions:
REMARK  status: ('A' for Active; 'I' for Inactive)
REMARK    1  A    between atoms: C_2  and  O_3 
REMARK    2  A    between atoms: O_3  and  C_4 
REMARK    3  A    between atoms: C_4  and  C_5 
REMARK    4  A    between atoms: N_7  and  C_9 
REMARK    5  A    between atoms: C_9  and  C_10 
REMARK       I    between atoms: C_10  and  N_11 
REMARK    6  A    between atoms: N_11  and  C_12 
REMARK    7  A    between atoms: C_20  and  C_21 
REMARK       I    between atoms: C_21  and  N_22 
REMARK    8  A    between atoms: N_22  and  C_23 
ROOT
HETATM    1  C   UNL     1      41.677 -17.178   4.565  1.00  0.00     0.093 C 
HETATM    2  S   UNL     1      42.713 -18.001   5.625  1.00  0.00    -0.075 SA
HETATM    3  C   UNL     1      43.377 -18.911   4.367  1.00  0.00    -0.008 C 
HETATM    4  C   UNL     1      42.845 -18.593   3.127  1.00  0.00    -0.026 C 
HETATM    5  C   UNL     1      43.278 -19.374   1.911  1.00  0.00     0.041 C 
HETATM    6  C   UNL     1      43.976 -20.695   2.270  1.00  0.00     0.005 C 
HETATM    7  C   UNL     1      45.032 -20.486   3.359  1.00  0.00     0.005 C 
HETATM    8  C   UNL     1      44.392 -19.979   4.654  1.00  0.00     0.047 C 
HETATM    9  C   UNL     1      41.900 -17.482   3.221  1.00  0.00     0.073 C 
ENDROOT
BRANCH   1  10
HETATM   10  N   UNL     1      40.792 -16.231   5.075  1.00  0.00    -0.319 N 
HETATM   11  C   UNL     1      41.059 -14.884   5.149  1.00  0.00     0.248 C 
HETATM   12  O   UNL     1      42.130 -14.311   4.930  1.00  0.00    -0.271 OA
HETATM   13  H   UNL     1      40.062 -16.631   5.670  1.00  0.00     0.169 HD
BRANCH  11  14
HETATM   14  C   UNL     1      39.876 -14.008   5.569  1.00  0.00     0.337 C 
BRANCH  14  15
HETATM   15  N   UNL     1      40.022 -12.633   4.892  1.00  0.00    -0.062 N 
HETATM   16  C   UNL     1      39.251 -12.548   3.587  1.00  0.00     0.249 C 
HETATM   17  C   UNL     1      39.659 -11.280   2.838  1.00  0.00     0.111 C 
HETATM   18  C   UNL     1      39.459 -10.043   3.718  1.00  0.00     0.018 C 
HETATM   19  C   UNL     1      40.161 -10.188   5.068  1.00  0.00     0.029 C 
HETATM   20  C   UNL     1      39.766 -11.468   5.795  1.00  0.00     0.235 C 
HETATM   21  H   UNL     1      41.024 -12.629   4.620  1.00  0.00     0.280 HD
BRANCH  17  22
HETATM   22  C   UNL     1      38.836 -11.197   1.572  1.00  0.00     0.264 C 
HETATM   23  O   UNL     1      39.178 -10.561   0.585  1.00  0.00    -0.265 OA
BRANCH  22  24
HETATM   24  O   UNL     1      37.681 -11.896   1.711  1.00  0.00    -0.322 OA
BRANCH  24  25
HETATM   25  C   UNL     1      37.213 -12.592   0.543  1.00  0.00     0.174 C 
HETATM   26  C   UNL     1      37.616 -14.053   0.619  1.00  0.00     0.034 C 
ENDBRANCH  24  25
ENDBRANCH  22  24
ENDBRANCH  17  22
ENDBRANCH  14  15
ENDBRANCH  11  14
ENDBRANCH   1  10
BRANCH   9  27
HETATM   27  C   UNL     1      41.156 -16.748   2.166  1.00  0.00     0.259 C 
HETATM   28  N   UNL     1      41.921 -15.966   1.326  1.00  0.00    -0.323 N 
HETATM   29  H   UNL     1      42.903 -15.904   1.529  1.00  0.00     0.169 HD
HETATM   30  O   UNL     1      39.929 -16.842   2.115  1.00  0.00    -0.267 OA
BRANCH  28  31
HETATM   31  C   UNL     1      41.505 -15.198   0.218  1.00  0.00     0.035 A 
HETATM   32  C   UNL     1      41.340 -13.812   0.234  1.00  0.00     0.031 A 
HETATM   33  C   UNL     1      40.924 -13.136  -0.921  1.00  0.00     0.026 A 
HETATM   34  C   UNL     1      40.661 -13.844  -2.091  1.00  0.00     0.034 A 
HETATM   35 CL   UNL     1      40.144 -13.010  -3.502  1.00  0.00    -0.084 Cl
HETATM   36  C   UNL     1      40.814 -15.226  -2.119  1.00  0.00     0.026 A 
HETATM   37  C   UNL     1      41.240 -15.898  -0.970  1.00  0.00     0.031 A 
ENDBRANCH  28  31
ENDBRANCH   9  27
TORSDOF 8
ENDMDL
MODEL 5
REMARK VINA RESULT:      -8.0      3.453      6.300
REMARK  8 active torsions:
REMARK  status: ('A' for Active; 'I' for Inactive)
REMARK    1  A    between atoms: C_2  and  O_3 
REMARK    2  A    between atoms: O_3  and  C_4 
REMARK    3  A    between atoms: C_4  and  C_5 
REMARK    4  A    between atoms: N_7  and  C_9 
REMARK    5  A    between atoms: C_9  and  C_10 
REMARK       I    between atoms: C_10  and  N_11 
REMARK    6  A    between atoms: N_11  and  C_12 
REMARK    7  A    between atoms: C_20  and  C_21 
REMARK       I    between atoms: C_21  and  N_22 
REMARK    8  A    between atoms: N_22  and  C_23 
ROOT
HETATM    1  C   UNL     1      43.171 -14.599   5.726  1.00  0.00     0.093 C 
HETATM    2  S   UNL     1      43.959 -15.403   6.994  1.00  0.00    -0.075 SA
HETATM    3  C   UNL     1      44.135 -16.809   6.075  1.00  0.00    -0.008 C 
HETATM    4  C   UNL     1      43.623 -16.687   4.792  1.00  0.00    -0.026 C 
HETATM    5  C   UNL     1      43.633 -17.882   3.872  1.00  0.00     0.041 C 
HETATM    6  C   UNL     1      43.862 -19.205   4.619  1.00  0.00     0.005 C 
HETATM    7  C   UNL     1      45.030 -19.091   5.604  1.00  0.00     0.005 C 
HETATM    8  C   UNL     1      44.740 -18.042   6.680  1.00  0.00     0.047 C 
HETATM    9  C   UNL     1      43.137 -15.332   4.538  1.00  0.00     0.073 C 
ENDROOT
BRANCH   1  10
HETATM   10  N   UNL     1      42.726 -13.294   5.919  1.00  0.00    -0.319 N 
HETATM   11  C   UNL     1      41.402 -12.924   5.943  1.00  0.00     0.248 C 
HETATM   12  O   UNL     1      40.417 -13.614   5.662  1.00  0.00    -0.271 OA
HETATM   13  H   UNL     1      43.441 -12.585   5.736  1.00  0.00     0.169 HD
BRANCH  11  14
HETATM   14  C   UNL     1      41.137 -11.473   6.355  1.00  0.00     0.337 C 
BRANCH  14  15
HETATM   15  N   UNL     1      41.128 -11.395   7.892  1.00  0.00    -0.062 N 
HETATM   16  C   UNL     1      42.417 -10.817   8.447  1.00  0.00     0.249 C 
HETATM   17  C   UNL     1      42.456 -11.026   9.960  1.00  0.00     0.111 C 
HETATM   18  C   UNL     1      41.213 -10.427  10.622  1.00  0.00     0.018 C 
HETATM   19  C   UNL     1      39.924 -10.947   9.984  1.00  0.00     0.029 C 
HETATM   20  C   UNL     1      39.906 -10.756   8.472  1.00  0.00     0.235 C 
HETATM   21  H   UNL     1      41.138 -12.399   8.161  1.00  0.00     0.280 HD
BRANCH  17  22
HETATM   22  C   UNL     1      43.723 -10.392  10.489  1.00  0.00     0.264 C 
HETATM   23  O   UNL     1      43.814  -9.889  11.600  1.00  0.00    -0.265 OA
BRANCH  22  24
HETATM   24  O   UNL     1      44.705 -10.444   9.554  1.00  0.00    -0.322 OA
BRANCH  24  25
HETATM   25  C   UNL     1      45.763 -11.388   9.792  1.00  0.00     0.174 C 
HETATM   26  C   UNL     1      46.141 -12.076   8.494  1.00  0.00     0.034 C 
ENDBRANCH  24  25
ENDBRANCH  22  24
ENDBRANCH  17  22
ENDBRANCH  14  15
ENDBRANCH  11  14
ENDBRANCH   1  10
BRANCH   9  27
HETATM   27  C   UNL     1      42.591 -14.711   3.305  1.00  0.00     0.259 C 
HETATM   28  N   UNL     1      41.392 -15.224   2.855  1.00  0.00    -0.323 N 
HETATM   29  H   UNL     1      41.016 -16.010   3.356  1.00  0.00     0.169 HD
HETATM   30  O   UNL     1      43.230 -13.822   2.741  1.00  0.00    -0.267 OA
BRANCH  28  31
HETATM   31  C   UNL     1      40.618 -14.813   1.750  1.00  0.00     0.035 A 
HETATM   32  C   UNL     1      41.072 -14.796   0.430  1.00  0.00     0.031 A 
HETATM   33  C   UNL     1      40.226 -14.371  -0.604  1.00  0.00     0.026 A 
HETATM   34  C   UNL     1      38.929 -13.951  -0.320  1.00  0.00     0.034 A 
HETATM   35 CL   UNL     1      37.898 -13.424  -1.590  1.00  0.00    -0.084 Cl
HETATM   36  C   UNL     1      38.466 -13.956   0.992  1.00  0.00     0.026 A 
HETATM   37  C   UNL     1      39.307 -14.390   2.021  1.00  0.00     0.031 A 
ENDBRANCH  28  31
ENDBRANCH   9  27
TORSDOF 8
ENDMDL
MODEL 6
REMARK VINA RESULT:      -7.8      3.686      8.101
REMARK  8 active torsions:
REMARK  status: ('A' for Active; 'I' for Inactive)
REMARK    1  A    between atoms: C_2  and  O_3 
REMARK    2  A    between atoms: O_3  and  C_4 
REMARK    3  A    between atoms: C_4  and  C_5 
REMARK    4  A    between atoms: N_7  and  C_9 
REMARK    5  A    between atoms: C_9  and  C_10 
REMARK       I    between atoms: C_10  and  N_11 
REMARK    6  A    between atoms: N_11  and  C_12 
REMARK    7  A    between atoms: C_20  and  C_21 
REMARK       I    between atoms: C_21  and  N_22 
REMARK    8  A    between atoms: N_22  and  C_23 
ROOT
HETATM    1  C   UNL     1      43.134 -17.460   1.988  1.00  0.00     0.093 C 
HETATM    2  S   UNL     1      43.607 -19.081   2.148  1.00  0.00    -0.075 SA
HETATM    3  C   UNL     1      43.929 -18.889   3.794  1.00  0.00    -0.008 C 
HETATM    4  C   UNL     1      43.666 -17.608   4.253  1.00  0.00    -0.026 C 
HETATM    5  C   UNL     1      43.978 -17.255   5.686  1.00  0.00     0.041 C 
HETATM    6  C   UNL     1      44.920 -18.267   6.356  1.00  0.00     0.005 C 
HETATM    7  C   UNL     1      44.469 -19.706   6.090  1.00  0.00     0.005 C 
HETATM    8  C   UNL     1      44.501 -20.024   4.593  1.00  0.00     0.047 C 
HETATM    9  C   UNL     1      43.089 -16.772   3.202  1.00  0.00     0.073 C 
ENDROOT
BRANCH   1  10
HETATM   10  N   UNL     1      42.748 -16.982   0.739  1.00  0.00    -0.319 N 
HETATM   11  C   UNL     1      41.459 -16.640   0.406  1.00  0.00     0.248 C 
HETATM   12  O   UNL     1      40.432 -16.825   1.066  1.00  0.00    -0.271 OA
HETATM   13  H   UNL     1      43.419 -17.190  -0.006  1.00  0.00     0.169 HD
BRANCH  11  14
HETATM   14  C   UNL     1      41.294 -15.963  -0.957  1.00  0.00     0.337 C 
BRANCH  14  15
HETATM   15  N   UNL     1      40.872 -14.500  -0.729  1.00  0.00    -0.062 N 
HETATM   16  C   UNL     1      41.975 -13.520  -1.086  1.00  0.00     0.249 C 
HETATM   17  C   UNL     1      41.600 -12.129  -0.579  1.00  0.00     0.111 C 
HETATM   18  C   UNL     1      40.235 -11.701  -1.127  1.00  0.00     0.018 C 
HETATM   19  C   UNL     1      39.157 -12.747  -0.843  1.00  0.00     0.029 C 
HETATM   20  C   UNL     1      39.552 -14.136  -1.331  1.00  0.00     0.235 C 
HETATM   21  H   UNL     1      40.789 -14.457   0.306  1.00  0.00     0.280 HD
BRANCH  17  22
HETATM   22  C   UNL     1      42.689 -11.166  -0.997  1.00  0.00     0.264 C 
HETATM   23  O   UNL     1      43.228 -10.382  -0.230  1.00  0.00    -0.265 OA
BRANCH  22  24
HETATM   24  O   UNL     1      42.945 -11.290  -2.324  1.00  0.00    -0.322 OA
BRANCH  24  25
HETATM   25  C   UNL     1      42.782 -10.102  -3.118  1.00  0.00     0.174 C 
HETATM   26  C   UNL     1      42.384 -10.479  -4.533  1.00  0.00     0.034 C 
ENDBRANCH  24  25
ENDBRANCH  22  24
ENDBRANCH  17  22
ENDBRANCH  14  15
ENDBRANCH  11  14
ENDBRANCH   1  10
BRANCH   9  27
HETATM   27  C   UNL     1      42.574 -15.381   3.241  1.00  0.00     0.259 C 
HETATM   28  N   UNL     1      41.265 -15.236   3.651  1.00  0.00    -0.323 N 
HETATM   29  H   UNL     1      40.747 -16.079   3.830  1.00  0.00     0.169 HD
HETATM   30  O   UNL     1      43.304 -14.454   2.885  1.00  0.00    -0.267 OA
BRANCH  28  31
HETATM   31  C   UNL     1      40.524 -14.049   3.828  1.00  0.00     0.035 A 
HETATM   32  C   UNL     1      40.452 -13.333   5.024  1.00  0.00     0.031 A 
HETATM   33  C   UNL     1      39.688 -12.160   5.102  1.00  0.00     0.026 A 
HETATM   34  C   UNL     1      38.986 -11.706   3.988  1.00  0.00     0.034 A 
HETATM   35 CL   UNL     1      38.046 -10.271   4.091  1.00  0.00    -0.084 Cl
HETATM   36  C   UNL     1      39.043 -12.413   2.792  1.00  0.00     0.026 A 
HETATM   37  C   UNL     1      39.813 -13.578   2.713  1.00  0.00     0.031 A 
ENDBRANCH  28  31
ENDBRANCH   9  27
TORSDOF 8
ENDMDL
MODEL 7
REMARK VINA RESULT:      -7.8      4.314      9.503
REMARK  8 active torsions:
REMARK  status: ('A' for Active; 'I' for Inactive)
REMARK    1  A    between atoms: C_2  and  O_3 
REMARK    2  A    between atoms: O_3  and  C_4 
REMARK    3  A    between atoms: C_4  and  C_5 
REMARK    4  A    between atoms: N_7  and  C_9 
REMARK    5  A    between atoms: C_9  and  C_10 
REMARK       I    between atoms: C_10  and  N_11 
REMARK    6  A    between atoms: N_11  and  C_12 
REMARK    7  A    between atoms: C_20  and  C_21 
REMARK       I    between atoms: C_21  and  N_22 
REMARK    8  A    between atoms: N_22  and  C_23 
ROOT
HETATM    1  C   UNL     1      43.521 -11.665   9.632  1.00  0.00     0.093 C 
HETATM    2  S   UNL     1      44.034 -11.951  11.222  1.00  0.00    -0.075 SA
HETATM    3  C   UNL     1      43.251 -10.567  11.790  1.00  0.00    -0.008 C 
HETATM    4  C   UNL     1      42.573  -9.880  10.795  1.00  0.00    -0.026 C 
HETATM    5  C   UNL     1      41.888  -8.578  11.126  1.00  0.00     0.041 C 
HETATM    6  C   UNL     1      42.363  -7.979  12.458  1.00  0.00     0.005 C 
HETATM    7  C   UNL     1      42.390  -9.037  13.565  1.00  0.00     0.005 C 
HETATM    8  C   UNL     1      43.378 -10.158  13.228  1.00  0.00     0.047 C 
HETATM    9  C   UNL     1      42.641 -10.587   9.517  1.00  0.00     0.073 C 
ENDROOT
BRANCH   1  10
HETATM   10  N   UNL     1      43.912 -12.539   8.621  1.00  0.00    -0.319 N 
HETATM   11  C   UNL     1      45.201 -12.658   8.157  1.00  0.00     0.248 C 
HETATM   12  O   UNL     1      46.171 -11.944   8.425  1.00  0.00    -0.271 OA
HETATM   13  H   UNL     1      43.137 -12.865   8.038  1.00  0.00     0.169 HD
BRANCH  11  14
HETATM   14  C   UNL     1      45.437 -13.810   7.176  1.00  0.00     0.337 C 
BRANCH  14  15
HETATM   15  N   UNL     1      44.095 -14.519   6.922  1.00  0.00    -0.062 N 
HETATM   16  C   UNL     1      43.523 -14.195   5.553  1.00  0.00     0.249 C 
HETATM   17  C   UNL     1      42.082 -14.694   5.475  1.00  0.00     0.111 C 
HETATM   18  C   UNL     1      42.006 -16.187   5.803  1.00  0.00     0.018 C 
HETATM   19  C   UNL     1      42.674 -16.509   7.139  1.00  0.00     0.029 C 
HETATM   20  C   UNL     1      44.103 -15.985   7.216  1.00  0.00     0.235 C 
HETATM   21  H   UNL     1      43.467 -14.046   7.601  1.00  0.00     0.280 HD
BRANCH  17  22
HETATM   22  C   UNL     1      41.559 -14.407   4.085  1.00  0.00     0.264 C 
HETATM   23  O   UNL     1      42.170 -13.746   3.257  1.00  0.00    -0.265 OA
BRANCH  22  24
HETATM   24  O   UNL     1      40.331 -14.959   3.917  1.00  0.00    -0.322 OA
BRANCH  24  25
HETATM   25  C   UNL     1      39.865 -15.079   2.562  1.00  0.00     0.174 C 
HETATM   26  C   UNL     1      40.186 -16.462   2.027  1.00  0.00     0.034 C 
ENDBRANCH  24  25
ENDBRANCH  22  24
ENDBRANCH  17  22
ENDBRANCH  14  15
ENDBRANCH  11  14
ENDBRANCH   1  10
BRANCH   9  27
HETATM   27  C   UNL     1      42.008 -10.290   8.208  1.00  0.00     0.259 C 
HETATM   28  N   UNL     1      41.467 -11.371   7.543  1.00  0.00    -0.323 N 
HETATM   29  H   UNL     1      41.597 -12.275   7.962  1.00  0.00     0.169 HD
HETATM   30  O   UNL     1      42.025  -9.136   7.775  1.00  0.00    -0.267 OA
BRANCH  28  31
HETATM   31  C   UNL     1      40.770 -11.391   6.316  1.00  0.00     0.035 A 
HETATM   32  C   UNL     1      41.215 -10.779   5.144  1.00  0.00     0.031 A 
HETATM   33  C   UNL     1      40.452 -10.855   3.971  1.00  0.00     0.026 A 
HETATM   34  C   UNL     1      39.236 -11.534   3.970  1.00  0.00     0.034 A 
HETATM   35 CL   UNL     1      38.300 -11.619   2.531  1.00  0.00    -0.084 Cl
HETATM   36  C   UNL     1      38.776 -12.143   5.133  1.00  0.00     0.026 A 
HETATM   37  C   UNL     1      39.544 -12.075   6.300  1.00  0.00     0.031 A 
ENDBRANCH  28  31
ENDBRANCH   9  27
TORSDOF 8
ENDMDL
MODEL 8
REMARK VINA RESULT:      -7.7      3.349      7.539
REMARK  8 active torsions:
REMARK  status: ('A' for Active; 'I' for Inactive)
REMARK    1  A    between atoms: C_2  and  O_3 
REMARK    2  A    between atoms: O_3  and  C_4 
REMARK    3  A    between atoms: C_4  and  C_5 
REMARK    4  A    between atoms: N_7  and  C_9 
REMARK    5  A    between atoms: C_9  and  C_10 
REMARK       I    between atoms: C_10  and  N_11 
REMARK    6  A    between atoms: N_11  and  C_12 
REMARK    7  A    between atoms: C_20  and  C_21 
REMARK       I    between atoms: C_21  and  N_22 
REMARK    8  A    between atoms: N_22  and  C_23 
ROOT
HETATM    1  C   UNL     1      43.229 -17.352   1.924  1.00  0.00     0.093 C 
HETATM    2  S   UNL     1      43.636 -18.991   1.777  1.00  0.00    -0.075 SA
HETATM    3  C   UNL     1      44.024 -19.106   3.416  1.00  0.00    -0.008 C 
HETATM    4  C   UNL     1      43.834 -17.917   4.104  1.00  0.00    -0.026 C 
HETATM    5  C   UNL     1      44.212 -17.835   5.562  1.00  0.00     0.041 C 
HETATM    6  C   UNL     1      45.132 -18.983   6.004  1.00  0.00     0.005 C 
HETATM    7  C   UNL     1      44.608 -20.335   5.509  1.00  0.00     0.005 C 
HETATM    8  C   UNL     1      44.574 -20.384   3.980  1.00  0.00     0.047 C 
HETATM    9  C   UNL     1      43.257 -16.888   3.241  1.00  0.00     0.073 C 
ENDROOT
BRANCH   1  10
HETATM   10  N   UNL     1      42.821 -16.646   0.796  1.00  0.00    -0.319 N 
HETATM   11  C   UNL     1      41.542 -16.668   0.291  1.00  0.00     0.248 C 
HETATM   12  O   UNL     1      40.605 -17.395   0.634  1.00  0.00    -0.271 OA
HETATM   13  H   UNL     1      43.593 -16.357   0.190  1.00  0.00     0.169 HD
BRANCH  11  14
HETATM   14  C   UNL     1      41.271 -15.675  -0.842  1.00  0.00     0.337 C 
BRANCH  14  15
HETATM   15  N   UNL     1      40.057 -14.811  -0.455  1.00  0.00    -0.062 N 
HETATM   16  C   UNL     1      40.364 -13.870   0.696  1.00  0.00     0.249 C 
HETATM   17  C   UNL     1      39.063 -13.254   1.208  1.00  0.00     0.111 C 
HETATM   18  C   UNL     1      38.305 -12.563   0.072  1.00  0.00     0.018 C 
HETATM   19  C   UNL     1      38.092 -13.497  -1.119  1.00  0.00     0.029 C 
HETATM   20  C   UNL     1      39.393 -14.125  -1.606  1.00  0.00     0.235 C 
HETATM   21  H   UNL     1      39.402 -15.517  -0.065  1.00  0.00     0.280 HD
BRANCH  17  22
HETATM   22  C   UNL     1      39.406 -12.282   2.315  1.00  0.00     0.264 C 
HETATM   23  O   UNL     1      40.550 -11.955   2.595  1.00  0.00    -0.265 OA
BRANCH  22  24
HETATM   24  O   UNL     1      38.279 -11.865   2.944  1.00  0.00    -0.322 OA
BRANCH  24  25
HETATM   25  C   UNL     1      38.279 -10.508   3.419  1.00  0.00     0.174 C 
HETATM   26  C   UNL     1      37.801  -9.577   2.321  1.00  0.00     0.034 C 
ENDBRANCH  24  25
ENDBRANCH  22  24
ENDBRANCH  17  22
ENDBRANCH  14  15
ENDBRANCH  11  14
ENDBRANCH   1  10
BRANCH   9  27
HETATM   27  C   UNL     1      42.806 -15.507   3.545  1.00  0.00     0.259 C 
HETATM   28  N   UNL     1      42.018 -15.367   4.669  1.00  0.00    -0.323 N 
HETATM   29  H   UNL     1      41.761 -16.209   5.154  1.00  0.00     0.169 HD
HETATM   30  O   UNL     1      43.117 -14.587   2.787  1.00  0.00    -0.267 OA
BRANCH  28  31
HETATM   31  C   UNL     1      41.483 -14.187   5.227  1.00  0.00     0.035 A 
HETATM   32  C   UNL     1      42.235 -13.063   5.571  1.00  0.00     0.031 A 
HETATM   33  C   UNL     1      41.611 -11.934   6.120  1.00  0.00     0.026 A 
HETATM   34  C   UNL     1      40.236 -11.931   6.337  1.00  0.00     0.034 A 
HETATM   35 CL   UNL     1      39.476 -10.547   7.017  1.00  0.00    -0.084 Cl
HETATM   36  C   UNL     1      39.474 -13.046   6.006  1.00  0.00     0.026 A 
HETATM   37  C   UNL     1      40.096 -14.168   5.449  1.00  0.00     0.031 A 
ENDBRANCH  28  31
ENDBRANCH   9  27
TORSDOF 8
ENDMDL
MODEL 9
REMARK VINA RESULT:      -7.6      3.745      9.255
REMARK  8 active torsions:
REMARK  status: ('A' for Active; 'I' for Inactive)
REMARK    1  A    between atoms: C_2  and  O_3 
REMARK    2  A    between atoms: O_3  and  C_4 
REMARK    3  A    between atoms: C_4  and  C_5 
REMARK    4  A    between atoms: N_7  and  C_9 
REMARK    5  A    between atoms: C_9  and  C_10 
REMARK       I    between atoms: C_10  and  N_11 
REMARK    6  A    between atoms: N_11  and  C_12 
REMARK    7  A    between atoms: C_20  and  C_21 
REMARK       I    between atoms: C_21  and  N_22 
REMARK    8  A    between atoms: N_22  and  C_23 
ROOT
HETATM    1  C   UNL     1      43.136 -16.647   1.810  1.00  0.00     0.093 C 
HETATM    2  S   UNL     1      43.402 -18.306   1.577  1.00  0.00    -0.075 SA
HETATM    3  C   UNL     1      43.814 -18.531   3.199  1.00  0.00    -0.008 C 
HETATM    4  C   UNL     1      43.736 -17.365   3.946  1.00  0.00    -0.026 C 
HETATM    5  C   UNL     1      44.149 -17.385   5.397  1.00  0.00     0.041 C 
HETATM    6  C   UNL     1      44.979 -18.624   5.762  1.00  0.00     0.005 C 
HETATM    7  C   UNL     1      44.337 -19.903   5.218  1.00  0.00     0.005 C 
HETATM    8  C   UNL     1      44.267 -19.875   3.689  1.00  0.00     0.047 C 
HETATM    9  C   UNL     1      43.229 -16.252   3.146  1.00  0.00     0.073 C 
ENDROOT
BRANCH   1  10
HETATM   10  N   UNL     1      42.764 -15.857   0.726  1.00  0.00    -0.319 N 
HETATM   11  C   UNL     1      41.469 -15.488   0.446  1.00  0.00     0.248 C 
HETATM   12  O   UNL     1      40.434 -15.890   0.985  1.00  0.00    -0.271 OA
HETATM   13  H   UNL     1      43.466 -15.823  -0.017  1.00  0.00     0.169 HD
BRANCH  11  14
HETATM   14  C   UNL     1      41.312 -14.467  -0.683  1.00  0.00     0.337 C 
BRANCH  14  15
HETATM   15  N   UNL     1      40.253 -14.989  -1.671  1.00  0.00    -0.062 N 
HETATM   16  C   UNL     1      39.321 -13.891  -2.150  1.00  0.00     0.249 C 
HETATM   17  C   UNL     1      38.141 -14.516  -2.893  1.00  0.00     0.111 C 
HETATM   18  C   UNL     1      38.631 -15.408  -4.037  1.00  0.00     0.018 C 
HETATM   19  C   UNL     1      39.645 -16.444  -3.553  1.00  0.00     0.029 C 
HETATM   20  C   UNL     1      40.805 -15.813  -2.791  1.00  0.00     0.235 C 
HETATM   21  H   UNL     1      39.671 -15.599  -1.065  1.00  0.00     0.280 HD
BRANCH  17  22
HETATM   22  C   UNL     1      37.261 -13.397  -3.404  1.00  0.00     0.264 C 
HETATM   23  O   UNL     1      37.214 -12.287  -2.892  1.00  0.00    -0.265 OA
BRANCH  22  24
HETATM   24  O   UNL     1      36.535 -13.816  -4.471  1.00  0.00    -0.322 OA
BRANCH  24  25
HETATM   25  C   UNL     1      35.765 -12.811  -5.153  1.00  0.00     0.174 C 
HETATM   26  C   UNL     1      34.299 -12.949  -4.790  1.00  0.00     0.034 C 
ENDBRANCH  24  25
ENDBRANCH  22  24
ENDBRANCH  17  22
ENDBRANCH  14  15
ENDBRANCH  11  14
ENDBRANCH   1  10
BRANCH   9  27
HETATM   27  C   UNL     1      42.899 -14.855   3.525  1.00  0.00     0.259 C 
HETATM   28  N   UNL     1      41.819 -14.701   4.370  1.00  0.00    -0.323 N 
HETATM   29  H   UNL     1      41.306 -15.532   4.610  1.00  0.00     0.169 HD
HETATM   30  O   UNL     1      43.561 -13.928   3.057  1.00  0.00    -0.267 OA
BRANCH  28  31
HETATM   31  C   UNL     1      41.301 -13.515   4.929  1.00  0.00     0.035 A 
HETATM   32  C   UNL     1      41.961 -12.736   5.882  1.00  0.00     0.031 A 
HETATM   33  C   UNL     1      41.364 -11.569   6.379  1.00  0.00     0.026 A 
HETATM   34  C   UNL     1      40.103 -11.184   5.934  1.00  0.00     0.034 A 
HETATM   35 CL   UNL     1      39.373  -9.755   6.551  1.00  0.00    -0.084 Cl
HETATM   36  C   UNL     1      39.430 -11.953   4.990  1.00  0.00     0.026 A 
HETATM   37  C   UNL     1      40.031 -13.111   4.487  1.00  0.00     0.031 A 
ENDBRANCH  28  31
ENDBRANCH   9  27
TORSDOF 8
ENDMDL
MODEL 10
REMARK VINA RESULT:      -7.6      2.252      2.908
REMARK  8 active torsions:
REMARK  status: ('A' for Active; 'I' for Inactive)
REMARK    1  A    between atoms: C_2  and  O_3 
REMARK    2  A    between atoms: O_3  and  C_4 
REMARK    3  A    between atoms: C_4  and  C_5 
REMARK    4  A    between atoms: N_7  and  C_9 
REMARK    5  A    between atoms: C_9  and  C_10 
REMARK       I    between atoms: C_10  and  N_11 
REMARK    6  A    between atoms: N_11  and  C_12 
REMARK    7  A    between atoms: C_20  and  C_21 
REMARK       I    between atoms: C_21  and  N_22 
REMARK    8  A    between atoms: N_22  and  C_23 
ROOT
HETATM    1  C   UNL     1      39.631 -13.275   0.116  1.00  0.00     0.093 C 
HETATM    2  S   UNL     1      38.265 -12.804  -0.771  1.00  0.00    -0.075 SA
HETATM    3  C   UNL     1      38.567 -13.958  -1.966  1.00  0.00    -0.008 C 
HETATM    4  C   UNL     1      39.688 -14.730  -1.705  1.00  0.00    -0.026 C 
HETATM    5  C   UNL     1      40.136 -15.754  -2.718  1.00  0.00     0.041 C 
HETATM    6  C   UNL     1      39.505 -15.537  -4.102  1.00  0.00     0.005 C 
HETATM    7  C   UNL     1      37.996 -15.299  -3.993  1.00  0.00     0.005 C 
HETATM    8  C   UNL     1      37.697 -14.033  -3.187  1.00  0.00     0.047 C 
HETATM    9  C   UNL     1      40.273 -14.399  -0.407  1.00  0.00     0.073 C 
ENDROOT
BRANCH   1  10
HETATM   10  N   UNL     1      39.942 -12.605   1.296  1.00  0.00    -0.319 N 
HETATM   11  C   UNL     1      39.692 -13.100   2.554  1.00  0.00     0.248 C 
HETATM   12  O   UNL     1      39.044 -14.105   2.858  1.00  0.00    -0.271 OA
HETATM   13  H   UNL     1      40.085 -11.600   1.172  1.00  0.00     0.169 HD
BRANCH  11  14
HETATM   14  C   UNL     1      40.285 -12.283   3.706  1.00  0.00     0.337 C 
BRANCH  14  15
HETATM   15  N   UNL     1      41.424 -13.096   4.346  1.00  0.00    -0.062 N 
HETATM   16  C   UNL     1      40.939 -14.415   4.920  1.00  0.00     0.249 C 
HETATM   17  C   UNL     1      42.044 -15.032   5.775  1.00  0.00     0.111 C 
HETATM   18  C   UNL     1      43.335 -15.185   4.966  1.00  0.00     0.018 C 
HETATM   19  C   UNL     1      43.755 -13.868   4.314  1.00  0.00     0.029 C 
HETATM   20  C   UNL     1      42.637 -13.247   3.484  1.00  0.00     0.235 C 
HETATM   21  H   UNL     1      41.672 -12.512   5.169  1.00  0.00     0.280 HD
BRANCH  17  22
HETATM   22  C   UNL     1      41.552 -16.368   6.286  1.00  0.00     0.264 C 
HETATM   23  O   UNL     1      40.373 -16.623   6.484  1.00  0.00    -0.265 OA
BRANCH  22  24
HETATM   24  O   UNL     1      42.598 -17.204   6.510  1.00  0.00    -0.322 OA
BRANCH  24  25
HETATM   25  C   UNL     1      42.970 -17.406   7.884  1.00  0.00     0.174 C 
HETATM   26  C   UNL     1      44.238 -18.236   7.957  1.00  0.00     0.034 C 
ENDBRANCH  24  25
ENDBRANCH  22  24
ENDBRANCH  17  22
ENDBRANCH  14  15
ENDBRANCH  11  14
ENDBRANCH   1  10
BRANCH   9  27
HETATM   27  C   UNL     1      41.411 -15.006   0.328  1.00  0.00     0.259 C 
HETATM   28  N   UNL     1      41.213 -16.294   0.782  1.00  0.00    -0.323 N 
HETATM   29  H   UNL     1      40.303 -16.694   0.637  1.00  0.00     0.169 HD
HETATM   30  O   UNL     1      42.431 -14.342   0.521  1.00  0.00    -0.267 OA
BRANCH  28  31
HETATM   31  C   UNL     1      42.117 -17.134   1.465  1.00  0.00     0.035 A 
HETATM   32  C   UNL     1      43.362 -17.526   0.970  1.00  0.00     0.031 A 
HETATM   33  C   UNL     1      44.193 -18.365   1.725  1.00  0.00     0.026 A 
HETATM   34  C   UNL     1      43.777 -18.823   2.972  1.00  0.00     0.034 A 
HETATM   35 CL   UNL     1      44.797 -19.857   3.892  1.00  0.00    -0.084 Cl
HETATM   36  C   UNL     1      42.537 -18.447   3.476  1.00  0.00     0.026 A 
HETATM   37  C   UNL     1      41.713 -17.602   2.726  1.00  0.00     0.031 A 
ENDBRANCH  28  31
ENDBRANCH   9  27
TORSDOF 8
ENDMDL
