MODEL 1
REMARK VINA RESULT:      -9.5      0.000      0.000
REMARK  3 active torsions:
REMARK  status: ('A' for Active; 'I' for Inactive)
REMARK    1  A    between atoms: C_4  and  N_5 
REMARK       I    between atoms: N_5  and  C_6 
REMARK       I    between atoms: C_6  and  N_7 
REMARK    2  A    between atoms: C_10  and  C_11 
REMARK    3  A    between atoms: C_24  and  O_25 
ROOT
HETATM    1  N   UNL     1      42.071 -14.640  -1.054  1.00  0.00    -0.306 N 
HETATM    2  C   UNL     1      41.264 -15.001  -0.004  1.00  0.00     0.323 C 
HETATM    3  N   UNL     1      41.822 -15.980   0.828  1.00  0.00    -0.330 N 
HETATM    4  C   UNL     1      40.961 -16.388   1.934  1.00  0.00     0.155 C 
HETATM    5  C   UNL     1      41.605 -17.383   2.848  1.00  0.00     0.001 C 
HETATM    6  C   UNL     1      42.869 -17.824   2.735  1.00  0.00    -0.046 C 
HETATM    7  C   UNL     1      43.756 -17.336   1.625  1.00  0.00     0.059 C 
HETATM    8  C   UNL     1      43.267 -15.995   1.082  1.00  0.00     0.132 C 
HETATM    9  O   UNL     1      40.147 -14.530   0.203  1.00  0.00    -0.247 OA
HETATM   10  H   UNL     1      42.597 -15.389  -1.486  1.00  0.00     0.171 HD
ENDROOT
BRANCH   1  11
HETATM   11  C   UNL     1      41.973 -13.464  -1.827  1.00  0.00     0.070 A 
HETATM   12  C   UNL     1      42.422 -12.226  -1.356  1.00  0.00     0.039 A 
HETATM   13  C   UNL     1      42.385 -11.093  -2.178  1.00  0.00    -0.060 A 
HETATM   14  C   UNL     1      42.909  -9.776  -1.690  1.00  0.00     0.048 C 
HETATM   15  C   UNL     1      41.892 -11.214  -3.482  1.00  0.00     0.009 A 
HETATM   16  C   UNL     1      41.437 -12.447  -3.959  1.00  0.00     0.039 A 
HETATM   17  C   UNL     1      41.471 -13.575  -3.136  1.00  0.00     0.095 A 
BRANCH  17  18
HETATM   18  O   UNL     1      41.060 -14.832  -3.520  1.00  0.00    -0.354 OA
HETATM   19  C   UNL     1      39.656 -15.003  -3.684  1.00  0.00     0.210 C 
ENDBRANCH  17  18
ENDBRANCH   1  11
BRANCH   6  20
HETATM   20  C   UNL     1      43.497 -18.686   3.682  1.00  0.00    -0.002 A 
HETATM   21  C   UNL     1      43.914 -20.036   3.474  1.00  0.00     0.003 A 
HETATM   22  C   UNL     1      44.458 -20.484   4.679  1.00  0.00     0.043 A 
HETATM   23  C   UNL     1      43.868 -20.931   2.383  1.00  0.00     0.014 A 
HETATM   24  C   UNL     1      44.963 -21.779   4.846  1.00  0.00     0.030 A 
HETATM   25  N   UNL     1      44.377 -19.439   5.573  1.00  0.00    -0.364 N 
HETATM   26  C   UNL     1      44.906 -22.645   3.748  1.00  0.00     0.002 A 
HETATM   27  C   UNL     1      44.367 -22.229   2.533  1.00  0.00     0.001 A 
HETATM   28  H   UNL     1      44.700 -19.480   6.529  1.00  0.00     0.165 HD
HETATM   29  C   UNL     1      43.787 -18.351   4.985  1.00  0.00     0.101 A 
ENDBRANCH   6  20
TORSDOF 3
ENDMDL
MODEL 2
REMARK VINA RESULT:      -8.9      2.079      2.606
REMARK  3 active torsions:
REMARK  status: ('A' for Active; 'I' for Inactive)
REMARK    1  A    between atoms: C_4  and  N_5 
REMARK       I    between atoms: N_5  and  C_6 
REMARK       I    between atoms: C_6  and  N_7 
REMARK    2  A    between atoms: C_10  and  C_11 
REMARK    3  A    between atoms: C_24  and  O_25 
ROOT
HETATM    1  N   UNL     1      39.528 -14.566   0.037  1.00  0.00    -0.306 N 
HETATM    2  C   UNL     1      40.696 -14.162   0.634  1.00  0.00     0.323 C 
HETATM    3  N   UNL     1      41.307 -15.154   1.413  1.00  0.00    -0.330 N 
HETATM    4  C   UNL     1      42.537 -14.726   2.071  1.00  0.00     0.155 C 
HETATM    5  C   UNL     1      43.207 -15.821   2.841  1.00  0.00     0.001 C 
HETATM    6  C   UNL     1      42.788 -17.096   2.884  1.00  0.00    -0.046 C 
HETATM    7  C   UNL     1      41.554 -17.525   2.141  1.00  0.00     0.059 C 
HETATM    8  C   UNL     1      41.238 -16.560   1.000  1.00  0.00     0.132 C 
HETATM    9  O   UNL     1      41.177 -13.036   0.519  1.00  0.00    -0.247 OA
HETATM   10  H   UNL     1      38.934 -15.170   0.590  1.00  0.00     0.171 HD
ENDROOT
BRANCH   1  11
HETATM   11  C   UNL     1      38.891 -13.960  -1.065  1.00  0.00     0.070 A 
HETATM   12  C   UNL     1      37.937 -12.949  -0.909  1.00  0.00     0.039 A 
HETATM   13  C   UNL     1      37.382 -12.311  -2.025  1.00  0.00    -0.060 A 
HETATM   14  C   UNL     1      36.395 -11.196  -1.857  1.00  0.00     0.048 C 
HETATM   15  C   UNL     1      37.794 -12.699  -3.305  1.00  0.00     0.009 A 
HETATM   16  C   UNL     1      38.743 -13.713  -3.471  1.00  0.00     0.039 A 
HETATM   17  C   UNL     1      39.292 -14.350  -2.356  1.00  0.00     0.095 A 
BRANCH  17  18
HETATM   18  O   UNL     1      40.241 -15.346  -2.418  1.00  0.00    -0.354 OA
HETATM   19  C   UNL     1      41.434 -15.023  -3.125  1.00  0.00     0.210 C 
ENDBRANCH  17  18
ENDBRANCH   1  11
BRANCH   6  20
HETATM   20  C   UNL     1      43.504 -18.146   3.532  1.00  0.00    -0.002 A 
HETATM   21  C   UNL     1      43.718 -19.471   3.044  1.00  0.00     0.003 A 
HETATM   22  C   UNL     1      44.453 -20.149   4.019  1.00  0.00     0.043 A 
HETATM   23  C   UNL     1      43.347 -20.170   1.875  1.00  0.00     0.014 A 
HETATM   24  C   UNL     1      44.837 -21.488   3.881  1.00  0.00     0.030 A 
HETATM   25  N   UNL     1      44.675 -19.262   5.049  1.00  0.00    -0.364 N 
HETATM   26  C   UNL     1      44.456 -22.156   2.711  1.00  0.00     0.002 A 
HETATM   27  C   UNL     1      43.722 -21.508   1.721  1.00  0.00     0.001 A 
HETATM   28  H   UNL     1      45.187 -19.483   5.891  1.00  0.00     0.165 HD
HETATM   29  C   UNL     1      44.096 -18.051   4.771  1.00  0.00     0.101 A 
ENDBRANCH   6  20
TORSDOF 3
ENDMDL
MODEL 3
REMARK VINA RESULT:      -8.6      2.828      9.362
REMARK  3 active torsions:
REMARK  status: ('A' for Active; 'I' for Inactive)
REMARK    1  A    between atoms: C_4  and  N_5 
REMARK       I    between atoms: N_5  and  C_6 
REMARK       I    between atoms: C_6  and  N_7 
REMARK    2  A    between atoms: C_10  and  C_11 
REMARK    3  A    between atoms: C_24  and  O_25 
ROOT
HETATM    1  N   UNL     1      42.620 -17.208   2.360  1.00  0.00    -0.306 N 
HETATM    2  C   UNL     1      41.339 -16.813   2.655  1.00  0.00     0.323 C 
HETATM    3  N   UNL     1      40.829 -15.844   1.781  1.00  0.00    -0.330 N 
HETATM    4  C   UNL     1      39.476 -15.401   2.100  1.00  0.00     0.155 C 
HETATM    5  C   UNL     1      38.928 -14.417   1.114  1.00  0.00     0.001 C 
HETATM    6  C   UNL     1      39.560 -14.015  -0.001  1.00  0.00    -0.046 C 
HETATM    7  C   UNL     1      40.926 -14.539  -0.341  1.00  0.00     0.059 C 
HETATM    8  C   UNL     1      41.193 -15.870   0.359  1.00  0.00     0.132 C 
HETATM    9  O   UNL     1      40.681 -17.250   3.597  1.00  0.00    -0.247 OA
HETATM   10  H   UNL     1      43.245 -16.478   2.041  1.00  0.00     0.171 HD
ENDROOT
BRANCH   1  11
HETATM   11  C   UNL     1      43.261 -18.386   2.794  1.00  0.00     0.070 A 
HETATM   12  C   UNL     1      43.302 -19.543   2.007  1.00  0.00     0.039 A 
HETATM   13  C   UNL     1      44.015 -20.670   2.433  1.00  0.00    -0.060 A 
HETATM   14  C   UNL     1      44.099 -21.893   1.569  1.00  0.00     0.048 C 
HETATM   15  C   UNL     1      44.688 -20.627   3.658  1.00  0.00     0.009 A 
HETATM   16  C   UNL     1      44.647 -19.478   4.454  1.00  0.00     0.039 A 
HETATM   17  C   UNL     1      43.932 -18.355   4.030  1.00  0.00     0.095 A 
BRANCH  17  18
HETATM   18  O   UNL     1      43.846 -17.175   4.734  1.00  0.00    -0.354 OA
HETATM   19  C   UNL     1      43.262 -17.267   6.029  1.00  0.00     0.210 C 
ENDBRANCH  17  18
ENDBRANCH   1  11
BRANCH   6  20
HETATM   20  C   UNL     1      38.973 -13.163  -0.983  1.00  0.00    -0.002 A 
HETATM   21  C   UNL     1      38.208 -13.560  -2.122  1.00  0.00     0.003 A 
HETATM   22  C   UNL     1      37.858 -12.393  -2.804  1.00  0.00     0.043 A 
HETATM   23  C   UNL     1      37.791 -14.800  -2.653  1.00  0.00     0.014 A 
HETATM   24  C   UNL     1      37.108 -12.405  -3.986  1.00  0.00     0.030 A 
HETATM   25  N   UNL     1      38.387 -11.336  -2.096  1.00  0.00    -0.364 N 
HETATM   26  C   UNL     1      36.706 -13.647  -4.489  1.00  0.00     0.002 A 
HETATM   27  C   UNL     1      37.041 -14.830  -3.833  1.00  0.00     0.001 A 
HETATM   28  H   UNL     1      38.287 -10.367  -2.360  1.00  0.00     0.165 HD
HETATM   29  C   UNL     1      39.074 -11.791  -1.000  1.00  0.00     0.101 A 
ENDBRANCH   6  20
TORSDOF 3
ENDMDL
MODEL 4
REMARK VINA RESULT:      -8.4      3.921      5.275
REMARK  3 active torsions:
REMARK  status: ('A' for Active; 'I' for Inactive)
REMARK    1  A    between atoms: C_4  and  N_5 
REMARK       I    between atoms: N_5  and  C_6 
REMARK       I    between atoms: C_6  and  N_7 
REMARK    2  A    between atoms: C_10  and  C_11 
REMARK    3  A    between atoms: C_24  and  O_25 
ROOT
HETATM    1  N   UNL     1      40.445 -13.794   4.576  1.00  0.00    -0.306 N 
HETATM    2  C   UNL     1      41.717 -13.943   5.072  1.00  0.00     0.323 C 
HETATM    3  N   UNL     1      42.143 -15.275   5.150  1.00  0.00    -0.330 N 
HETATM    4  C   UNL     1      43.485 -15.445   5.697  1.00  0.00     0.155 C 
HETATM    5  C   UNL     1      43.943 -16.870   5.707  1.00  0.00     0.001 C 
HETATM    6  C   UNL     1      43.248 -17.903   5.205  1.00  0.00    -0.046 C 
HETATM    7  C   UNL     1      41.896 -17.690   4.585  1.00  0.00     0.059 C 
HETATM    8  C   UNL     1      41.723 -16.243   4.129  1.00  0.00     0.132 C 
HETATM    9  O   UNL     1      42.433 -13.008   5.428  1.00  0.00    -0.247 OA
HETATM   10  H   UNL     1      39.773 -14.492   4.867  1.00  0.00     0.171 HD
ENDROOT
BRANCH   1  11
HETATM   11  C   UNL     1      39.881 -12.618   4.039  1.00  0.00     0.070 A 
HETATM   12  C   UNL     1      40.072 -12.245   2.704  1.00  0.00     0.039 A 
HETATM   13  C   UNL     1      39.432 -11.115   2.181  1.00  0.00    -0.060 A 
HETATM   14  C   UNL     1      39.599 -10.741   0.738  1.00  0.00     0.048 C 
HETATM   15  C   UNL     1      38.597 -10.360   3.011  1.00  0.00     0.009 A 
HETATM   16  C   UNL     1      38.406 -10.722   4.348  1.00  0.00     0.039 A 
HETATM   17  C   UNL     1      39.048 -11.848   4.870  1.00  0.00     0.095 A 
BRANCH  17  18
HETATM   18  O   UNL     1      38.910 -12.292   6.165  1.00  0.00    -0.354 OA
HETATM   19  C   UNL     1      39.662 -11.586   7.147  1.00  0.00     0.210 C 
ENDBRANCH  17  18
ENDBRANCH   1  11
BRANCH   6  20
HETATM   20  C   UNL     1      43.752 -19.235   5.124  1.00  0.00    -0.002 A 
HETATM   21  C   UNL     1      43.922 -20.022   3.944  1.00  0.00     0.003 A 
HETATM   22  C   UNL     1      44.425 -21.260   4.349  1.00  0.00     0.043 A 
HETATM   23  C   UNL     1      43.681 -19.811   2.569  1.00  0.00     0.014 A 
HETATM   24  C   UNL     1      44.704 -22.294   3.448  1.00  0.00     0.030 A 
HETATM   25  N   UNL     1      44.558 -21.213   5.720  1.00  0.00    -0.364 N 
HETATM   26  C   UNL     1      44.458 -22.058   2.091  1.00  0.00     0.002 A 
HETATM   27  C   UNL     1      43.954 -20.834   1.655  1.00  0.00     0.001 A 
HETATM   28  H   UNL     1      44.904 -21.975   6.284  1.00  0.00     0.165 HD
HETATM   29  C   UNL     1      44.143 -19.999   6.200  1.00  0.00     0.101 A 
ENDBRANCH   6  20
TORSDOF 3
ENDMDL
MODEL 5
REMARK VINA RESULT:      -8.4      5.030      9.386
REMARK  3 active torsions:
REMARK  status: ('A' for Active; 'I' for Inactive)
REMARK    1  A    between atoms: C_4  and  N_5 
REMARK       I    between atoms: N_5  and  C_6 
REMARK       I    between atoms: C_6  and  N_7 
REMARK    2  A    between atoms: C_10  and  C_11 
REMARK    3  A    between atoms: C_24  and  O_25 
ROOT
HETATM    1  N   UNL     1      43.560 -17.783   4.497  1.00  0.00    -0.306 N 
HETATM    2  C   UNL     1      42.312 -17.363   4.888  1.00  0.00     0.323 C 
HETATM    3  N   UNL     1      42.184 -15.970   4.974  1.00  0.00    -0.330 N 
HETATM    4  C   UNL     1      40.868 -15.515   5.411  1.00  0.00     0.155 C 
HETATM    5  C   UNL     1      40.735 -14.024   5.428  1.00  0.00     0.001 C 
HETATM    6  C   UNL     1      41.682 -13.164   5.022  1.00  0.00    -0.046 C 
HETATM    7  C   UNL     1      43.005 -13.662   4.512  1.00  0.00     0.059 C 
HETATM    8  C   UNL     1      42.896 -15.106   4.025  1.00  0.00     0.132 C 
HETATM    9  O   UNL     1      41.380 -18.120   5.151  1.00  0.00    -0.247 OA
HETATM   10  H   UNL     1      44.339 -17.255   4.867  1.00  0.00     0.171 HD
ENDROOT
BRANCH   1  11
HETATM   11  C   UNL     1      43.898 -19.047   3.972  1.00  0.00     0.070 A 
HETATM   12  C   UNL     1      44.449 -20.058   4.766  1.00  0.00     0.039 A 
HETATM   13  C   UNL     1      44.698 -21.329   4.232  1.00  0.00    -0.060 A 
HETATM   14  C   UNL     1      45.245 -22.427   5.095  1.00  0.00     0.048 C 
HETATM   15  C   UNL     1      44.389 -21.576   2.891  1.00  0.00     0.009 A 
HETATM   16  C   UNL     1      43.843 -20.569   2.089  1.00  0.00     0.039 A 
HETATM   17  C   UNL     1      43.599 -19.301   2.621  1.00  0.00     0.095 A 
BRANCH  17  18
HETATM   18  O   UNL     1      43.051 -18.253   1.917  1.00  0.00    -0.354 OA
HETATM   19  C   UNL     1      43.956 -17.510   1.106  1.00  0.00     0.210 C 
ENDBRANCH  17  18
ENDBRANCH   1  11
BRANCH   6  20
HETATM   20  C   UNL     1      41.492 -11.753   4.942  1.00  0.00    -0.002 A 
HETATM   21  C   UNL     1      41.508 -10.818   6.022  1.00  0.00     0.003 A 
HETATM   22  C   UNL     1      41.259  -9.558   5.474  1.00  0.00     0.043 A 
HETATM   23  C   UNL     1      41.693 -10.920   7.418  1.00  0.00     0.014 A 
HETATM   24  C   UNL     1      41.191  -8.396   6.251  1.00  0.00     0.030 A 
HETATM   25  N   UNL     1      41.107  -9.730   4.116  1.00  0.00    -0.364 N 
HETATM   26  C   UNL     1      41.379  -8.525   7.632  1.00  0.00     0.002 A 
HETATM   27  C   UNL     1      41.627  -9.769   8.209  1.00  0.00     0.001 A 
HETATM   28  H   UNL     1      40.919  -8.982   3.464  1.00  0.00     0.165 HD
HETATM   29  C   UNL     1      41.233 -11.054   3.784  1.00  0.00     0.101 A 
ENDBRANCH   6  20
TORSDOF 3
ENDMDL
MODEL 6
REMARK VINA RESULT:      -8.3      5.851      7.112
REMARK  3 active torsions:
REMARK  status: ('A' for Active; 'I' for Inactive)
REMARK    1  A    between atoms: C_4  and  N_5 
REMARK       I    between atoms: N_5  and  C_6 
REMARK       I    between atoms: C_6  and  N_7 
REMARK    2  A    between atoms: C_10  and  C_11 
REMARK    3  A    between atoms: C_24  and  O_25 
ROOT
HETATM    1  N   UNL     1      41.035 -11.588   5.749  1.00  0.00    -0.306 N 
HETATM    2  C   UNL     1      40.399 -12.783   5.981  1.00  0.00     0.323 C 
HETATM    3  N   UNL     1      41.176 -13.907   5.670  1.00  0.00    -0.330 N 
HETATM    4  C   UNL     1      40.500 -15.181   5.892  1.00  0.00     0.155 C 
HETATM    5  C   UNL     1      41.372 -16.367   5.619  1.00  0.00     0.001 C 
HETATM    6  C   UNL     1      42.668 -16.304   5.274  1.00  0.00    -0.046 C 
HETATM    7  C   UNL     1      43.358 -14.978   5.118  1.00  0.00     0.059 C 
HETATM    8  C   UNL     1      42.626 -13.885   5.894  1.00  0.00     0.132 C 
HETATM    9  O   UNL     1      39.253 -12.882   6.414  1.00  0.00    -0.247 OA
HETATM   10  H   UNL     1      41.618 -11.551   4.923  1.00  0.00     0.171 HD
ENDROOT
BRANCH   1  11
HETATM   11  C   UNL     1      40.689 -10.331   6.285  1.00  0.00     0.070 A 
HETATM   12  C   UNL     1      39.585  -9.604   5.825  1.00  0.00     0.039 A 
HETATM   13  C   UNL     1      39.221  -8.397   6.434  1.00  0.00    -0.060 A 
HETATM   14  C   UNL     1      38.011  -7.642   5.972  1.00  0.00     0.048 C 
HETATM   15  C   UNL     1      39.977  -7.923   7.511  1.00  0.00     0.009 A 
HETATM   16  C   UNL     1      41.085  -8.639   7.974  1.00  0.00     0.039 A 
HETATM   17  C   UNL     1      41.449  -9.842   7.363  1.00  0.00     0.095 A 
BRANCH  17  18
HETATM   18  O   UNL     1      42.512 -10.624   7.756  1.00  0.00    -0.354 OA
HETATM   19  C   UNL     1      42.705 -10.748   9.162  1.00  0.00     0.210 C 
ENDBRANCH  17  18
ENDBRANCH   1  11
BRANCH   6  20
HETATM   20  C   UNL     1      43.508 -17.447   5.128  1.00  0.00    -0.002 A 
HETATM   21  C   UNL     1      43.516 -18.378   4.045  1.00  0.00     0.003 A 
HETATM   22  C   UNL     1      44.486 -19.339   4.341  1.00  0.00     0.043 A 
HETATM   23  C   UNL     1      42.782 -18.511   2.847  1.00  0.00     0.014 A 
HETATM   24  C   UNL     1      44.761 -20.420   3.496  1.00  0.00     0.030 A 
HETATM   25  N   UNL     1      45.043 -18.992   5.553  1.00  0.00    -0.364 N 
HETATM   26  C   UNL     1      44.020 -20.527   2.314  1.00  0.00     0.002 A 
HETATM   27  C   UNL     1      43.043 -19.587   1.992  1.00  0.00     0.001 A 
HETATM   28  H   UNL     1      45.777 -19.511   6.012  1.00  0.00     0.165 HD
HETATM   29  C   UNL     1      44.451 -17.857   6.044  1.00  0.00     0.101 A 
ENDBRANCH   6  20
TORSDOF 3
ENDMDL
MODEL 7
REMARK VINA RESULT:      -8.3      4.330      5.797
REMARK  3 active torsions:
REMARK  status: ('A' for Active; 'I' for Inactive)
REMARK    1  A    between atoms: C_4  and  N_5 
REMARK       I    between atoms: N_5  and  C_6 
REMARK       I    between atoms: C_6  and  N_7 
REMARK    2  A    between atoms: C_10  and  C_11 
REMARK    3  A    between atoms: C_24  and  O_25 
ROOT
HETATM    1  N   UNL     1      41.535 -13.789   5.934  1.00  0.00    -0.306 N 
HETATM    2  C   UNL     1      42.791 -14.188   6.319  1.00  0.00     0.323 C 
HETATM    3  N   UNL     1      43.031 -15.556   6.139  1.00  0.00    -0.330 N 
HETATM    4  C   UNL     1      44.356 -15.994   6.566  1.00  0.00     0.155 C 
HETATM    5  C   UNL     1      44.613 -17.445   6.301  1.00  0.00     0.001 C 
HETATM    6  C   UNL     1      43.763 -18.272   5.671  1.00  0.00    -0.046 C 
HETATM    7  C   UNL     1      42.432 -17.778   5.181  1.00  0.00     0.059 C 
HETATM    8  C   UNL     1      42.444 -16.262   4.994  1.00  0.00     0.132 C 
HETATM    9  O   UNL     1      43.642 -13.434   6.788  1.00  0.00    -0.247 OA
HETATM   10  H   UNL     1      40.784 -14.435   6.140  1.00  0.00     0.171 HD
ENDROOT
BRANCH   1  11
HETATM   11  C   UNL     1      41.120 -12.473   5.645  1.00  0.00     0.070 A 
HETATM   12  C   UNL     1      40.403 -11.700   6.565  1.00  0.00     0.039 A 
HETATM   13  C   UNL     1      40.076 -10.369   6.278  1.00  0.00    -0.060 A 
HETATM   14  C   UNL     1      39.348  -9.527   7.282  1.00  0.00     0.048 C 
HETATM   15  C   UNL     1      40.476  -9.819   5.055  1.00  0.00     0.009 A 
HETATM   16  C   UNL     1      41.187 -10.586   4.128  1.00  0.00     0.039 A 
HETATM   17  C   UNL     1      41.510 -11.914   4.414  1.00  0.00     0.095 A 
BRANCH  17  18
HETATM   18  O   UNL     1      42.219 -12.742   3.573  1.00  0.00    -0.354 OA
HETATM   19  C   UNL     1      41.879 -12.662   2.192  1.00  0.00     0.210 C 
ENDBRANCH  17  18
ENDBRANCH   1  11
BRANCH   6  20
HETATM   20  C   UNL     1      44.075 -19.621   5.330  1.00  0.00    -0.002 A 
HETATM   21  C   UNL     1      44.109 -20.194   4.022  1.00  0.00     0.003 A 
HETATM   22  C   UNL     1      44.443 -21.541   4.176  1.00  0.00     0.043 A 
HETATM   23  C   UNL     1      43.872 -19.705   2.719  1.00  0.00     0.014 A 
HETATM   24  C   UNL     1      44.556 -22.420   3.092  1.00  0.00     0.030 A 
HETATM   25  N   UNL     1      44.609 -21.765   5.525  1.00  0.00    -0.364 N 
HETATM   26  C   UNL     1      44.317 -21.908   1.812  1.00  0.00     0.002 A 
HETATM   27  C   UNL     1      43.980 -20.570   1.625  1.00  0.00     0.001 A 
HETATM   28  H   UNL     1      44.858 -22.657   5.928  1.00  0.00     0.165 HD
HETATM   29  C   UNL     1      44.378 -20.615   6.233  1.00  0.00     0.101 A 
ENDBRANCH   6  20
TORSDOF 3
ENDMDL
MODEL 8
REMARK VINA RESULT:      -8.2      5.129      9.480
REMARK  3 active torsions:
REMARK  status: ('A' for Active; 'I' for Inactive)
REMARK    1  A    between atoms: C_4  and  N_5 
REMARK       I    between atoms: N_5  and  C_6 
REMARK       I    between atoms: C_6  and  N_7 
REMARK    2  A    between atoms: C_10  and  C_11 
REMARK    3  A    between atoms: C_24  and  O_25 
ROOT
HETATM    1  N   UNL     1      42.581 -17.575   3.482  1.00  0.00    -0.306 N 
HETATM    2  C   UNL     1      43.043 -16.383   2.980  1.00  0.00     0.323 C 
HETATM    3  N   UNL     1      42.307 -15.268   3.402  1.00  0.00    -0.330 N 
HETATM    4  C   UNL     1      42.776 -13.999   2.856  1.00  0.00     0.155 C 
HETATM    5  C   UNL     1      42.019 -12.816   3.374  1.00  0.00     0.001 C 
HETATM    6  C   UNL     1      41.050 -12.872   4.302  1.00  0.00    -0.046 C 
HETATM    7  C   UNL     1      40.633 -14.186   4.899  1.00  0.00     0.059 C 
HETATM    8  C   UNL     1      41.738 -15.230   4.755  1.00  0.00     0.132 C 
HETATM    9  O   UNL     1      44.006 -16.279   2.223  1.00  0.00    -0.247 OA
HETATM   10  H   UNL     1      41.575 -17.665   3.551  1.00  0.00     0.171 HD
ENDROOT
BRANCH   1  11
HETATM   11  C   UNL     1      43.290 -18.791   3.553  1.00  0.00     0.070 A 
HETATM   12  C   UNL     1      43.297 -19.710   2.498  1.00  0.00     0.039 A 
HETATM   13  C   UNL     1      44.077 -20.871   2.568  1.00  0.00    -0.060 A 
HETATM   14  C   UNL     1      44.120 -21.833   1.419  1.00  0.00     0.048 C 
HETATM   15  C   UNL     1      44.852 -21.103   3.709  1.00  0.00     0.009 A 
HETATM   16  C   UNL     1      44.846 -20.193   4.771  1.00  0.00     0.039 A 
HETATM   17  C   UNL     1      44.065 -19.037   4.701  1.00  0.00     0.095 A 
BRANCH  17  18
HETATM   18  O   UNL     1      44.006 -18.077   5.686  1.00  0.00    -0.354 OA
HETATM   19  C   UNL     1      45.165 -17.954   6.503  1.00  0.00     0.210 C 
ENDBRANCH  17  18
ENDBRANCH   1  11
BRANCH   6  20
HETATM   20  C   UNL     1      40.420 -11.721   4.863  1.00  0.00    -0.002 A 
HETATM   21  C   UNL     1      40.785 -11.038   6.063  1.00  0.00     0.003 A 
HETATM   22  C   UNL     1      39.880  -9.987   6.224  1.00  0.00     0.043 A 
HETATM   23  C   UNL     1      41.787 -11.218   7.041  1.00  0.00     0.014 A 
HETATM   24  C   UNL     1      39.930  -9.106   7.311  1.00  0.00     0.030 A 
HETATM   25  N   UNL     1      39.010 -10.035   5.157  1.00  0.00    -0.364 N 
HETATM   26  C   UNL     1      40.934  -9.307   8.264  1.00  0.00     0.002 A 
HETATM   27  C   UNL     1      41.851 -10.347   8.134  1.00  0.00     0.001 A 
HETATM   28  H   UNL     1      38.248  -9.388   5.013  1.00  0.00     0.165 HD
HETATM   29  C   UNL     1      39.320 -11.087   4.334  1.00  0.00     0.101 A 
ENDBRANCH   6  20
TORSDOF 3
ENDMDL
MODEL 9
REMARK VINA RESULT:      -8.2      2.321      9.415
REMARK  3 active torsions:
REMARK  status: ('A' for Active; 'I' for Inactive)
REMARK    1  A    between atoms: C_4  and  N_5 
REMARK       I    between atoms: N_5  and  C_6 
REMARK       I    between atoms: C_6  and  N_7 
REMARK    2  A    between atoms: C_10  and  C_11 
REMARK    3  A    between atoms: C_24  and  O_25 
ROOT
HETATM    1  N   UNL     1      42.960 -17.431   2.418  1.00  0.00    -0.306 N 
HETATM    2  C   UNL     1      41.689 -16.961   2.643  1.00  0.00     0.323 C 
HETATM    3  N   UNL     1      41.240 -16.057   1.672  1.00  0.00    -0.330 N 
HETATM    4  C   UNL     1      39.899 -15.533   1.915  1.00  0.00     0.155 C 
HETATM    5  C   UNL     1      39.415 -14.624   0.830  1.00  0.00     0.001 C 
HETATM    6  C   UNL     1      40.087 -14.351  -0.300  1.00  0.00    -0.046 C 
HETATM    7  C   UNL     1      41.438 -14.957  -0.556  1.00  0.00     0.059 C 
HETATM    8  C   UNL     1      41.634 -16.227   0.269  1.00  0.00     0.132 C 
HETATM    9  O   UNL     1      40.994 -17.283   3.605  1.00  0.00    -0.247 OA
HETATM   10  H   UNL     1      43.621 -16.759   2.051  1.00  0.00     0.171 HD
ENDROOT
BRANCH   1  11
HETATM   11  C   UNL     1      43.541 -18.589   2.974  1.00  0.00     0.070 A 
HETATM   12  C   UNL     1      43.649 -19.785   2.255  1.00  0.00     0.039 A 
HETATM   13  C   UNL     1      44.304 -20.893   2.807  1.00  0.00    -0.060 A 
HETATM   14  C   UNL     1      44.461 -22.159   2.019  1.00  0.00     0.048 C 
HETATM   15  C   UNL     1      44.851 -20.791   4.090  1.00  0.00     0.009 A 
HETATM   16  C   UNL     1      44.742 -19.602   4.818  1.00  0.00     0.039 A 
HETATM   17  C   UNL     1      44.086 -18.498   4.268  1.00  0.00     0.095 A 
BRANCH  17  18
HETATM   18  O   UNL     1      43.942 -17.283   4.899  1.00  0.00    -0.354 OA
HETATM   19  C   UNL     1      43.488 -17.335   6.248  1.00  0.00     0.210 C 
ENDBRANCH  17  18
ENDBRANCH   1  11
BRANCH   6  20
HETATM   20  C   UNL     1      39.558 -13.570  -1.370  1.00  0.00    -0.002 A 
HETATM   21  C   UNL     1      40.287 -12.735  -2.270  1.00  0.00     0.003 A 
HETATM   22  C   UNL     1      39.354 -12.156  -3.135  1.00  0.00     0.043 A 
HETATM   23  C   UNL     1      41.648 -12.397  -2.427  1.00  0.00     0.014 A 
HETATM   24  C   UNL     1      39.717 -11.263  -4.150  1.00  0.00     0.030 A 
HETATM   25  N   UNL     1      38.114 -12.634  -2.770  1.00  0.00    -0.364 N 
HETATM   26  C   UNL     1      41.074 -10.947  -4.283  1.00  0.00     0.002 A 
HETATM   27  C   UNL     1      42.028 -11.505  -3.435  1.00  0.00     0.001 A 
HETATM   28  H   UNL     1      37.250 -12.383  -3.228  1.00  0.00     0.165 HD
HETATM   29  C   UNL     1      38.224 -13.479  -1.697  1.00  0.00     0.101 A 
ENDBRANCH   6  20
TORSDOF 3
ENDMDL
MODEL 10
REMARK VINA RESULT:      -8.1      3.802      9.420
REMARK  3 active torsions:
REMARK  status: ('A' for Active; 'I' for Inactive)
REMARK    1  A    between atoms: C_4  and  N_5 
REMARK       I    between atoms: N_5  and  C_6 
REMARK       I    between atoms: C_6  and  N_7 
REMARK    2  A    between atoms: C_10  and  C_11 
REMARK    3  A    between atoms: C_24  and  O_25 
ROOT
HETATM    1  N   UNL     1      41.901 -18.066   2.167  1.00  0.00    -0.306 N 
HETATM    2  C   UNL     1      42.169 -17.066   1.265  1.00  0.00     0.323 C 
HETATM    3  N   UNL     1      41.148 -16.113   1.155  1.00  0.00    -0.330 N 
HETATM    4  C   UNL     1      41.415 -15.059   0.181  1.00  0.00     0.155 C 
HETATM    5  C   UNL     1      40.342 -14.017   0.131  1.00  0.00     0.001 C 
HETATM    6  C   UNL     1      39.267 -13.982   0.935  1.00  0.00    -0.046 C 
HETATM    7  C   UNL     1      39.052 -15.044   1.976  1.00  0.00     0.059 C 
HETATM    8  C   UNL     1      40.366 -15.732   2.337  1.00  0.00     0.132 C 
HETATM    9  O   UNL     1      43.200 -16.997   0.598  1.00  0.00    -0.247 OA
HETATM   10  H   UNL     1      40.942 -18.389   2.196  1.00  0.00     0.171 HD
ENDROOT
BRANCH   1  11
HETATM   11  C   UNL     1      42.836 -18.935   2.767  1.00  0.00     0.070 A 
HETATM   12  C   UNL     1      43.306 -20.082   2.118  1.00  0.00     0.039 A 
HETATM   13  C   UNL     1      44.295 -20.879   2.707  1.00  0.00    -0.060 A 
HETATM   14  C   UNL     1      44.833 -22.083   1.992  1.00  0.00     0.048 C 
HETATM   15  C   UNL     1      44.809 -20.515   3.956  1.00  0.00     0.009 A 
HETATM   16  C   UNL     1      44.340 -19.374   4.614  1.00  0.00     0.039 A 
HETATM   17  C   UNL     1      43.351 -18.581   4.027  1.00  0.00     0.095 A 
BRANCH  17  18
HETATM   18  O   UNL     1      42.839 -17.433   4.588  1.00  0.00    -0.354 OA
HETATM   19  C   UNL     1      43.627 -16.838   5.614  1.00  0.00     0.210 C 
ENDBRANCH  17  18
ENDBRANCH   1  11
BRANCH   6  20
HETATM   20  C   UNL     1      38.317 -12.918   0.945  1.00  0.00    -0.002 A 
HETATM   21  C   UNL     1      38.210 -11.868   1.907  1.00  0.00     0.003 A 
HETATM   22  C   UNL     1      37.127 -11.073   1.522  1.00  0.00     0.043 A 
HETATM   23  C   UNL     1      38.916 -11.520   3.078  1.00  0.00     0.014 A 
HETATM   24  C   UNL     1      36.721  -9.947   2.248  1.00  0.00     0.030 A 
HETATM   25  N   UNL     1      36.610 -11.624   0.370  1.00  0.00    -0.364 N 
HETATM   26  C   UNL     1      37.439  -9.625   3.405  1.00  0.00     0.002 A 
HETATM   27  C   UNL     1      38.522 -10.399   3.816  1.00  0.00     0.001 A 
HETATM   28  H   UNL     1      35.818 -11.252  -0.134  1.00  0.00     0.165 HD
HETATM   29  C   UNL     1      37.314 -12.746   0.019  1.00  0.00     0.101 A 
ENDBRANCH   6  20
TORSDOF 3
ENDMDL
