MODEL 1
REMARK VINA RESULT:      -8.9      0.000      0.000
REMARK  6 active torsions:
REMARK  status: ('A' for Active; 'I' for Inactive)
REMARK    1  A    between atoms: C_2  and  N_3 
REMARK    2  A    between atoms: C_2  and  C_15 
REMARK    3  A    between atoms: C_5  and  C_6 
REMARK       I    between atoms: C_15  and  N_16 
REMARK    4  A    between atoms: N_16  and  C_17 
REMARK    5  A    between atoms: C_20  and  O_21 
REMARK    6  A    between atoms: O_21  and  C_22 
ROOT
HETATM    1  C   UNL     1      44.225 -13.511   7.606  1.00  0.00     0.253 C 
HETATM    2  N   UNL     1      43.131 -13.529   6.761  1.00  0.00    -0.325 N 
HETATM    3  O   UNL     1      45.053 -14.415   7.711  1.00  0.00    -0.271 OA
HETATM    4  H   UNL     1      42.443 -12.789   6.822  1.00  0.00     0.169 HD
ENDROOT
BRANCH   1   5
HETATM    5  C   UNL     1      44.508 -12.180   8.356  1.00  0.00     0.276 C 
HETATM    6  C   UNL     1      45.934 -11.960   8.849  1.00  0.00     0.050 C 
BRANCH   5   7
HETATM    7  N   UNL     1      43.533 -11.935   9.527  1.00  0.00    -0.049 N 
HETATM    8  H   UNL     1      42.708 -12.517   9.342  1.00  0.00     0.281 HD
HETATM    9  C   UNL     1      43.037 -10.507   9.685  1.00  0.00     0.238 C 
HETATM   10  C   UNL     1      43.810  -9.980  10.886  1.00  0.00     0.041 C 
HETATM   11  C   UNL     1      43.923 -11.177  11.805  1.00  0.00     0.030 C 
HETATM   12  C   UNL     1      44.088 -12.368  10.881  1.00  0.00     0.237 C 
BRANCH   9  13
HETATM   13  C   UNL     1      41.549 -10.471   9.894  1.00  0.00     0.042 A 
HETATM   14  N   UNL     1      40.638 -10.611   8.860  1.00  0.00    -0.363 N 
HETATM   15  C   UNL     1      40.932 -10.773   7.449  1.00  0.00     0.155 C 
HETATM   16  C   UNL     1      39.362 -10.531   9.353  1.00  0.00     0.090 A 
HETATM   17  C   UNL     1      39.432 -10.315  10.707  1.00  0.00     0.019 A 
HETATM   18  C   UNL     1      40.800 -10.267  11.049  1.00  0.00     0.028 A 
ENDBRANCH   9  13
ENDBRANCH   5   7
ENDBRANCH   1   5
BRANCH   2  19
HETATM   19  C   UNL     1      42.799 -14.546   5.831  1.00  0.00     0.035 A 
HETATM   20  C   UNL     1      41.889 -15.575   6.085  1.00  0.00     0.032 A 
HETATM   21  C   UNL     1      41.647 -16.563   5.125  1.00  0.00     0.039 A 
HETATM   22  C   UNL     1      42.302 -16.531   3.898  1.00  0.00     0.076 A 
HETATM   23  C   UNL     1      43.222 -15.516   3.636  1.00  0.00     0.039 A 
HETATM   24  C   UNL     1      43.460 -14.523   4.595  1.00  0.00     0.032 A 
BRANCH  22  25
HETATM   25  O   UNL     1      42.046 -17.583   3.050  1.00  0.00    -0.311 OA
BRANCH  25  26
HETATM   26  C   UNL     1      42.878 -18.675   3.091  1.00  0.00     0.076 A 
HETATM   27  C   UNL     1      42.923 -19.480   1.952  1.00  0.00     0.037 A 
HETATM   28  C   UNL     1      43.785 -20.575   1.909  1.00  0.00     0.003 A 
HETATM   29  C   UNL     1      44.612 -20.853   2.998  1.00  0.00     0.000 A 
HETATM   30  C   UNL     1      44.585 -20.032   4.126  1.00  0.00     0.003 A 
HETATM   31  C   UNL     1      43.724 -18.935   4.172  1.00  0.00     0.037 A 
ENDBRANCH  25  26
ENDBRANCH  22  25
ENDBRANCH   2  19
TORSDOF 6
ENDMDL
MODEL 2
REMARK VINA RESULT:      -8.6      7.116      8.951
REMARK  6 active torsions:
REMARK  status: ('A' for Active; 'I' for Inactive)
REMARK    1  A    between atoms: C_2  and  N_3 
REMARK    2  A    between atoms: C_2  and  C_15 
REMARK    3  A    between atoms: C_5  and  C_6 
REMARK       I    between atoms: C_15  and  N_16 
REMARK    4  A    between atoms: N_16  and  C_17 
REMARK    5  A    between atoms: C_20  and  O_21 
REMARK    6  A    between atoms: O_21  and  C_22 
ROOT
HETATM    1  C   UNL     1      41.069 -14.902  -0.292  1.00  0.00     0.253 C 
HETATM    2  N   UNL     1      41.258 -16.265  -0.156  1.00  0.00    -0.325 N 
HETATM    3  O   UNL     1      41.461 -14.051   0.505  1.00  0.00    -0.271 OA
HETATM    4  H   UNL     1      40.805 -16.897  -0.804  1.00  0.00     0.169 HD
ENDROOT
BRANCH   1   5
HETATM    5  C   UNL     1      40.457 -14.412  -1.633  1.00  0.00     0.276 C 
HETATM    6  C   UNL     1      40.327 -15.445  -2.748  1.00  0.00     0.050 C 
BRANCH   5   7
HETATM    7  N   UNL     1      41.169 -13.162  -2.193  1.00  0.00    -0.049 N 
HETATM    8  H   UNL     1      42.140 -13.213  -1.867  1.00  0.00     0.281 HD
HETATM    9  C   UNL     1      40.618 -11.824  -1.728  1.00  0.00     0.238 C 
HETATM   10  C   UNL     1      39.851 -11.302  -2.934  1.00  0.00     0.041 C 
HETATM   11  C   UNL     1      40.671 -11.763  -4.120  1.00  0.00     0.030 C 
HETATM   12  C   UNL     1      41.214 -13.121  -3.718  1.00  0.00     0.237 C 
BRANCH   9  13
HETATM   13  C   UNL     1      41.727 -10.901  -1.304  1.00  0.00     0.042 A 
HETATM   14  N   UNL     1      41.536  -9.847  -0.427  1.00  0.00    -0.363 N 
HETATM   15  C   UNL     1      40.290  -9.431   0.187  1.00  0.00     0.155 C 
HETATM   16  C   UNL     1      42.721  -9.184  -0.236  1.00  0.00     0.090 A 
HETATM   17  C   UNL     1      43.685  -9.788  -1.003  1.00  0.00     0.019 A 
HETATM   18  C   UNL     1      43.064 -10.858  -1.682  1.00  0.00     0.028 A 
ENDBRANCH   9  13
ENDBRANCH   5   7
ENDBRANCH   1   5
BRANCH   2  19
HETATM   19  C   UNL     1      41.977 -16.919   0.876  1.00  0.00     0.035 A 
HETATM   20  C   UNL     1      41.422 -17.298   2.100  1.00  0.00     0.032 A 
HETATM   21  C   UNL     1      42.213 -17.906   3.081  1.00  0.00     0.039 A 
HETATM   22  C   UNL     1      43.563 -18.149   2.849  1.00  0.00     0.076 A 
HETATM   23  C   UNL     1      44.132 -17.764   1.636  1.00  0.00     0.039 A 
HETATM   24  C   UNL     1      43.339 -17.162   0.651  1.00  0.00     0.032 A 
BRANCH  22  25
HETATM   25  O   UNL     1      44.267 -18.688   3.900  1.00  0.00    -0.311 OA
BRANCH  25  26
HETATM   26  C   UNL     1      44.442 -20.049   3.943  1.00  0.00     0.076 A 
HETATM   27  C   UNL     1      44.628 -20.625   5.201  1.00  0.00     0.037 A 
HETATM   28  C   UNL     1      44.760 -22.008   5.318  1.00  0.00     0.003 A 
HETATM   29  C   UNL     1      44.691 -22.814   4.182  1.00  0.00     0.000 A 
HETATM   30  C   UNL     1      44.480 -22.239   2.927  1.00  0.00     0.003 A 
HETATM   31  C   UNL     1      44.345 -20.855   2.806  1.00  0.00     0.037 A 
ENDBRANCH  25  26
ENDBRANCH  22  25
ENDBRANCH   2  19
TORSDOF 6
ENDMDL
MODEL 3
REMARK VINA RESULT:      -8.5      7.156      9.021
REMARK  6 active torsions:
REMARK  status: ('A' for Active; 'I' for Inactive)
REMARK    1  A    between atoms: C_2  and  N_3 
REMARK    2  A    between atoms: C_2  and  C_15 
REMARK    3  A    between atoms: C_5  and  C_6 
REMARK       I    between atoms: C_15  and  N_16 
REMARK    4  A    between atoms: N_16  and  C_17 
REMARK    5  A    between atoms: C_20  and  O_21 
REMARK    6  A    between atoms: O_21  and  C_22 
ROOT
HETATM    1  C   UNL     1      41.044 -15.080  -0.557  1.00  0.00     0.253 C 
HETATM    2  N   UNL     1      41.158 -16.429  -0.276  1.00  0.00    -0.325 N 
HETATM    3  O   UNL     1      41.516 -14.172   0.126  1.00  0.00    -0.271 OA
HETATM    4  H   UNL     1      40.643 -17.098  -0.835  1.00  0.00     0.169 HD
ENDROOT
BRANCH   1   5
HETATM    5  C   UNL     1      40.408 -14.702  -1.924  1.00  0.00     0.276 C 
HETATM    6  C   UNL     1      41.313 -14.789  -3.149  1.00  0.00     0.050 C 
BRANCH   5   7
HETATM    7  N   UNL     1      39.729 -13.316  -1.904  1.00  0.00    -0.049 N 
HETATM    8  H   UNL     1      39.933 -12.908  -0.984  1.00  0.00     0.281 HD
HETATM    9  C   UNL     1      38.218 -13.319  -2.059  1.00  0.00     0.238 C 
HETATM   10  C   UNL     1      37.993 -12.844  -3.488  1.00  0.00     0.041 C 
HETATM   11  C   UNL     1      39.086 -11.820  -3.712  1.00  0.00     0.030 C 
HETATM   12  C   UNL     1      40.285 -12.352  -2.949  1.00  0.00     0.237 C 
BRANCH   9  13
HETATM   13  C   UNL     1      37.568 -12.422  -1.043  1.00  0.00     0.042 A 
HETATM   14  N   UNL     1      37.349 -12.804   0.270  1.00  0.00    -0.363 N 
HETATM   15  C   UNL     1      37.655 -14.087   0.873  1.00  0.00     0.155 C 
HETATM   16  C   UNL     1      36.738 -11.784   0.954  1.00  0.00     0.090 A 
HETATM   17  C   UNL     1      36.534 -10.741   0.085  1.00  0.00     0.019 A 
HETATM   18  C   UNL     1      37.043 -11.140  -1.169  1.00  0.00     0.028 A 
ENDBRANCH   9  13
ENDBRANCH   5   7
ENDBRANCH   1   5
BRANCH   2  19
HETATM   19  C   UNL     1      41.878 -17.009   0.798  1.00  0.00     0.035 A 
HETATM   20  C   UNL     1      41.317 -17.329   2.037  1.00  0.00     0.032 A 
HETATM   21  C   UNL     1      42.109 -17.865   3.058  1.00  0.00     0.039 A 
HETATM   22  C   UNL     1      43.465 -18.096   2.853  1.00  0.00     0.076 A 
HETATM   23  C   UNL     1      44.040 -17.771   1.625  1.00  0.00     0.039 A 
HETATM   24  C   UNL     1      43.247 -17.240   0.600  1.00  0.00     0.032 A 
BRANCH  22  25
HETATM   25  O   UNL     1      44.168 -18.561   3.939  1.00  0.00    -0.311 OA
BRANCH  25  26
HETATM   26  C   UNL     1      44.388 -19.913   4.048  1.00  0.00     0.076 A 
HETATM   27  C   UNL     1      44.534 -20.428   5.337  1.00  0.00     0.037 A 
HETATM   28  C   UNL     1      44.709 -21.800   5.520  1.00  0.00     0.003 A 
HETATM   29  C   UNL     1      44.721 -22.653   4.416  1.00  0.00     0.000 A 
HETATM   30  C   UNL     1      44.549 -22.139   3.130  1.00  0.00     0.003 A 
HETATM   31  C   UNL     1      44.373 -20.767   2.944  1.00  0.00     0.037 A 
ENDBRANCH  25  26
ENDBRANCH  22  25
ENDBRANCH   2  19
TORSDOF 6
ENDMDL
MODEL 4
REMARK VINA RESULT:      -8.5      6.830      9.085
REMARK  6 active torsions:
REMARK  status: ('A' for Active; 'I' for Inactive)
REMARK    1  A    between atoms: C_2  and  N_3 
REMARK    2  A    between atoms: C_2  and  C_15 
REMARK    3  A    between atoms: C_5  and  C_6 
REMARK       I    between atoms: C_15  and  N_16 
REMARK    4  A    between atoms: N_16  and  C_17 
REMARK    5  A    between atoms: C_20  and  O_21 
REMARK    6  A    between atoms: O_21  and  C_22 
ROOT
HETATM    1  C   UNL     1      39.706 -14.215   1.434  1.00  0.00     0.253 C 
HETATM    2  N   UNL     1      39.995 -15.537   1.153  1.00  0.00    -0.325 N 
HETATM    3  O   UNL     1      40.323 -13.510   2.231  1.00  0.00    -0.271 OA
HETATM    4  H   UNL     1      39.365 -16.070   0.566  1.00  0.00     0.169 HD
ENDROOT
BRANCH   1   5
HETATM    5  C   UNL     1      38.619 -13.535   0.557  1.00  0.00     0.276 C 
HETATM    6  C   UNL     1      37.205 -14.096   0.656  1.00  0.00     0.050 C 
BRANCH   5   7
HETATM    7  N   UNL     1      39.019 -13.453  -0.932  1.00  0.00    -0.049 N 
HETATM    8  H   UNL     1      39.905 -13.962  -1.021  1.00  0.00     0.281 HD
HETATM    9  C   UNL     1      39.258 -12.054  -1.476  1.00  0.00     0.238 C 
HETATM   10  C   UNL     1      38.022 -11.770  -2.318  1.00  0.00     0.041 C 
HETATM   11  C   UNL     1      37.679 -13.110  -2.934  1.00  0.00     0.030 C 
HETATM   12  C   UNL     1      38.021 -14.132  -1.866  1.00  0.00     0.237 C 
BRANCH   9  13
HETATM   13  C   UNL     1      40.529 -11.996  -2.277  1.00  0.00     0.042 A 
HETATM   14  N   UNL     1      41.782 -11.897  -1.697  1.00  0.00    -0.363 N 
HETATM   15  C   UNL     1      42.089 -11.798  -0.283  1.00  0.00     0.155 C 
HETATM   16  C   UNL     1      42.743 -11.857  -2.674  1.00  0.00     0.090 A 
HETATM   17  C   UNL     1      42.121 -11.907  -3.896  1.00  0.00     0.019 A 
HETATM   18  C   UNL     1      40.733 -11.984  -3.653  1.00  0.00     0.028 A 
ENDBRANCH   9  13
ENDBRANCH   5   7
ENDBRANCH   1   5
BRANCH   2  19
HETATM   19  C   UNL     1      41.074 -16.295   1.673  1.00  0.00     0.035 A 
HETATM   20  C   UNL     1      41.024 -17.011   2.872  1.00  0.00     0.032 A 
HETATM   21  C   UNL     1      42.149 -17.702   3.334  1.00  0.00     0.039 A 
HETATM   22  C   UNL     1      43.332 -17.695   2.602  1.00  0.00     0.076 A 
HETATM   23  C   UNL     1      43.399 -16.975   1.410  1.00  0.00     0.039 A 
HETATM   24  C   UNL     1      42.272 -16.287   0.944  1.00  0.00     0.032 A 
BRANCH  22  25
HETATM   25  O   UNL     1      44.399 -18.348   3.174  1.00  0.00    -0.311 OA
BRANCH  25  26
HETATM   26  C   UNL     1      44.426 -19.721   3.133  1.00  0.00     0.076 A 
HETATM   27  C   UNL     1      44.821 -20.381   4.297  1.00  0.00     0.037 A 
HETATM   28  C   UNL     1      44.821 -21.776   4.338  1.00  0.00     0.003 A 
HETATM   29  C   UNL     1      44.411 -22.505   3.222  1.00  0.00     0.000 A 
HETATM   30  C   UNL     1      43.992 -21.842   2.067  1.00  0.00     0.003 A 
HETATM   31  C   UNL     1      43.989 -20.447   2.023  1.00  0.00     0.037 A 
ENDBRANCH  25  26
ENDBRANCH  22  25
ENDBRANCH   2  19
TORSDOF 6
ENDMDL
MODEL 5
REMARK VINA RESULT:      -8.2      4.937      8.016
REMARK  6 active torsions:
REMARK  status: ('A' for Active; 'I' for Inactive)
REMARK    1  A    between atoms: C_2  and  N_3 
REMARK    2  A    between atoms: C_2  and  C_15 
REMARK    3  A    between atoms: C_5  and  C_6 
REMARK       I    between atoms: C_15  and  N_16 
REMARK    4  A    between atoms: N_16  and  C_17 
REMARK    5  A    between atoms: C_20  and  O_21 
REMARK    6  A    between atoms: O_21  and  C_22 
ROOT
HETATM    1  C   UNL     1      42.912 -14.521   3.602  1.00  0.00     0.253 C 
HETATM    2  N   UNL     1      41.818 -14.828   2.815  1.00  0.00    -0.325 N 
HETATM    3  O   UNL     1      43.962 -14.028   3.193  1.00  0.00    -0.271 OA
HETATM    4  H   UNL     1      41.039 -15.333   3.220  1.00  0.00     0.169 HD
ENDROOT
BRANCH   1   5
HETATM    5  C   UNL     1      42.732 -14.667   5.138  1.00  0.00     0.276 C 
HETATM    6  C   UNL     1      43.067 -13.446   5.988  1.00  0.00     0.050 C 
BRANCH   5   7
HETATM    7  N   UNL     1      43.474 -15.893   5.714  1.00  0.00    -0.049 N 
HETATM    8  H   UNL     1      44.296 -16.038   5.117  1.00  0.00     0.281 HD
HETATM    9  C   UNL     1      42.693 -17.197   5.714  1.00  0.00     0.238 C 
HETATM   10  C   UNL     1      42.299 -17.390   7.171  1.00  0.00     0.041 C 
HETATM   11  C   UNL     1      43.484 -16.856   7.947  1.00  0.00     0.030 C 
HETATM   12  C   UNL     1      43.988 -15.679   7.134  1.00  0.00     0.237 C 
BRANCH   9  13
HETATM   13  C   UNL     1      43.532 -18.328   5.187  1.00  0.00     0.042 A 
HETATM   14  N   UNL     1      43.460 -18.773   3.877  1.00  0.00    -0.363 N 
HETATM   15  C   UNL     1      42.583 -18.285   2.831  1.00  0.00     0.155 C 
HETATM   16  C   UNL     1      44.333 -19.815   3.694  1.00  0.00     0.090 A 
HETATM   17  C   UNL     1      44.962 -20.069   4.888  1.00  0.00     0.019 A 
HETATM   18  C   UNL     1      44.456 -19.146   5.828  1.00  0.00     0.028 A 
ENDBRANCH   9  13
ENDBRANCH   5   7
ENDBRANCH   1   5
BRANCH   2  19
HETATM   19  C   UNL     1      41.680 -14.578   1.427  1.00  0.00     0.035 A 
HETATM   20  C   UNL     1      41.704 -13.305   0.852  1.00  0.00     0.032 A 
HETATM   21  C   UNL     1      41.522 -13.144  -0.525  1.00  0.00     0.039 A 
HETATM   22  C   UNL     1      41.323 -14.250  -1.346  1.00  0.00     0.076 A 
HETATM   23  C   UNL     1      41.285 -15.525  -0.784  1.00  0.00     0.039 A 
HETATM   24  C   UNL     1      41.473 -15.687   0.594  1.00  0.00     0.032 A 
BRANCH  22  25
HETATM   25  O   UNL     1      41.086 -13.980  -2.674  1.00  0.00    -0.311 OA
BRANCH  25  26
HETATM   26  C   UNL     1      39.823 -14.188  -3.170  1.00  0.00     0.076 A 
HETATM   27  C   UNL     1      39.571 -15.427  -3.763  1.00  0.00     0.037 A 
HETATM   28  C   UNL     1      38.294 -15.721  -4.241  1.00  0.00     0.003 A 
HETATM   29  C   UNL     1      37.270 -14.783  -4.111  1.00  0.00     0.000 A 
HETATM   30  C   UNL     1      37.516 -13.555  -3.495  1.00  0.00     0.003 A 
HETATM   31  C   UNL     1      38.792 -13.258  -3.014  1.00  0.00     0.037 A 
ENDBRANCH  25  26
ENDBRANCH  22  25
ENDBRANCH   2  19
TORSDOF 6
ENDMDL
MODEL 6
REMARK VINA RESULT:      -8.2      3.331      5.752
REMARK  6 active torsions:
REMARK  status: ('A' for Active; 'I' for Inactive)
REMARK    1  A    between atoms: C_2  and  N_3 
REMARK    2  A    between atoms: C_2  and  C_15 
REMARK    3  A    between atoms: C_5  and  C_6 
REMARK       I    between atoms: C_15  and  N_16 
REMARK    4  A    between atoms: N_16  and  C_17 
REMARK    5  A    between atoms: C_20  and  O_21 
REMARK    6  A    between atoms: O_21  and  C_22 
ROOT
HETATM    1  C   UNL     1      42.879 -13.541   5.272  1.00  0.00     0.253 C 
HETATM    2  N   UNL     1      42.447 -14.568   6.090  1.00  0.00    -0.325 N 
HETATM    3  O   UNL     1      43.849 -13.597   4.517  1.00  0.00    -0.271 OA
HETATM    4  H   UNL     1      41.706 -14.394   6.758  1.00  0.00     0.169 HD
ENDROOT
BRANCH   1   5
HETATM    5  C   UNL     1      41.969 -12.284   5.188  1.00  0.00     0.276 C 
HETATM    6  C   UNL     1      41.718 -11.531   6.490  1.00  0.00     0.050 C 
BRANCH   5   7
HETATM    7  N   UNL     1      40.612 -12.572   4.510  1.00  0.00    -0.049 N 
HETATM    8  H   UNL     1      40.581 -13.585   4.347  1.00  0.00     0.281 HD
HETATM    9  C   UNL     1      40.392 -11.902   3.164  1.00  0.00     0.238 C 
HETATM   10  C   UNL     1      39.421 -10.771   3.471  1.00  0.00     0.041 C 
HETATM   11  C   UNL     1      38.514 -11.343   4.539  1.00  0.00     0.030 C 
HETATM   12  C   UNL     1      39.411 -12.226   5.385  1.00  0.00     0.237 C 
BRANCH   9  13
HETATM   13  C   UNL     1      39.844 -12.876   2.159  1.00  0.00     0.042 A 
HETATM   14  N   UNL     1      40.641 -13.774   1.467  1.00  0.00    -0.363 N 
HETATM   15  C   UNL     1      42.082 -13.912   1.549  1.00  0.00     0.155 C 
HETATM   16  C   UNL     1      39.866 -14.524   0.621  1.00  0.00     0.090 A 
HETATM   17  C   UNL     1      38.564 -14.104   0.738  1.00  0.00     0.019 A 
HETATM   18  C   UNL     1      38.547 -13.066   1.693  1.00  0.00     0.028 A 
ENDBRANCH   9  13
ENDBRANCH   5   7
ENDBRANCH   1   5
BRANCH   2  19
HETATM   19  C   UNL     1      42.995 -15.873   6.167  1.00  0.00     0.035 A 
HETATM   20  C   UNL     1      44.279 -16.159   6.637  1.00  0.00     0.032 A 
HETATM   21  C   UNL     1      44.757 -17.474   6.642  1.00  0.00     0.039 A 
HETATM   22  C   UNL     1      43.957 -18.518   6.189  1.00  0.00     0.076 A 
HETATM   23  C   UNL     1      42.678 -18.245   5.706  1.00  0.00     0.039 A 
HETATM   24  C   UNL     1      42.197 -16.930   5.706  1.00  0.00     0.032 A 
BRANCH  22  25
HETATM   25  O   UNL     1      44.543 -19.763   6.173  1.00  0.00    -0.311 OA
BRANCH  25  26
HETATM   26  C   UNL     1      44.579 -20.455   4.987  1.00  0.00     0.076 A 
HETATM   27  C   UNL     1      44.649 -21.846   5.068  1.00  0.00     0.037 A 
HETATM   28  C   UNL     1      44.638 -22.611   3.902  1.00  0.00     0.003 A 
HETATM   29  C   UNL     1      44.539 -21.984   2.659  1.00  0.00     0.000 A 
HETATM   30  C   UNL     1      44.442 -20.594   2.581  1.00  0.00     0.003 A 
HETATM   31  C   UNL     1      44.453 -19.826   3.746  1.00  0.00     0.037 A 
ENDBRANCH  25  26
ENDBRANCH  22  25
ENDBRANCH   2  19
TORSDOF 6
ENDMDL
MODEL 7
REMARK VINA RESULT:      -8.1      5.013      8.452
REMARK  6 active torsions:
REMARK  status: ('A' for Active; 'I' for Inactive)
REMARK    1  A    between atoms: C_2  and  N_3 
REMARK    2  A    between atoms: C_2  and  C_15 
REMARK    3  A    between atoms: C_5  and  C_6 
REMARK       I    between atoms: C_15  and  N_16 
REMARK    4  A    between atoms: N_16  and  C_17 
REMARK    5  A    between atoms: C_20  and  O_21 
REMARK    6  A    between atoms: O_21  and  C_22 
ROOT
HETATM    1  C   UNL     1      40.766 -16.324   3.792  1.00  0.00     0.253 C 
HETATM    2  N   UNL     1      40.115 -15.127   3.560  1.00  0.00    -0.325 N 
HETATM    3  O   UNL     1      41.130 -17.112   2.921  1.00  0.00    -0.271 OA
HETATM    4  H   UNL     1      39.755 -14.596   4.343  1.00  0.00     0.169 HD
ENDROOT
BRANCH   1   5
HETATM    5  C   UNL     1      41.206 -16.609   5.255  1.00  0.00     0.276 C 
HETATM    6  C   UNL     1      41.012 -15.480   6.262  1.00  0.00     0.050 C 
BRANCH   5   7
HETATM    7  N   UNL     1      42.660 -17.119   5.353  1.00  0.00    -0.049 N 
HETATM    8  H   UNL     1      42.939 -17.378   4.400  1.00  0.00     0.281 HD
HETATM    9  C   UNL     1      42.871 -18.346   6.223  1.00  0.00     0.238 C 
HETATM   10  C   UNL     1      43.517 -17.795   7.486  1.00  0.00     0.041 C 
HETATM   11  C   UNL     1      44.406 -16.676   6.987  1.00  0.00     0.030 C 
HETATM   12  C   UNL     1      43.645 -16.056   5.831  1.00  0.00     0.237 C 
BRANCH   9  13
HETATM   13  C   UNL     1      43.735 -19.360   5.527  1.00  0.00     0.042 A 
HETATM   14  N   UNL     1      44.022 -20.604   6.065  1.00  0.00    -0.363 N 
HETATM   15  C   UNL     1      43.596 -21.123   7.350  1.00  0.00     0.155 C 
HETATM   16  C   UNL     1      44.834 -21.302   5.209  1.00  0.00     0.090 A 
HETATM   17  C   UNL     1      45.100 -20.510   4.120  1.00  0.00     0.019 A 
HETATM   18  C   UNL     1      44.422 -19.289   4.319  1.00  0.00     0.028 A 
ENDBRANCH   9  13
ENDBRANCH   5   7
ENDBRANCH   1   5
BRANCH   2  19
HETATM   19  C   UNL     1      39.806 -14.565   2.296  1.00  0.00     0.035 A 
HETATM   20  C   UNL     1      38.575 -14.710   1.652  1.00  0.00     0.032 A 
HETATM   21  C   UNL     1      38.366 -14.154   0.385  1.00  0.00     0.039 A 
HETATM   22  C   UNL     1      39.378 -13.441  -0.249  1.00  0.00     0.076 A 
HETATM   23  C   UNL     1      40.616 -13.300   0.377  1.00  0.00     0.039 A 
HETATM   24  C   UNL     1      40.824 -13.850   1.647  1.00  0.00     0.032 A 
BRANCH  22  25
HETATM   25  O   UNL     1      39.095 -12.994  -1.519  1.00  0.00    -0.311 OA
BRANCH  25  26
HETATM   26  C   UNL     1      38.884 -13.922  -2.509  1.00  0.00     0.076 A 
HETATM   27  C   UNL     1      39.940 -14.785  -2.804  1.00  0.00     0.037 A 
HETATM   28  C   UNL     1      39.774 -15.783  -3.763  1.00  0.00     0.003 A 
HETATM   29  C   UNL     1      38.548 -15.927  -4.413  1.00  0.00     0.000 A 
HETATM   30  C   UNL     1      37.484 -15.079  -4.099  1.00  0.00     0.003 A 
HETATM   31  C   UNL     1      37.647 -14.080  -3.138  1.00  0.00     0.037 A 
ENDBRANCH  25  26
ENDBRANCH  22  25
ENDBRANCH   2  19
TORSDOF 6
ENDMDL
MODEL 8
REMARK VINA RESULT:      -8.0      1.798      3.398
REMARK  6 active torsions:
REMARK  status: ('A' for Active; 'I' for Inactive)
REMARK    1  A    between atoms: C_2  and  N_3 
REMARK    2  A    between atoms: C_2  and  C_15 
REMARK    3  A    between atoms: C_5  and  C_6 
REMARK       I    between atoms: C_15  and  N_16 
REMARK    4  A    between atoms: N_16  and  C_17 
REMARK    5  A    between atoms: C_20  and  O_21 
REMARK    6  A    between atoms: O_21  and  C_22 
ROOT
HETATM    1  C   UNL     1      41.081 -11.634   6.157  1.00  0.00     0.253 C 
HETATM    2  N   UNL     1      41.240 -12.984   6.409  1.00  0.00    -0.325 N 
HETATM    3  O   UNL     1      41.433 -11.061   5.127  1.00  0.00    -0.271 OA
HETATM    4  H   UNL     1      41.020 -13.347   7.328  1.00  0.00     0.169 HD
ENDROOT
BRANCH   1   5
HETATM    5  C   UNL     1      40.254 -10.822   7.191  1.00  0.00     0.276 C 
HETATM    6  C   UNL     1      39.288  -9.782   6.632  1.00  0.00     0.050 C 
BRANCH   5   7
HETATM    7  N   UNL     1      41.133 -10.155   8.270  1.00  0.00    -0.049 N 
HETATM    8  H   UNL     1      42.078 -10.538   8.149  1.00  0.00     0.281 HD
HETATM    9  C   UNL     1      40.730 -10.425   9.710  1.00  0.00     0.238 C 
HETATM   10  C   UNL     1      40.081  -9.124  10.160  1.00  0.00     0.041 C 
HETATM   11  C   UNL     1      40.887  -8.049   9.462  1.00  0.00     0.030 C 
HETATM   12  C   UNL     1      41.245  -8.641   8.112  1.00  0.00     0.237 C 
BRANCH   9  13
HETATM   13  C   UNL     1      41.924 -10.795  10.545  1.00  0.00     0.042 A 
HETATM   14  N   UNL     1      41.819 -11.285  11.836  1.00  0.00    -0.363 N 
HETATM   15  C   UNL     1      40.604 -11.489  12.600  1.00  0.00     0.155 C 
HETATM   16  C   UNL     1      43.070 -11.525  12.344  1.00  0.00     0.090 A 
HETATM   17  C   UNL     1      43.997 -11.171  11.396  1.00  0.00     0.019 A 
HETATM   18  C   UNL     1      43.285 -10.704  10.272  1.00  0.00     0.028 A 
ENDBRANCH   9  13
ENDBRANCH   5   7
ENDBRANCH   1   5
BRANCH   2  19
HETATM   19  C   UNL     1      41.770 -13.952   5.521  1.00  0.00     0.035 A 
HETATM   20  C   UNL     1      43.046 -13.882   4.954  1.00  0.00     0.032 A 
HETATM   21  C   UNL     1      43.478 -14.862   4.054  1.00  0.00     0.039 A 
HETATM   22  C   UNL     1      42.648 -15.926   3.716  1.00  0.00     0.076 A 
HETATM   23  C   UNL     1      41.369 -16.002   4.265  1.00  0.00     0.039 A 
HETATM   24  C   UNL     1      40.937 -15.024   5.171  1.00  0.00     0.032 A 
BRANCH  22  25
HETATM   25  O   UNL     1      43.140 -16.798   2.773  1.00  0.00    -0.311 OA
BRANCH  25  26
HETATM   26  C   UNL     1      43.618 -18.016   3.192  1.00  0.00     0.076 A 
HETATM   27  C   UNL     1      43.715 -19.023   2.230  1.00  0.00     0.037 A 
HETATM   28  C   UNL     1      44.240 -20.267   2.578  1.00  0.00     0.003 A 
HETATM   29  C   UNL     1      44.683 -20.496   3.881  1.00  0.00     0.000 A 
HETATM   30  C   UNL     1      44.609 -19.479   4.835  1.00  0.00     0.003 A 
HETATM   31  C   UNL     1      44.085 -18.233   4.490  1.00  0.00     0.037 A 
ENDBRANCH  25  26
ENDBRANCH  22  25
ENDBRANCH   2  19
TORSDOF 6
ENDMDL
MODEL 9
REMARK VINA RESULT:      -7.9      6.178      8.306
REMARK  6 active torsions:
REMARK  status: ('A' for Active; 'I' for Inactive)
REMARK    1  A    between atoms: C_2  and  N_3 
REMARK    2  A    between atoms: C_2  and  C_15 
REMARK    3  A    between atoms: C_5  and  C_6 
REMARK       I    between atoms: C_15  and  N_16 
REMARK    4  A    between atoms: N_16  and  C_17 
REMARK    5  A    between atoms: C_20  and  O_21 
REMARK    6  A    between atoms: O_21  and  C_22 
ROOT
HETATM    1  C   UNL     1      39.811 -14.374   2.675  1.00  0.00     0.253 C 
HETATM    2  N   UNL     1      40.435 -15.484   2.137  1.00  0.00    -0.325 N 
HETATM    3  O   UNL     1      40.054 -13.892   3.780  1.00  0.00    -0.271 OA
HETATM    4  H   UNL     1      40.093 -15.874   1.267  1.00  0.00     0.169 HD
ENDROOT
BRANCH   1   5
HETATM    5  C   UNL     1      38.846 -13.592   1.741  1.00  0.00     0.276 C 
HETATM    6  C   UNL     1      37.769 -14.406   1.030  1.00  0.00     0.050 C 
BRANCH   5   7
HETATM    7  N   UNL     1      39.591 -12.733   0.697  1.00  0.00    -0.049 N 
HETATM    8  H   UNL     1      38.969 -11.949   0.472  1.00  0.00     0.281 HD
HETATM    9  C   UNL     1      39.916 -13.426  -0.616  1.00  0.00     0.238 C 
HETATM   10  C   UNL     1      41.411 -13.701  -0.527  1.00  0.00     0.041 C 
HETATM   11  C   UNL     1      41.963 -12.500   0.211  1.00  0.00     0.030 C 
HETATM   12  C   UNL     1      40.892 -12.133   1.221  1.00  0.00     0.237 C 
BRANCH   9  13
HETATM   13  C   UNL     1      39.558 -12.557  -1.789  1.00  0.00     0.042 A 
HETATM   14  N   UNL     1      38.619 -12.921  -2.739  1.00  0.00    -0.363 N 
HETATM   15  C   UNL     1      37.869 -14.161  -2.801  1.00  0.00     0.155 C 
HETATM   16  C   UNL     1      38.511 -11.936  -3.686  1.00  0.00     0.090 A 
HETATM   17  C   UNL     1      39.395 -10.934  -3.372  1.00  0.00     0.019 A 
HETATM   18  C   UNL     1      40.060 -11.323  -2.190  1.00  0.00     0.028 A 
ENDBRANCH   9  13
ENDBRANCH   5   7
ENDBRANCH   1   5
BRANCH   2  19
HETATM   19  C   UNL     1      41.494 -16.223   2.720  1.00  0.00     0.035 A 
HETATM   20  C   UNL     1      42.840 -16.069   2.377  1.00  0.00     0.032 A 
HETATM   21  C   UNL     1      43.821 -16.867   2.974  1.00  0.00     0.039 A 
HETATM   22  C   UNL     1      43.473 -17.820   3.926  1.00  0.00     0.076 A 
HETATM   23  C   UNL     1      42.133 -17.992   4.269  1.00  0.00     0.039 A 
HETATM   24  C   UNL     1      41.151 -17.189   3.676  1.00  0.00     0.032 A 
BRANCH  22  25
HETATM   25  O   UNL     1      44.502 -18.599   4.403  1.00  0.00    -0.311 OA
BRANCH  25  26
HETATM   26  C   UNL     1      44.491 -19.943   4.124  1.00  0.00     0.076 A 
HETATM   27  C   UNL     1      44.314 -20.312   2.789  1.00  0.00     0.037 A 
HETATM   28  C   UNL     1      44.344 -21.659   2.432  1.00  0.00     0.003 A 
HETATM   29  C   UNL     1      44.566 -22.633   3.405  1.00  0.00     0.000 A 
HETATM   30  C   UNL     1      44.768 -22.262   4.735  1.00  0.00     0.003 A 
HETATM   31  C   UNL     1      44.740 -20.914   5.097  1.00  0.00     0.037 A 
ENDBRANCH  25  26
ENDBRANCH  22  25
ENDBRANCH   2  19
TORSDOF 6
ENDMDL
MODEL 10
REMARK VINA RESULT:      -7.8      6.976      8.825
REMARK  6 active torsions:
REMARK  status: ('A' for Active; 'I' for Inactive)
REMARK    1  A    between atoms: C_2  and  N_3 
REMARK    2  A    between atoms: C_2  and  C_15 
REMARK    3  A    between atoms: C_5  and  C_6 
REMARK       I    between atoms: C_15  and  N_16 
REMARK    4  A    between atoms: N_16  and  C_17 
REMARK    5  A    between atoms: C_20  and  O_21 
REMARK    6  A    between atoms: O_21  and  C_22 
ROOT
HETATM    1  C   UNL     1      40.994 -14.886  -0.286  1.00  0.00     0.253 C 
HETATM    2  N   UNL     1      40.939 -16.172   0.219  1.00  0.00    -0.325 N 
HETATM    3  O   UNL     1      41.812 -14.030   0.047  1.00  0.00    -0.271 OA
HETATM    4  H   UNL     1      40.164 -16.773  -0.034  1.00  0.00     0.169 HD
ENDROOT
BRANCH   1   5
HETATM    5  C   UNL     1      40.049 -14.561  -1.476  1.00  0.00     0.276 C 
HETATM    6  C   UNL     1      40.701 -14.008  -2.739  1.00  0.00     0.050 C 
BRANCH   5   7
HETATM    7  N   UNL     1      38.879 -13.638  -1.075  1.00  0.00    -0.049 N 
HETATM    8  H   UNL     1      38.141 -13.790  -1.771  1.00  0.00     0.281 HD
HETATM    9  C   UNL     1      39.183 -12.149  -1.074  1.00  0.00     0.238 C 
HETATM   10  C   UNL     1      39.297 -11.798   0.402  1.00  0.00     0.041 C 
HETATM   11  C   UNL     1      38.260 -12.675   1.071  1.00  0.00     0.030 C 
HETATM   12  C   UNL     1      38.280 -13.973   0.288  1.00  0.00     0.237 C 
BRANCH   9  13
HETATM   13  C   UNL     1      38.098 -11.376  -1.771  1.00  0.00     0.042 A 
HETATM   14  N   UNL     1      38.305 -10.129  -2.337  1.00  0.00    -0.363 N 
HETATM   15  C   UNL     1      39.533  -9.357  -2.333  1.00  0.00     0.155 C 
HETATM   16  C   UNL     1      37.137  -9.672  -2.890  1.00  0.00     0.090 A 
HETATM   17  C   UNL     1      36.157 -10.607  -2.669  1.00  0.00     0.019 A 
HETATM   18  C   UNL     1      36.752 -11.671  -1.959  1.00  0.00     0.028 A 
ENDBRANCH   9  13
ENDBRANCH   5   7
ENDBRANCH   1   5
BRANCH   2  19
HETATM   19  C   UNL     1      41.836 -16.752   1.150  1.00  0.00     0.035 A 
HETATM   20  C   UNL     1      43.198 -16.950   0.910  1.00  0.00     0.032 A 
HETATM   21  C   UNL     1      44.006 -17.567   1.871  1.00  0.00     0.039 A 
HETATM   22  C   UNL     1      43.469 -17.984   3.084  1.00  0.00     0.076 A 
HETATM   23  C   UNL     1      42.109 -17.803   3.332  1.00  0.00     0.039 A 
HETATM   24  C   UNL     1      41.300 -17.180   2.373  1.00  0.00     0.032 A 
BRANCH  22  25
HETATM   25  O   UNL     1      44.331 -18.638   3.932  1.00  0.00    -0.311 OA
BRANCH  25  26
HETATM   26  C   UNL     1      44.463 -20.000   3.810  1.00  0.00     0.076 A 
HETATM   27  C   UNL     1      44.739 -20.717   4.976  1.00  0.00     0.037 A 
HETATM   28  C   UNL     1      44.835 -22.107   4.929  1.00  0.00     0.003 A 
HETATM   29  C   UNL     1      44.638 -22.779   3.722  1.00  0.00     0.000 A 
HETATM   30  C   UNL     1      44.337 -22.062   2.563  1.00  0.00     0.003 A 
HETATM   31  C   UNL     1      44.239 -20.671   2.606  1.00  0.00     0.037 A 
ENDBRANCH  25  26
ENDBRANCH  22  25
ENDBRANCH   2  19
TORSDOF 6
ENDMDL
