MODEL 1
REMARK VINA RESULT:      -9.2      0.000      0.000
REMARK  8 active torsions:
REMARK  status: ('A' for Active; 'I' for Inactive)
REMARK    1  A    between atoms: C_4  and  C_5 
REMARK    2  A    between atoms: C_5  and  C_6 
REMARK    3  A    between atoms: C_6  and  C_7 
REMARK    4  A    between atoms: C_7  and  N_8 
REMARK    5  A    between atoms: C_17  and  C_18 
REMARK    6  A    between atoms: C_18  and  N_19 
REMARK    7  A    between atoms: C_23  and  O_24 
REMARK    8  A    between atoms: C_23  and  C_25 
ROOT
HETATM    1  N   UNL     1      42.776 -16.398   5.398  1.00  0.00    -0.065 N 
HETATM    2  H   UNL     1      43.625 -16.821   5.795  1.00  0.00     0.280 HD
HETATM    3  C   UNL     1      43.148 -14.947   5.160  1.00  0.00     0.276 C 
HETATM    4  C   UNL     1      42.110 -14.119   4.453  1.00  0.00     0.001 A 
HETATM    5  C   UNL     1      40.857 -13.910   5.033  1.00  0.00     0.076 A 
HETATM    6  O   UNL     1      40.554 -14.427   6.261  1.00  0.00    -0.349 OA
HETATM    7  C   UNL     1      40.416 -15.853   6.222  1.00  0.00     0.203 C 
HETATM    8  C   UNL     1      41.747 -16.550   6.519  1.00  0.00     0.261 C 
HETATM    9  C   UNL     1      42.387 -13.497   3.221  1.00  0.00     0.020 A 
HETATM   10  C   UNL     1      41.430 -12.686   2.577  1.00  0.00    -0.032 A 
HETATM   11  C   UNL     1      40.182 -12.502   3.189  1.00  0.00     0.011 A 
HETATM   12  C   UNL     1      39.906 -13.099   4.421  1.00  0.00     0.038 A 
ENDROOT
BRANCH  10  13
HETATM   13  C   UNL     1      41.748 -12.031   1.253  1.00  0.00     0.273 C 
BRANCH  13  14
HETATM   14  N   UNL     1      42.035 -12.986   0.106  1.00  0.00    -0.067 N 
HETATM   15  H   UNL     1      42.928 -13.450   0.326  1.00  0.00     0.280 HD
HETATM   16  C   UNL     1      40.995 -14.073  -0.038  1.00  0.00     0.238 C 
HETATM   17  C   UNL     1      41.355 -14.980  -1.201  1.00  0.00     0.071 C 
HETATM   18  C   UNL     1      41.414 -14.203  -2.531  1.00  0.00     0.089 C 
HETATM   19  C   UNL     1      42.502 -13.126  -2.353  1.00  0.00     0.071 C 
HETATM   20  C   UNL     1      42.240 -12.201  -1.174  1.00  0.00     0.238 C 
BRANCH  18  21
HETATM   21  O   UNL     1      41.913 -15.117  -3.510  1.00  0.00    -0.385 OA
HETATM   22  H   UNL     1      42.065 -14.655  -4.356  1.00  0.00     0.211 HD
ENDBRANCH  18  21
BRANCH  18  23
HETATM   23  C   UNL     1      40.044 -13.715  -2.986  1.00  0.00    -0.006 A 
HETATM   24  C   UNL     1      39.803 -12.417  -3.435  1.00  0.00     0.126 A 
HETATM   25  N   UNL     1      38.588 -11.931  -3.764  1.00  0.00    -0.272 NA
HETATM   26  C   UNL     1      37.548 -12.787  -3.739  1.00  0.00     0.116 A 
HETATM   27  C   UNL     1      37.675 -14.114  -3.378  1.00  0.00     0.020 A 
HETATM   28  C   UNL     1      38.935 -14.578  -3.003  1.00  0.00     0.013 A 
ENDBRANCH  18  23
ENDBRANCH  13  14
ENDBRANCH  10  13
BRANCH   1  29
HETATM   29  C   UNL     1      42.429 -17.216   4.171  1.00  0.00     0.236 C 
BRANCH  29  30
HETATM   30  C   UNL     1      43.638 -17.848   3.486  1.00  0.00     0.039 C 
BRANCH  30  31
HETATM   31  C   UNL     1      43.343 -18.687   2.229  1.00  0.00     0.040 C 
HETATM   32  C   UNL     1      43.952 -18.067   0.970  1.00  0.00     0.017 C 
BRANCH  31  33
HETATM   33  C   UNL     1      43.813 -20.087   2.454  1.00  0.00     0.057 A 
HETATM   34  O   UNL     1      44.246 -20.363   3.722  1.00  0.00    -0.319 OA
HETATM   35  C   UNL     1      44.618 -21.675   3.739  1.00  0.00     0.049 A 
HETATM   36  C   UNL     1      45.097 -22.223   5.024  1.00  0.00     0.076 C 
HETATM   37  C   UNL     1      44.449 -22.232   2.490  1.00  0.00     0.035 A 
HETATM   38  C   UNL     1      43.935 -21.209   1.660  1.00  0.00     0.035 A 
ENDBRANCH  31  33
ENDBRANCH  30  31
ENDBRANCH  29  30
ENDBRANCH   1  29
TORSDOF 8
ENDMDL
MODEL 2
REMARK VINA RESULT:      -9.0      3.157      6.740
REMARK  8 active torsions:
REMARK  status: ('A' for Active; 'I' for Inactive)
REMARK    1  A    between atoms: C_4  and  C_5 
REMARK    2  A    between atoms: C_5  and  C_6 
REMARK    3  A    between atoms: C_6  and  C_7 
REMARK    4  A    between atoms: C_7  and  N_8 
REMARK    5  A    between atoms: C_17  and  C_18 
REMARK    6  A    between atoms: C_18  and  N_19 
REMARK    7  A    between atoms: C_23  and  O_24 
REMARK    8  A    between atoms: C_23  and  C_25 
ROOT
HETATM    1  N   UNL     1      42.406 -17.529   6.545  1.00  0.00    -0.065 N 
HETATM    2  H   UNL     1      41.826 -17.694   7.378  1.00  0.00     0.280 HD
HETATM    3  C   UNL     1      41.599 -18.105   5.397  1.00  0.00     0.276 C 
HETATM    4  C   UNL     1      42.170 -17.876   4.024  1.00  0.00     0.001 A 
HETATM    5  C   UNL     1      43.413 -18.408   3.679  1.00  0.00     0.076 A 
HETATM    6  O   UNL     1      44.127 -19.165   4.563  1.00  0.00    -0.349 OA
HETATM    7  C   UNL     1      44.645 -18.380   5.645  1.00  0.00     0.203 C 
HETATM    8  C   UNL     1      43.669 -18.345   6.824  1.00  0.00     0.261 C 
HETATM    9  C   UNL     1      41.449 -17.168   3.043  1.00  0.00     0.020 A 
HETATM   10  C   UNL     1      41.965 -16.989   1.742  1.00  0.00    -0.032 A 
HETATM   11  C   UNL     1      43.218 -17.535   1.434  1.00  0.00     0.011 A 
HETATM   12  C   UNL     1      43.930 -18.256   2.395  1.00  0.00     0.038 A 
ENDROOT
BRANCH  10  13
HETATM   13  C   UNL     1      41.176 -16.222   0.706  1.00  0.00     0.273 C 
BRANCH  13  14
HETATM   14  N   UNL     1      41.272 -14.708   0.804  1.00  0.00    -0.067 N 
HETATM   15  H   UNL     1      41.669 -14.380  -0.089  1.00  0.00     0.280 HD
HETATM   16  C   UNL     1      39.928 -14.036   0.963  1.00  0.00     0.238 C 
HETATM   17  C   UNL     1      40.111 -12.532   1.052  1.00  0.00     0.071 C 
HETATM   18  C   UNL     1      40.984 -12.135   2.258  1.00  0.00     0.089 C 
HETATM   19  C   UNL     1      42.350 -12.816   2.044  1.00  0.00     0.071 C 
HETATM   20  C   UNL     1      42.249 -14.327   1.897  1.00  0.00     0.238 C 
BRANCH  18  21
HETATM   21  O   UNL     1      41.215 -10.730   2.145  1.00  0.00    -0.385 OA
HETATM   22  H   UNL     1      40.773 -10.255   2.873  1.00  0.00     0.211 HD
ENDBRANCH  18  21
BRANCH  18  23
HETATM   23  C   UNL     1      40.296 -12.401   3.593  1.00  0.00    -0.006 A 
HETATM   24  C   UNL     1      39.238 -11.632   4.075  1.00  0.00     0.126 A 
HETATM   25  N   UNL     1      38.664 -11.788   5.287  1.00  0.00    -0.272 NA
HETATM   26  C   UNL     1      39.088 -12.817   6.047  1.00  0.00     0.116 A 
HETATM   27  C   UNL     1      40.082 -13.688   5.647  1.00  0.00     0.020 A 
HETATM   28  C   UNL     1      40.685 -13.477   4.409  1.00  0.00     0.013 A 
ENDBRANCH  18  23
ENDBRANCH  13  14
ENDBRANCH  10  13
BRANCH   1  29
HETATM   29  C   UNL     1      42.671 -16.038   6.502  1.00  0.00     0.236 C 
BRANCH  29  30
HETATM   30  C   UNL     1      43.892 -15.602   7.309  1.00  0.00     0.039 C 
BRANCH  30  31
HETATM   31  C   UNL     1      44.816 -14.571   6.636  1.00  0.00     0.040 C 
HETATM   32  C   UNL     1      44.189 -13.977   5.374  1.00  0.00     0.017 C 
BRANCH  31  33
HETATM   33  C   UNL     1      45.184 -13.520   7.633  1.00  0.00     0.057 A 
HETATM   34  O   UNL     1      44.425 -13.502   8.771  1.00  0.00    -0.319 OA
HETATM   35  C   UNL     1      44.911 -12.498   9.558  1.00  0.00     0.049 A 
HETATM   36  C   UNL     1      44.267 -12.299  10.871  1.00  0.00     0.076 C 
HETATM   37  C   UNL     1      45.956 -11.862   8.923  1.00  0.00     0.035 A 
HETATM   38  C   UNL     1      46.129 -12.517   7.681  1.00  0.00     0.035 A 
ENDBRANCH  31  33
ENDBRANCH  30  31
ENDBRANCH  29  30
ENDBRANCH   1  29
TORSDOF 8
ENDMDL
MODEL 3
REMARK VINA RESULT:      -8.9      1.607      4.989
REMARK  8 active torsions:
REMARK  status: ('A' for Active; 'I' for Inactive)
REMARK    1  A    between atoms: C_4  and  C_5 
REMARK    2  A    between atoms: C_5  and  C_6 
REMARK    3  A    between atoms: C_6  and  C_7 
REMARK    4  A    between atoms: C_7  and  N_8 
REMARK    5  A    between atoms: C_17  and  C_18 
REMARK    6  A    between atoms: C_18  and  N_19 
REMARK    7  A    between atoms: C_23  and  O_24 
REMARK    8  A    between atoms: C_23  and  C_25 
ROOT
HETATM    1  N   UNL     1      43.533 -18.225   6.151  1.00  0.00    -0.065 N 
HETATM    2  H   UNL     1      43.200 -18.375   7.112  1.00  0.00     0.280 HD
HETATM    3  C   UNL     1      42.302 -18.414   5.285  1.00  0.00     0.276 C 
HETATM    4  C   UNL     1      42.486 -18.118   3.822  1.00  0.00     0.001 A 
HETATM    5  C   UNL     1      43.382 -18.867   3.058  1.00  0.00     0.076 A 
HETATM    6  O   UNL     1      44.090 -19.897   3.609  1.00  0.00    -0.349 OA
HETATM    7  C   UNL     1      45.093 -19.430   4.519  1.00  0.00     0.203 C 
HETATM    8  C   UNL     1      44.552 -19.348   5.950  1.00  0.00     0.261 C 
HETATM    9  C   UNL     1      41.730 -17.119   3.178  1.00  0.00     0.020 A 
HETATM   10  C   UNL     1      41.872 -16.869   1.798  1.00  0.00    -0.032 A 
HETATM   11  C   UNL     1      42.784 -17.640   1.063  1.00  0.00     0.011 A 
HETATM   12  C   UNL     1      43.522 -18.646   1.690  1.00  0.00     0.038 A 
ENDROOT
BRANCH  10  13
HETATM   13  C   UNL     1      41.054 -15.789   1.128  1.00  0.00     0.273 C 
BRANCH  13  14
HETATM   14  N   UNL     1      41.589 -15.300  -0.208  1.00  0.00    -0.067 N 
HETATM   15  H   UNL     1      42.563 -15.630  -0.274  1.00  0.00     0.280 HD
HETATM   16  C   UNL     1      40.846 -15.873  -1.392  1.00  0.00     0.238 C 
HETATM   17  C   UNL     1      41.441 -15.337  -2.682  1.00  0.00     0.071 C 
HETATM   18  C   UNL     1      41.340 -13.800  -2.759  1.00  0.00     0.089 C 
HETATM   19  C   UNL     1      42.131 -13.256  -1.553  1.00  0.00     0.071 C 
HETATM   20  C   UNL     1      41.627 -13.785  -0.219  1.00  0.00     0.238 C 
BRANCH  18  21
HETATM   21  O   UNL     1      42.067 -13.407  -3.925  1.00  0.00    -0.385 OA
HETATM   22  H   UNL     1      41.941 -12.454  -4.094  1.00  0.00     0.211 HD
ENDBRANCH  18  21
BRANCH  18  23
HETATM   23  C   UNL     1      39.903 -13.313  -2.903  1.00  0.00    -0.006 A 
HETATM   24  C   UNL     1      39.483 -12.040  -2.520  1.00  0.00     0.126 A 
HETATM   25  N   UNL     1      38.205 -11.609  -2.557  1.00  0.00    -0.272 NA
HETATM   26  C   UNL     1      37.283 -12.440  -3.083  1.00  0.00     0.116 A 
HETATM   27  C   UNL     1      37.591 -13.699  -3.559  1.00  0.00     0.020 A 
HETATM   28  C   UNL     1      38.912 -14.133  -3.470  1.00  0.00     0.013 A 
ENDBRANCH  18  23
ENDBRANCH  13  14
ENDBRANCH  10  13
BRANCH   1  29
HETATM   29  C   UNL     1      44.167 -16.850   6.132  1.00  0.00     0.236 C 
BRANCH  29  30
HETATM   30  C   UNL     1      43.430 -15.816   6.981  1.00  0.00     0.039 C 
BRANCH  30  31
HETATM   31  C   UNL     1      43.757 -14.340   6.687  1.00  0.00     0.040 C 
HETATM   32  C   UNL     1      45.245 -14.036   6.866  1.00  0.00     0.017 C 
BRANCH  31  33
HETATM   33  C   UNL     1      43.270 -13.996   5.317  1.00  0.00     0.057 A 
HETATM   34  O   UNL     1      41.946 -13.662   5.232  1.00  0.00    -0.319 OA
HETATM   35  C   UNL     1      41.692 -13.370   3.924  1.00  0.00     0.049 A 
HETATM   36  C   UNL     1      40.319 -12.945   3.583  1.00  0.00     0.076 C 
HETATM   37  C   UNL     1      42.833 -13.537   3.171  1.00  0.00     0.035 A 
HETATM   38  C   UNL     1      43.849 -13.944   4.066  1.00  0.00     0.035 A 
ENDBRANCH  31  33
ENDBRANCH  30  31
ENDBRANCH  29  30
ENDBRANCH   1  29
TORSDOF 8
ENDMDL
MODEL 4
REMARK VINA RESULT:      -8.9      3.983      8.359
REMARK  8 active torsions:
REMARK  status: ('A' for Active; 'I' for Inactive)
REMARK    1  A    between atoms: C_4  and  C_5 
REMARK    2  A    between atoms: C_5  and  C_6 
REMARK    3  A    between atoms: C_6  and  C_7 
REMARK    4  A    between atoms: C_7  and  N_8 
REMARK    5  A    between atoms: C_17  and  C_18 
REMARK    6  A    between atoms: C_18  and  N_19 
REMARK    7  A    between atoms: C_23  and  O_24 
REMARK    8  A    between atoms: C_23  and  C_25 
ROOT
HETATM    1  N   UNL     1      41.351 -16.645   1.039  1.00  0.00    -0.065 N 
HETATM    2  H   UNL     1      41.287 -17.644   0.804  1.00  0.00     0.280 HD
HETATM    3  C   UNL     1      40.220 -16.409   2.021  1.00  0.00     0.276 C 
HETATM    4  C   UNL     1      40.168 -15.035   2.632  1.00  0.00     0.001 A 
HETATM    5  C   UNL     1      39.971 -13.911   1.828  1.00  0.00     0.076 A 
HETATM    6  O   UNL     1      39.795 -14.032   0.479  1.00  0.00    -0.349 OA
HETATM    7  C   UNL     1      41.002 -14.425  -0.185  1.00  0.00     0.203 C 
HETATM    8  C   UNL     1      41.103 -15.949  -0.300  1.00  0.00     0.261 C 
HETATM    9  C   UNL     1      40.266 -14.852   4.025  1.00  0.00     0.020 A 
HETATM   10  C   UNL     1      40.176 -13.569   4.603  1.00  0.00    -0.032 A 
HETATM   11  C   UNL     1      39.980 -12.464   3.763  1.00  0.00     0.011 A 
HETATM   12  C   UNL     1      39.861 -12.639   2.383  1.00  0.00     0.038 A 
ENDROOT
BRANCH  10  13
HETATM   13  C   UNL     1      40.288 -13.395   6.100  1.00  0.00     0.273 C 
BRANCH  13  14
HETATM   14  N   UNL     1      40.226 -11.959   6.596  1.00  0.00    -0.067 N 
HETATM   15  H   UNL     1      39.727 -11.420   5.874  1.00  0.00     0.280 HD
HETATM   16  C   UNL     1      39.446 -11.806   7.881  1.00  0.00     0.238 C 
HETATM   17  C   UNL     1      39.432 -10.349   8.305  1.00  0.00     0.071 C 
HETATM   18  C   UNL     1      40.857  -9.814   8.550  1.00  0.00     0.089 C 
HETATM   19  C   UNL     1      41.608  -9.961   7.212  1.00  0.00     0.071 C 
HETATM   20  C   UNL     1      41.627 -11.390   6.692  1.00  0.00     0.238 C 
BRANCH  18  21
HETATM   21  O   UNL     1      40.726  -8.410   8.783  1.00  0.00    -0.385 OA
HETATM   22  H   UNL     1      40.199  -7.998   8.073  1.00  0.00     0.211 HD
ENDBRANCH  18  21
BRANCH  18  23
HETATM   23  C   UNL     1      41.517 -10.442   9.772  1.00  0.00    -0.006 A 
HETATM   24  C   UNL     1      40.810 -10.831  10.910  1.00  0.00     0.126 A 
HETATM   25  N   UNL     1      41.375 -11.311  12.038  1.00  0.00    -0.272 NA
HETATM   26  C   UNL     1      42.708 -11.510  12.030  1.00  0.00     0.116 A 
HETATM   27  C   UNL     1      43.504 -11.228  10.938  1.00  0.00     0.020 A 
HETATM   28  C   UNL     1      42.899 -10.694   9.802  1.00  0.00     0.013 A 
ENDBRANCH  18  23
ENDBRANCH  13  14
ENDBRANCH  10  13
BRANCH   1  29
HETATM   29  C   UNL     1      42.756 -16.423   1.561  1.00  0.00     0.236 C 
BRANCH  29  30
HETATM   30  C   UNL     1      43.621 -17.682   1.568  1.00  0.00     0.039 C 
BRANCH  30  31
HETATM   31  C   UNL     1      43.065 -18.881   2.359  1.00  0.00     0.040 C 
HETATM   32  C   UNL     1      43.842 -20.167   2.070  1.00  0.00     0.017 C 
BRANCH  31  33
HETATM   33  C   UNL     1      43.052 -18.543   3.814  1.00  0.00     0.057 A 
HETATM   34  O   UNL     1      44.271 -18.571   4.433  1.00  0.00    -0.319 OA
HETATM   35  C   UNL     1      44.064 -18.227   5.737  1.00  0.00     0.049 A 
HETATM   36  C   UNL     1      45.252 -18.155   6.612  1.00  0.00     0.076 C 
HETATM   37  C   UNL     1      42.723 -18.003   5.961  1.00  0.00     0.035 A 
HETATM   38  C   UNL     1      42.070 -18.212   4.724  1.00  0.00     0.035 A 
ENDBRANCH  31  33
ENDBRANCH  30  31
ENDBRANCH  29  30
ENDBRANCH   1  29
TORSDOF 8
ENDMDL
MODEL 5
REMARK VINA RESULT:      -8.8      2.191      5.562
REMARK  8 active torsions:
REMARK  status: ('A' for Active; 'I' for Inactive)
REMARK    1  A    between atoms: C_4  and  C_5 
REMARK    2  A    between atoms: C_5  and  C_6 
REMARK    3  A    between atoms: C_6  and  C_7 
REMARK    4  A    between atoms: C_7  and  N_8 
REMARK    5  A    between atoms: C_17  and  C_18 
REMARK    6  A    between atoms: C_18  and  N_19 
REMARK    7  A    between atoms: C_23  and  O_24 
REMARK    8  A    between atoms: C_23  and  C_25 
ROOT
HETATM    1  N   UNL     1      43.723 -16.736   6.987  1.00  0.00    -0.065 N 
HETATM    2  H   UNL     1      43.569 -16.519   7.980  1.00  0.00     0.280 HD
HETATM    3  C   UNL     1      42.425 -17.372   6.529  1.00  0.00     0.276 C 
HETATM    4  C   UNL     1      42.334 -17.672   5.057  1.00  0.00     0.001 A 
HETATM    5  C   UNL     1      43.217 -18.575   4.465  1.00  0.00     0.076 A 
HETATM    6  O   UNL     1      44.164 -19.225   5.205  1.00  0.00    -0.349 OA
HETATM    7  C   UNL     1      45.200 -18.338   5.646  1.00  0.00     0.203 C 
HETATM    8  C   UNL     1      44.875 -17.741   7.018  1.00  0.00     0.261 C 
HETATM    9  C   UNL     1      41.332 -17.093   4.255  1.00  0.00     0.020 A 
HETATM   10  C   UNL     1      41.219 -17.405   2.885  1.00  0.00    -0.032 A 
HETATM   11  C   UNL     1      42.127 -18.314   2.324  1.00  0.00     0.011 A 
HETATM   12  C   UNL     1      43.110 -18.909   3.117  1.00  0.00     0.038 A 
ENDROOT
BRANCH  10  13
HETATM   13  C   UNL     1      40.139 -16.768   2.041  1.00  0.00     0.273 C 
BRANCH  13  14
HETATM   14  N   UNL     1      40.551 -15.510   1.295  1.00  0.00    -0.067 N 
HETATM   15  H   UNL     1      41.161 -14.977   1.931  1.00  0.00     0.280 HD
HETATM   16  C   UNL     1      41.354 -15.794   0.047  1.00  0.00     0.238 C 
HETATM   17  C   UNL     1      41.725 -14.490  -0.635  1.00  0.00     0.071 C 
HETATM   18  C   UNL     1      40.475 -13.690  -1.051  1.00  0.00     0.089 C 
HETATM   19  C   UNL     1      39.700 -13.397   0.249  1.00  0.00     0.071 C 
HETATM   20  C   UNL     1      39.331 -14.655   1.021  1.00  0.00     0.238 C 
BRANCH  18  21
HETATM   21  O   UNL     1      40.944 -12.429  -1.530  1.00  0.00    -0.385 OA
HETATM   22  H   UNL     1      41.551 -12.558  -2.283  1.00  0.00     0.211 HD
ENDBRANCH  18  21
BRANCH  18  23
HETATM   23  C   UNL     1      39.691 -14.366  -2.170  1.00  0.00    -0.006 A 
HETATM   24  C   UNL     1      40.269 -15.238  -3.091  1.00  0.00     0.126 A 
HETATM   25  N   UNL     1      39.622 -15.785  -4.142  1.00  0.00    -0.272 NA
HETATM   26  C   UNL     1      38.303 -15.538  -4.257  1.00  0.00     0.116 A 
HETATM   27  C   UNL     1      37.606 -14.746  -3.367  1.00  0.00     0.020 A 
HETATM   28  C   UNL     1      38.308 -14.160  -2.315  1.00  0.00     0.013 A 
ENDBRANCH  18  23
ENDBRANCH  13  14
ENDBRANCH  10  13
BRANCH   1  29
HETATM   29  C   UNL     1      44.106 -15.429   6.323  1.00  0.00     0.236 C 
BRANCH  29  30
HETATM   30  C   UNL     1      42.926 -14.493   6.070  1.00  0.00     0.039 C 
BRANCH  30  31
HETATM   31  C   UNL     1      42.991 -13.652   4.782  1.00  0.00     0.040 C 
HETATM   32  C   UNL     1      43.603 -14.433   3.619  1.00  0.00     0.017 C 
BRANCH  31  33
HETATM   33  C   UNL     1      41.624 -13.141   4.463  1.00  0.00     0.057 A 
HETATM   34  O   UNL     1      41.585 -11.945   3.801  1.00  0.00    -0.319 OA
HETATM   35  C   UNL     1      40.271 -11.649   3.587  1.00  0.00     0.049 A 
HETATM   36  C   UNL     1      39.971 -10.404   2.851  1.00  0.00     0.076 C 
HETATM   37  C   UNL     1      39.470 -12.632   4.126  1.00  0.00     0.035 A 
HETATM   38  C   UNL     1      40.340 -13.592   4.695  1.00  0.00     0.035 A 
ENDBRANCH  31  33
ENDBRANCH  30  31
ENDBRANCH  29  30
ENDBRANCH   1  29
TORSDOF 8
ENDMDL
MODEL 6
REMARK VINA RESULT:      -8.8      3.145      5.861
REMARK  8 active torsions:
REMARK  status: ('A' for Active; 'I' for Inactive)
REMARK    1  A    between atoms: C_4  and  C_5 
REMARK    2  A    between atoms: C_5  and  C_6 
REMARK    3  A    between atoms: C_6  and  C_7 
REMARK    4  A    between atoms: C_7  and  N_8 
REMARK    5  A    between atoms: C_17  and  C_18 
REMARK    6  A    between atoms: C_18  and  N_19 
REMARK    7  A    between atoms: C_23  and  O_24 
REMARK    8  A    between atoms: C_23  and  C_25 
ROOT
HETATM    1  N   UNL     1      42.383 -15.696   6.668  1.00  0.00    -0.065 N 
HETATM    2  H   UNL     1      42.243 -15.341   7.622  1.00  0.00     0.280 HD
HETATM    3  C   UNL     1      41.030 -15.543   5.999  1.00  0.00     0.276 C 
HETATM    4  C   UNL     1      40.990 -15.875   4.533  1.00  0.00     0.001 A 
HETATM    5  C   UNL     1      41.283 -17.167   4.093  1.00  0.00     0.076 A 
HETATM    6  O   UNL     1      41.586 -18.162   4.979  1.00  0.00    -0.349 OA
HETATM    7  C   UNL     1      42.869 -17.964   5.587  1.00  0.00     0.203 C 
HETATM    8  C   UNL     1      42.751 -17.165   6.888  1.00  0.00     0.261 C 
HETATM    9  C   UNL     1      40.610 -14.914   3.577  1.00  0.00     0.020 A 
HETATM   10  C   UNL     1      40.532 -15.235   2.206  1.00  0.00    -0.032 A 
HETATM   11  C   UNL     1      40.836 -16.543   1.802  1.00  0.00     0.011 A 
HETATM   12  C   UNL     1      41.193 -17.507   2.746  1.00  0.00     0.038 A 
ENDROOT
BRANCH  10  13
HETATM   13  C   UNL     1      40.126 -14.186   1.196  1.00  0.00     0.273 C 
BRANCH  13  14
HETATM   14  N   UNL     1      39.847 -14.704  -0.205  1.00  0.00    -0.067 N 
HETATM   15  H   UNL     1      39.429 -15.639  -0.096  1.00  0.00     0.280 HD
HETATM   16  C   UNL     1      38.851 -13.859  -0.965  1.00  0.00     0.238 C 
HETATM   17  C   UNL     1      38.629 -14.442  -2.348  1.00  0.00     0.071 C 
HETATM   18  C   UNL     1      39.936 -14.482  -3.165  1.00  0.00     0.089 C 
HETATM   19  C   UNL     1      40.913 -15.373  -2.373  1.00  0.00     0.071 C 
HETATM   20  C   UNL     1      41.153 -14.882  -0.954  1.00  0.00     0.238 C 
BRANCH  18  21
HETATM   21  O   UNL     1      39.637 -15.188  -4.370  1.00  0.00    -0.385 OA
HETATM   22  H   UNL     1      40.424 -15.222  -4.946  1.00  0.00     0.211 HD
ENDBRANCH  18  21
BRANCH  18  23
HETATM   23  C   UNL     1      40.436 -13.090  -3.538  1.00  0.00    -0.006 A 
HETATM   24  C   UNL     1      39.588 -12.034  -3.868  1.00  0.00     0.126 A 
HETATM   25  N   UNL     1      40.002 -10.818  -4.283  1.00  0.00    -0.272 NA
HETATM   26  C   UNL     1      41.328 -10.583  -4.294  1.00  0.00     0.116 A 
HETATM   27  C   UNL     1      42.263 -11.528  -3.923  1.00  0.00     0.020 A 
HETATM   28  C   UNL     1      41.809 -12.789  -3.538  1.00  0.00     0.013 A 
ENDBRANCH  18  23
ENDBRANCH  13  14
ENDBRANCH  10  13
BRANCH   1  29
HETATM   29  C   UNL     1      43.523 -14.890   6.078  1.00  0.00     0.236 C 
BRANCH  29  30
HETATM   30  C   UNL     1      43.874 -13.638   6.878  1.00  0.00     0.039 C 
BRANCH  30  31
HETATM   31  C   UNL     1      45.261 -13.627   7.545  1.00  0.00     0.040 C 
HETATM   32  C   UNL     1      46.379 -13.347   6.539  1.00  0.00     0.017 C 
BRANCH  31  33
HETATM   33  C   UNL     1      45.255 -12.644   8.670  1.00  0.00     0.057 A 
HETATM   34  O   UNL     1      44.380 -12.920   9.685  1.00  0.00    -0.319 OA
HETATM   35  C   UNL     1      44.523 -11.933  10.615  1.00  0.00     0.049 A 
HETATM   36  C   UNL     1      43.696 -12.030  11.834  1.00  0.00     0.076 C 
HETATM   37  C   UNL     1      45.464 -11.018  10.194  1.00  0.00     0.035 A 
HETATM   38  C   UNL     1      45.932 -11.472   8.940  1.00  0.00     0.035 A 
ENDBRANCH  31  33
ENDBRANCH  30  31
ENDBRANCH  29  30
ENDBRANCH   1  29
TORSDOF 8
ENDMDL
MODEL 7
REMARK VINA RESULT:      -8.8      2.652      5.699
REMARK  8 active torsions:
REMARK  status: ('A' for Active; 'I' for Inactive)
REMARK    1  A    between atoms: C_4  and  C_5 
REMARK    2  A    between atoms: C_5  and  C_6 
REMARK    3  A    between atoms: C_6  and  C_7 
REMARK    4  A    between atoms: C_7  and  N_8 
REMARK    5  A    between atoms: C_17  and  C_18 
REMARK    6  A    between atoms: C_18  and  N_19 
REMARK    7  A    between atoms: C_23  and  O_24 
REMARK    8  A    between atoms: C_23  and  C_25 
ROOT
HETATM    1  N   UNL     1      43.622 -18.332   6.471  1.00  0.00    -0.065 N 
HETATM    2  H   UNL     1      43.162 -18.430   7.385  1.00  0.00     0.280 HD
HETATM    3  C   UNL     1      42.485 -18.117   5.491  1.00  0.00     0.276 C 
HETATM    4  C   UNL     1      42.897 -17.812   4.076  1.00  0.00     0.001 A 
HETATM    5  C   UNL     1      43.623 -18.746   3.335  1.00  0.00     0.076 A 
HETATM    6  O   UNL     1      43.954 -19.962   3.863  1.00  0.00    -0.349 OA
HETATM    7  C   UNL     1      44.947 -19.847   4.890  1.00  0.00     0.203 C 
HETATM    8  C   UNL     1      44.304 -19.687   6.271  1.00  0.00     0.261 C 
HETATM    9  C   UNL     1      42.522 -16.608   3.450  1.00  0.00     0.020 A 
HETATM   10  C   UNL     1      42.871 -16.338   2.111  1.00  0.00    -0.032 A 
HETATM   11  C   UNL     1      43.603 -17.299   1.399  1.00  0.00     0.011 A 
HETATM   12  C   UNL     1      43.961 -18.504   2.006  1.00  0.00     0.038 A 
ENDROOT
BRANCH  10  13
HETATM   13  C   UNL     1      42.461 -15.038   1.460  1.00  0.00     0.273 C 
BRANCH  13  14
HETATM   14  N   UNL     1      41.247 -15.119   0.550  1.00  0.00    -0.067 N 
HETATM   15  H   UNL     1      40.670 -15.898   0.897  1.00  0.00     0.280 HD
HETATM   16  C   UNL     1      40.386 -13.878   0.593  1.00  0.00     0.238 C 
HETATM   17  C   UNL     1      39.200 -14.040  -0.340  1.00  0.00     0.071 C 
HETATM   18  C   UNL     1      39.649 -14.253  -1.799  1.00  0.00     0.089 C 
HETATM   19  C   UNL     1      40.498 -15.539  -1.805  1.00  0.00     0.071 C 
HETATM   20  C   UNL     1      41.685 -15.476  -0.856  1.00  0.00     0.238 C 
BRANCH  18  21
HETATM   21  O   UNL     1      38.467 -14.550  -2.545  1.00  0.00    -0.385 OA
HETATM   22  H   UNL     1      38.186 -13.768  -3.056  1.00  0.00     0.211 HD
ENDBRANCH  18  21
BRANCH  18  23
HETATM   23  C   UNL     1      40.295 -13.010  -2.401  1.00  0.00    -0.006 A 
HETATM   24  C   UNL     1      39.925 -11.711  -2.056  1.00  0.00     0.126 A 
HETATM   25  N   UNL     1      40.418 -10.594  -2.631  1.00  0.00    -0.272 NA
HETATM   26  C   UNL     1      41.400 -10.744  -3.541  1.00  0.00     0.116 A 
HETATM   27  C   UNL     1      41.898 -11.977  -3.914  1.00  0.00     0.020 A 
HETATM   28  C   UNL     1      41.341 -13.115  -3.334  1.00  0.00     0.013 A 
ENDBRANCH  18  23
ENDBRANCH  13  14
ENDBRANCH  10  13
BRANCH   1  29
HETATM   29  C   UNL     1      44.614 -17.195   6.615  1.00  0.00     0.236 C 
BRANCH  29  30
HETATM   30  C   UNL     1      44.021 -15.930   7.231  1.00  0.00     0.039 C 
BRANCH  30  31
HETATM   31  C   UNL     1      44.284 -14.618   6.471  1.00  0.00     0.040 C 
HETATM   32  C   UNL     1      42.998 -14.018   5.901  1.00  0.00     0.017 C 
BRANCH  31  33
HETATM   33  C   UNL     1      45.001 -13.666   7.372  1.00  0.00     0.057 A 
HETATM   34  O   UNL     1      44.399 -13.434   8.578  1.00  0.00    -0.319 OA
HETATM   35  C   UNL     1      45.195 -12.562   9.260  1.00  0.00     0.049 A 
HETATM   36  C   UNL     1      44.765 -12.180  10.620  1.00  0.00     0.076 C 
HETATM   37  C   UNL     1      46.286 -12.217   8.493  1.00  0.00     0.035 A 
HETATM   38  C   UNL     1      46.160 -12.924   7.275  1.00  0.00     0.035 A 
ENDBRANCH  31  33
ENDBRANCH  30  31
ENDBRANCH  29  30
ENDBRANCH   1  29
TORSDOF 8
ENDMDL
MODEL 8
REMARK VINA RESULT:      -8.7      1.949      2.939
REMARK  8 active torsions:
REMARK  status: ('A' for Active; 'I' for Inactive)
REMARK    1  A    between atoms: C_4  and  C_5 
REMARK    2  A    between atoms: C_5  and  C_6 
REMARK    3  A    between atoms: C_6  and  C_7 
REMARK    4  A    between atoms: C_7  and  N_8 
REMARK    5  A    between atoms: C_17  and  C_18 
REMARK    6  A    between atoms: C_18  and  N_19 
REMARK    7  A    between atoms: C_23  and  O_24 
REMARK    8  A    between atoms: C_23  and  C_25 
ROOT
HETATM    1  N   UNL     1      43.064 -16.318   5.511  1.00  0.00    -0.065 N 
HETATM    2  H   UNL     1      43.959 -16.229   6.008  1.00  0.00     0.280 HD
HETATM    3  C   UNL     1      43.135 -15.283   4.405  1.00  0.00     0.276 C 
HETATM    4  C   UNL     1      41.987 -15.291   3.433  1.00  0.00     0.001 A 
HETATM    5  C   UNL     1      40.689 -15.024   3.872  1.00  0.00     0.076 A 
HETATM    6  O   UNL     1      40.434 -14.724   5.180  1.00  0.00    -0.349 OA
HETATM    7  C   UNL     1      40.599 -15.864   6.032  1.00  0.00     0.203 C 
HETATM    8  C   UNL     1      42.029 -15.950   6.576  1.00  0.00     0.261 C 
HETATM    9  C   UNL     1      42.195 -15.518   2.060  1.00  0.00     0.020 A 
HETATM   10  C   UNL     1      41.125 -15.485   1.141  1.00  0.00    -0.032 A 
HETATM   11  C   UNL     1      39.835 -15.215   1.619  1.00  0.00     0.011 A 
HETATM   12  C   UNL     1      39.624 -14.969   2.977  1.00  0.00     0.038 A 
ENDROOT
BRANCH  10  13
HETATM   13  C   UNL     1      41.372 -15.735  -0.329  1.00  0.00     0.273 C 
BRANCH  13  14
HETATM   14  N   UNL     1      40.268 -15.266  -1.263  1.00  0.00    -0.067 N 
HETATM   15  H   UNL     1      39.488 -15.930  -1.154  1.00  0.00     0.280 HD
HETATM   16  C   UNL     1      39.736 -13.896  -0.915  1.00  0.00     0.238 C 
HETATM   17  C   UNL     1      38.642 -13.504  -1.892  1.00  0.00     0.071 C 
HETATM   18  C   UNL     1      39.165 -13.454  -3.341  1.00  0.00     0.089 C 
HETATM   19  C   UNL     1      39.672 -14.872  -3.666  1.00  0.00     0.071 C 
HETATM   20  C   UNL     1      40.741 -15.361  -2.700  1.00  0.00     0.238 C 
BRANCH  18  21
HETATM   21  O   UNL     1      38.025 -13.236  -4.174  1.00  0.00    -0.385 OA
HETATM   22  H   UNL     1      37.263 -13.749  -3.844  1.00  0.00     0.211 HD
ENDBRANCH  18  21
BRANCH  18  23
HETATM   23  C   UNL     1      40.150 -12.312  -3.570  1.00  0.00    -0.006 A 
HETATM   24  C   UNL     1      39.814 -10.968  -3.413  1.00  0.00     0.126 A 
HETATM   25  N   UNL     1      40.636  -9.934  -3.689  1.00  0.00    -0.272 NA
HETATM   26  C   UNL     1      41.899 -10.225  -4.057  1.00  0.00     0.116 A 
HETATM   27  C   UNL     1      42.368 -11.518  -4.180  1.00  0.00     0.020 A 
HETATM   28  C   UNL     1      41.484 -12.566  -3.929  1.00  0.00     0.013 A 
ENDBRANCH  18  23
ENDBRANCH  13  14
ENDBRANCH  10  13
BRANCH   1  29
HETATM   29  C   UNL     1      42.963 -17.766   5.075  1.00  0.00     0.236 C 
BRANCH  29  30
HETATM   30  C   UNL     1      44.309 -18.410   4.750  1.00  0.00     0.039 C 
BRANCH  30  31
HETATM   31  C   UNL     1      44.716 -19.609   5.625  1.00  0.00     0.040 C 
HETATM   32  C   UNL     1      43.847 -19.725   6.877  1.00  0.00     0.017 C 
BRANCH  31  33
HETATM   33  C   UNL     1      44.682 -20.852   4.796  1.00  0.00     0.057 A 
HETATM   34  O   UNL     1      44.377 -20.668   3.475  1.00  0.00    -0.319 OA
HETATM   35  C   UNL     1      44.406 -21.897   2.884  1.00  0.00     0.049 A 
HETATM   36  C   UNL     1      44.137 -21.954   1.433  1.00  0.00     0.076 C 
HETATM   37  C   UNL     1      44.704 -22.865   3.818  1.00  0.00     0.035 A 
HETATM   38  C   UNL     1      44.877 -22.194   5.051  1.00  0.00     0.035 A 
ENDBRANCH  31  33
ENDBRANCH  30  31
ENDBRANCH  29  30
ENDBRANCH   1  29
TORSDOF 8
ENDMDL
MODEL 9
REMARK VINA RESULT:      -8.7      2.865      5.825
REMARK  8 active torsions:
REMARK  status: ('A' for Active; 'I' for Inactive)
REMARK    1  A    between atoms: C_4  and  C_5 
REMARK    2  A    between atoms: C_5  and  C_6 
REMARK    3  A    between atoms: C_6  and  C_7 
REMARK    4  A    between atoms: C_7  and  N_8 
REMARK    5  A    between atoms: C_17  and  C_18 
REMARK    6  A    between atoms: C_18  and  N_19 
REMARK    7  A    between atoms: C_23  and  O_24 
REMARK    8  A    between atoms: C_23  and  C_25 
ROOT
HETATM    1  N   UNL     1      43.525 -18.240   6.481  1.00  0.00    -0.065 N 
HETATM    2  H   UNL     1      43.035 -18.340   7.380  1.00  0.00     0.280 HD
HETATM    3  C   UNL     1      42.424 -17.965   5.474  1.00  0.00     0.276 C 
HETATM    4  C   UNL     1      42.887 -17.646   4.079  1.00  0.00     0.001 A 
HETATM    5  C   UNL     1      43.601 -18.589   3.339  1.00  0.00     0.076 A 
HETATM    6  O   UNL     1      43.874 -19.827   3.849  1.00  0.00    -0.349 OA
HETATM    7  C   UNL     1      44.840 -19.769   4.906  1.00  0.00     0.203 C 
HETATM    8  C   UNL     1      44.164 -19.614   6.271  1.00  0.00     0.261 C 
HETATM    9  C   UNL     1      42.571 -16.417   3.469  1.00  0.00     0.020 A 
HETATM   10  C   UNL     1      42.968 -16.132   2.146  1.00  0.00    -0.032 A 
HETATM   11  C   UNL     1      43.687 -17.103   1.435  1.00  0.00     0.011 A 
HETATM   12  C   UNL     1      43.985 -18.333   2.025  1.00  0.00     0.038 A 
ENDROOT
BRANCH  10  13
HETATM   13  C   UNL     1      42.622 -14.805   1.512  1.00  0.00     0.273 C 
BRANCH  13  14
HETATM   14  N   UNL     1      41.208 -14.310   1.767  1.00  0.00    -0.067 N 
HETATM   15  H   UNL     1      41.036 -14.418   2.777  1.00  0.00     0.280 HD
HETATM   16  C   UNL     1      41.021 -12.847   1.439  1.00  0.00     0.238 C 
HETATM   17  C   UNL     1      39.588 -12.435   1.721  1.00  0.00     0.071 C 
HETATM   18  C   UNL     1      38.586 -13.241   0.870  1.00  0.00     0.089 C 
HETATM   19  C   UNL     1      38.789 -14.720   1.253  1.00  0.00     0.071 C 
HETATM   20  C   UNL     1      40.217 -15.201   1.045  1.00  0.00     0.238 C 
BRANCH  18  21
HETATM   21  O   UNL     1      37.283 -12.883   1.334  1.00  0.00    -0.385 OA
HETATM   22  H   UNL     1      36.609 -13.454   0.919  1.00  0.00     0.211 HD
ENDBRANCH  18  21
BRANCH  18  23
HETATM   23  C   UNL     1      38.675 -12.906  -0.614  1.00  0.00    -0.006 A 
HETATM   24  C   UNL     1      38.663 -11.602  -1.108  1.00  0.00     0.126 A 
HETATM   25  N   UNL     1      38.655 -11.276  -2.417  1.00  0.00    -0.272 NA
HETATM   26  C   UNL     1      38.755 -12.281  -3.309  1.00  0.00     0.116 A 
HETATM   27  C   UNL     1      38.842 -13.608  -2.939  1.00  0.00     0.020 A 
HETATM   28  C   UNL     1      38.806 -13.918  -1.581  1.00  0.00     0.013 A 
ENDBRANCH  18  23
ENDBRANCH  13  14
ENDBRANCH  10  13
BRANCH   1  29
HETATM   29  C   UNL     1      44.550 -17.143   6.677  1.00  0.00     0.236 C 
BRANCH  29  30
HETATM   30  C   UNL     1      43.979 -15.861   7.279  1.00  0.00     0.039 C 
BRANCH  30  31
HETATM   31  C   UNL     1      44.274 -14.560   6.510  1.00  0.00     0.040 C 
HETATM   32  C   UNL     1      43.004 -13.935   5.932  1.00  0.00     0.017 C 
BRANCH  31  33
HETATM   33  C   UNL     1      45.011 -13.619   7.406  1.00  0.00     0.057 A 
HETATM   34  O   UNL     1      44.443 -13.413   8.634  1.00  0.00    -0.319 OA
HETATM   35  C   UNL     1      45.252 -12.547   9.307  1.00  0.00     0.049 A 
HETATM   36  C   UNL     1      44.861 -12.192  10.686  1.00  0.00     0.076 C 
HETATM   37  C   UNL     1      46.318 -12.179   8.515  1.00  0.00     0.035 A 
HETATM   38  C   UNL     1      46.160 -12.866   7.288  1.00  0.00     0.035 A 
ENDBRANCH  31  33
ENDBRANCH  30  31
ENDBRANCH  29  30
ENDBRANCH   1  29
TORSDOF 8
ENDMDL
MODEL 10
REMARK VINA RESULT:      -8.7      3.234      7.616
REMARK  8 active torsions:
REMARK  status: ('A' for Active; 'I' for Inactive)
REMARK    1  A    between atoms: C_4  and  C_5 
REMARK    2  A    between atoms: C_5  and  C_6 
REMARK    3  A    between atoms: C_6  and  C_7 
REMARK    4  A    between atoms: C_7  and  N_8 
REMARK    5  A    between atoms: C_17  and  C_18 
REMARK    6  A    between atoms: C_18  and  N_19 
REMARK    7  A    between atoms: C_23  and  O_24 
REMARK    8  A    between atoms: C_23  and  C_25 
ROOT
HETATM    1  N   UNL     1      44.600 -20.908   2.610  1.00  0.00    -0.065 N 
HETATM    2  H   UNL     1      45.143 -20.840   1.740  1.00  0.00     0.280 HD
HETATM    3  C   UNL     1      45.333 -20.010   3.589  1.00  0.00     0.276 C 
HETATM    4  C   UNL     1      44.664 -19.824   4.923  1.00  0.00     0.001 A 
HETATM    5  C   UNL     1      44.460 -20.915   5.769  1.00  0.00     0.076 A 
HETATM    6  O   UNL     1      44.883 -22.167   5.421  1.00  0.00    -0.349 OA
HETATM    7  C   UNL     1      44.104 -22.716   4.351  1.00  0.00     0.203 C 
HETATM    8  C   UNL     1      44.718 -22.385   2.988  1.00  0.00     0.261 C 
HETATM    9  C   UNL     1      44.274 -18.548   5.372  1.00  0.00     0.020 A 
HETATM   10  C   UNL     1      43.685 -18.366   6.641  1.00  0.00    -0.032 A 
HETATM   11  C   UNL     1      43.494 -19.486   7.462  1.00  0.00     0.011 A 
HETATM   12  C   UNL     1      43.898 -20.752   7.032  1.00  0.00     0.038 A 
ENDROOT
BRANCH  10  13
HETATM   13  C   UNL     1      43.271 -16.988   7.101  1.00  0.00     0.273 C 
BRANCH  13  14
HETATM   14  N   UNL     1      43.199 -15.931   6.011  1.00  0.00    -0.067 N 
HETATM   15  H   UNL     1      43.767 -16.279   5.225  1.00  0.00     0.280 HD
HETATM   16  C   UNL     1      41.800 -15.714   5.483  1.00  0.00     0.238 C 
HETATM   17  C   UNL     1      41.816 -14.648   4.403  1.00  0.00     0.071 C 
HETATM   18  C   UNL     1      42.332 -13.299   4.941  1.00  0.00     0.089 C 
HETATM   19  C   UNL     1      43.767 -13.556   5.443  1.00  0.00     0.071 C 
HETATM   20  C   UNL     1      43.844 -14.649   6.498  1.00  0.00     0.238 C 
BRANCH  18  21
HETATM   21  O   UNL     1      42.452 -12.433   3.812  1.00  0.00    -0.385 OA
HETATM   22  H   UNL     1      42.866 -11.590   4.076  1.00  0.00     0.211 HD
ENDBRANCH  18  21
BRANCH  18  23
HETATM   23  C   UNL     1      41.370 -12.659   5.936  1.00  0.00    -0.006 A 
HETATM   24  C   UNL     1      40.044 -13.060   6.086  1.00  0.00     0.126 A 
HETATM   25  N   UNL     1      39.146 -12.458   6.894  1.00  0.00    -0.272 NA
HETATM   26  C   UNL     1      39.588 -11.455   7.677  1.00  0.00     0.116 A 
HETATM   27  C   UNL     1      40.897 -11.014   7.667  1.00  0.00     0.020 A 
HETATM   28  C   UNL     1      41.792 -11.626   6.791  1.00  0.00     0.013 A 
ENDBRANCH  18  23
ENDBRANCH  13  14
ENDBRANCH  10  13
BRANCH   1  29
HETATM   29  C   UNL     1      43.182 -20.507   2.257  1.00  0.00     0.236 C 
BRANCH  29  30
HETATM   30  C   UNL     1      43.094 -19.301   1.324  1.00  0.00     0.039 C 
BRANCH  30  31
HETATM   31  C   UNL     1      43.202 -17.918   1.991  1.00  0.00     0.040 C 
HETATM   32  C   UNL     1      44.412 -17.131   1.487  1.00  0.00     0.017 C 
BRANCH  31  33
HETATM   33  C   UNL     1      41.920 -17.176   1.789  1.00  0.00     0.057 A 
HETATM   34  O   UNL     1      41.994 -16.096   0.953  1.00  0.00    -0.319 OA
HETATM   35  C   UNL     1      40.742 -15.561   0.881  1.00  0.00     0.049 A 
HETATM   36  C   UNL     1      40.559 -14.389   0.002  1.00  0.00     0.076 C 
HETATM   37  C   UNL     1      39.875 -16.274   1.681  1.00  0.00     0.035 A 
HETATM   38  C   UNL     1      40.634 -17.312   2.270  1.00  0.00     0.035 A 
ENDBRANCH  31  33
ENDBRANCH  30  31
ENDBRANCH  29  30
ENDBRANCH   1  29
TORSDOF 8
ENDMDL
