MODEL 1
REMARK VINA RESULT:      -9.0      0.000      0.000
REMARK  4 active torsions:
REMARK  status: ('A' for Active; 'I' for Inactive)
REMARK    1  A    between atoms: C_2  and  N_3 
REMARK    2  A    between atoms: N_7  and  C_9 
REMARK    3  A    between atoms: C_9  and  C_10 
REMARK    4  A    between atoms: C_13  and  C_14 
ROOT
HETATM    1  N   UNL     1      39.412 -12.826   0.336  1.00  0.00    -0.398 N 
HETATM    2  C   UNL     1      40.484 -13.894   0.179  1.00  0.00     0.075 C 
HETATM    3  C   UNL     1      40.478 -15.070   1.193  1.00  0.00     0.065 C 
HETATM    4  C   UNL     1      40.868 -14.754   2.626  1.00  0.00     0.238 C 
HETATM    5  N   UNL     1      42.067 -13.843   2.737  1.00  0.00    -0.065 N 
HETATM    6  H   UNL     1      41.943 -13.380   3.649  1.00  0.00     0.280 HD
HETATM    7  C   UNL     1      42.088 -12.698   1.756  1.00  0.00     0.238 C 
HETATM    8  C   UNL     1      41.847 -13.177   0.330  1.00  0.00     0.065 C 
HETATM    9  C   UNL     1      40.402 -14.539  -1.203  1.00  0.00     0.061 A 
HETATM   10  C   UNL     1      39.355 -14.374  -2.084  1.00  0.00     0.037 A 
HETATM   11  N   UNL     1      39.653 -15.106  -3.208  1.00  0.00    -0.354 N 
HETATM   12  H   UNL     1      39.071 -15.176  -4.044  1.00  0.00     0.166 HD
HETATM   13  C   UNL     1      40.845 -15.696  -3.077  1.00  0.00     0.181 A 
HETATM   14  N   UNL     1      41.309 -15.360  -1.863  1.00  0.00    -0.352 N 
HETATM   15  H   UNL     1      42.216 -15.670  -1.523  1.00  0.00     0.166 HD
HETATM   16  C   UNL     1      38.223 -13.475  -1.838  1.00  0.00     0.078 C 
HETATM   17  C   UNL     1      38.784 -12.353  -0.939  1.00  0.00     0.124 C 
ENDROOT
BRANCH   5  18
HETATM   18  C   UNL     1      43.413 -14.556   2.933  1.00  0.00     0.301 C 
BRANCH  18  19
HETATM   19  C   UNL     1      43.210 -15.986   3.257  1.00  0.00     0.107 C 
HETATM   20  O   UNL     1      43.238 -16.297   4.575  1.00  0.00    -0.216 OA
HETATM   21  N   UNL     1      43.435 -17.649   4.717  1.00  0.00    -0.128 NA
HETATM   22  C   UNL     1      43.481 -18.170   3.481  1.00  0.00     0.097 C 
HETATM   23  C   UNL     1      43.233 -17.146   2.518  1.00  0.00     0.071 C 
BRANCH  22  24
HETATM   24  C   UNL     1      43.908 -19.547   3.226  1.00  0.00    -0.005 A 
HETATM   25  C   UNL     1      43.586 -20.168   2.008  1.00  0.00     0.014 A 
HETATM   26  C   UNL     1      43.870 -21.519   1.798  1.00  0.00     0.001 A 
HETATM   27  C   UNL     1      44.485 -22.264   2.800  1.00  0.00     0.000 A 
HETATM   28  C   UNL     1      44.830 -21.657   4.006  1.00  0.00     0.001 A 
HETATM   29  C   UNL     1      44.544 -20.305   4.219  1.00  0.00     0.014 A 
ENDBRANCH  22  24
ENDBRANCH  18  19
ENDBRANCH   5  18
BRANCH   1  30
HETATM   30  C   UNL     1      38.433 -12.965   1.423  1.00  0.00     0.113 C 
HETATM   31  C   UNL     1      38.398 -11.833   2.455  1.00  0.00     0.026 C 
ENDBRANCH   1  30
TORSDOF 4
ENDMDL
MODEL 2
REMARK VINA RESULT:      -8.9      1.664      2.436
REMARK  4 active torsions:
REMARK  status: ('A' for Active; 'I' for Inactive)
REMARK    1  A    between atoms: C_2  and  N_3 
REMARK    2  A    between atoms: N_7  and  C_9 
REMARK    3  A    between atoms: C_9  and  C_10 
REMARK    4  A    between atoms: C_13  and  C_14 
ROOT
HETATM    1  N   UNL     1      42.102 -12.755  -1.117  1.00  0.00    -0.398 N 
HETATM    2  C   UNL     1      40.876 -13.522  -0.646  1.00  0.00     0.075 C 
HETATM    3  C   UNL     1      39.945 -12.826   0.383  1.00  0.00     0.065 C 
HETATM    4  C   UNL     1      40.484 -12.635   1.790  1.00  0.00     0.238 C 
HETATM    5  N   UNL     1      41.208 -13.846   2.327  1.00  0.00    -0.065 N 
HETATM    6  H   UNL     1      41.860 -13.456   3.023  1.00  0.00     0.280 HD
HETATM    7  C   UNL     1      42.113 -14.535   1.337  1.00  0.00     0.238 C 
HETATM    8  C   UNL     1      41.396 -14.817   0.023  1.00  0.00     0.065 C 
HETATM    9  C   UNL     1      39.983 -13.888  -1.831  1.00  0.00     0.061 A 
HETATM   10  C   UNL     1      40.121 -13.377  -3.103  1.00  0.00     0.037 A 
HETATM   11  N   UNL     1      39.139 -13.949  -3.876  1.00  0.00    -0.354 N 
HETATM   12  H   UNL     1      38.988 -13.774  -4.870  1.00  0.00     0.166 HD
HETATM   13  C   UNL     1      38.416 -14.808  -3.152  1.00  0.00     0.181 A 
HETATM   14  N   UNL     1      38.919 -14.779  -1.907  1.00  0.00    -0.352 N 
HETATM   15  H   UNL     1      38.552 -15.362  -1.159  1.00  0.00     0.166 HD
HETATM   16  C   UNL     1      41.210 -12.481  -3.502  1.00  0.00     0.078 C 
HETATM   17  C   UNL     1      42.395 -12.847  -2.583  1.00  0.00     0.124 C 
ENDROOT
BRANCH   5  18
HETATM   18  C   UNL     1      40.356 -14.785   3.193  1.00  0.00     0.301 C 
BRANCH  18  19
HETATM   19  C   UNL     1      41.154 -15.938   3.664  1.00  0.00     0.107 C 
HETATM   20  O   UNL     1      42.176 -15.639   4.502  1.00  0.00    -0.216 OA
HETATM   21  N   UNL     1      43.051 -16.697   4.546  1.00  0.00    -0.128 NA
HETATM   22  C   UNL     1      42.537 -17.662   3.767  1.00  0.00     0.097 C 
HETATM   23  C   UNL     1      41.265 -17.251   3.269  1.00  0.00     0.071 C 
BRANCH  22  24
HETATM   24  C   UNL     1      43.301 -18.850   3.384  1.00  0.00    -0.005 A 
HETATM   25  C   UNL     1      43.025 -19.503   2.171  1.00  0.00     0.014 A 
HETATM   26  C   UNL     1      43.651 -20.709   1.850  1.00  0.00     0.001 A 
HETATM   27  C   UNL     1      44.567 -21.274   2.733  1.00  0.00     0.000 A 
HETATM   28  C   UNL     1      44.868 -20.627   3.930  1.00  0.00     0.001 A 
HETATM   29  C   UNL     1      44.239 -19.422   4.256  1.00  0.00     0.014 A 
ENDBRANCH  22  24
ENDBRANCH  18  19
ENDBRANCH   5  18
BRANCH   1  30
HETATM   30  C   UNL     1      42.335 -11.405  -0.585  1.00  0.00     0.113 C 
HETATM   31  C   UNL     1      43.421 -10.578  -1.282  1.00  0.00     0.026 C 
ENDBRANCH   1  30
TORSDOF 4
ENDMDL
MODEL 3
REMARK VINA RESULT:      -8.8      2.499      3.423
REMARK  4 active torsions:
REMARK  status: ('A' for Active; 'I' for Inactive)
REMARK    1  A    between atoms: C_2  and  N_3 
REMARK    2  A    between atoms: N_7  and  C_9 
REMARK    3  A    between atoms: C_9  and  C_10 
REMARK    4  A    between atoms: C_13  and  C_14 
ROOT
HETATM    1  N   UNL     1      40.431 -13.553   4.128  1.00  0.00    -0.398 N 
HETATM    2  C   UNL     1      41.352 -14.753   3.976  1.00  0.00     0.075 C 
HETATM    3  C   UNL     1      41.223 -15.894   5.021  1.00  0.00     0.065 C 
HETATM    4  C   UNL     1      41.688 -15.596   6.436  1.00  0.00     0.238 C 
HETATM    5  N   UNL     1      42.997 -14.844   6.494  1.00  0.00    -0.065 N 
HETATM    6  H   UNL     1      42.957 -14.347   7.395  1.00  0.00     0.280 HD
HETATM    7  C   UNL     1      43.138 -13.736   5.481  1.00  0.00     0.238 C 
HETATM    8  C   UNL     1      42.799 -14.214   4.075  1.00  0.00     0.065 C 
HETATM    9  C   UNL     1      41.150 -15.416   2.614  1.00  0.00     0.061 A 
HETATM   10  C   UNL     1      40.110 -15.138   1.754  1.00  0.00     0.037 A 
HETATM   11  N   UNL     1      40.282 -15.930   0.644  1.00  0.00    -0.354 N 
HETATM   12  H   UNL     1      39.674 -15.946  -0.176  1.00  0.00     0.166 HD
HETATM   13  C   UNL     1      41.392 -16.665   0.763  1.00  0.00     0.181 A 
HETATM   14  N   UNL     1      41.927 -16.362   1.957  1.00  0.00    -0.352 N 
HETATM   15  H   UNL     1      42.795 -16.779   2.283  1.00  0.00     0.166 HD
HETATM   16  C   UNL     1      39.110 -14.096   2.002  1.00  0.00     0.078 C 
HETATM   17  C   UNL     1      39.835 -13.033   2.856  1.00  0.00     0.124 C 
ENDROOT
BRANCH   5  18
HETATM   18  C   UNL     1      44.245 -15.720   6.677  1.00  0.00     0.301 C 
BRANCH  18  19
HETATM   19  C   UNL     1      43.949 -17.134   6.359  1.00  0.00     0.107 C 
HETATM   20  O   UNL     1      43.983 -17.991   7.409  1.00  0.00    -0.216 OA
HETATM   21  N   UNL     1      44.086 -19.278   6.940  1.00  0.00    -0.128 NA
HETATM   22  C   UNL     1      44.069 -19.209   5.600  1.00  0.00     0.097 C 
HETATM   23  C   UNL     1      43.872 -17.856   5.190  1.00  0.00     0.071 C 
BRANCH  22  24
HETATM   24  C   UNL     1      44.390 -20.358   4.752  1.00  0.00    -0.005 A 
HETATM   25  C   UNL     1      44.347 -20.233   3.353  1.00  0.00     0.014 A 
HETATM   26  C   UNL     1      44.524 -21.348   2.531  1.00  0.00     0.001 A 
HETATM   27  C   UNL     1      44.752 -22.599   3.095  1.00  0.00     0.000 A 
HETATM   28  C   UNL     1      44.819 -22.736   4.481  1.00  0.00     0.001 A 
HETATM   29  C   UNL     1      44.640 -21.622   5.306  1.00  0.00     0.014 A 
ENDBRANCH  22  24
ENDBRANCH  18  19
ENDBRANCH   5  18
BRANCH   1  30
HETATM   30  C   UNL     1      39.471 -13.538   5.241  1.00  0.00     0.113 C 
HETATM   31  C   UNL     1      39.661 -12.435   6.288  1.00  0.00     0.026 C 
ENDBRANCH   1  30
TORSDOF 4
ENDMDL
MODEL 4
REMARK VINA RESULT:      -8.8      2.097      3.355
REMARK  4 active torsions:
REMARK  status: ('A' for Active; 'I' for Inactive)
REMARK    1  A    between atoms: C_2  and  N_3 
REMARK    2  A    between atoms: N_7  and  C_9 
REMARK    3  A    between atoms: C_9  and  C_10 
REMARK    4  A    between atoms: C_13  and  C_14 
ROOT
HETATM    1  N   UNL     1      40.253 -13.765  -2.404  1.00  0.00    -0.398 N 
HETATM    2  C   UNL     1      40.901 -13.353  -1.092  1.00  0.00     0.075 C 
HETATM    3  C   UNL     1      41.743 -14.420  -0.342  1.00  0.00     0.065 C 
HETATM    4  C   UNL     1      40.993 -15.584   0.283  1.00  0.00     0.238 C 
HETATM    5  N   UNL     1      39.731 -15.171   1.001  1.00  0.00    -0.065 N 
HETATM    6  H   UNL     1      39.141 -16.015   0.970  1.00  0.00     0.280 HD
HETATM    7  C   UNL     1      38.904 -14.132   0.285  1.00  0.00     0.238 C 
HETATM    8  C   UNL     1      39.751 -12.940  -0.143  1.00  0.00     0.065 C 
HETATM    9  C   UNL     1      41.835 -12.162  -1.303  1.00  0.00     0.061 A 
HETATM   10  C   UNL     1      42.241 -11.694  -2.534  1.00  0.00     0.037 A 
HETATM   11  N   UNL     1      43.067 -10.619  -2.305  1.00  0.00    -0.354 N 
HETATM   12  H   UNL     1      43.520 -10.054  -3.023  1.00  0.00     0.166 HD
HETATM   13  C   UNL     1      43.171 -10.383  -0.994  1.00  0.00     0.181 A 
HETATM   14  N   UNL     1      42.428 -11.315  -0.374  1.00  0.00    -0.352 N 
HETATM   15  H   UNL     1      42.327 -11.345   0.637  1.00  0.00     0.166 HD
HETATM   16  C   UNL     1      41.747 -12.228  -3.806  1.00  0.00     0.078 C 
HETATM   17  C   UNL     1      40.327 -12.750  -3.504  1.00  0.00     0.124 C 
ENDROOT
BRANCH   5  18
HETATM   18  C   UNL     1      39.881 -14.954   2.513  1.00  0.00     0.301 C 
BRANCH  18  19
HETATM   19  C   UNL     1      40.940 -15.825   3.069  1.00  0.00     0.107 C 
HETATM   20  O   UNL     1      42.122 -15.215   3.331  1.00  0.00    -0.216 OA
HETATM   21  N   UNL     1      43.105 -16.167   3.456  1.00  0.00    -0.128 NA
HETATM   22  C   UNL     1      42.511 -17.363   3.315  1.00  0.00     0.097 C 
HETATM   23  C   UNL     1      41.103 -17.187   3.172  1.00  0.00     0.071 C 
BRANCH  22  24
HETATM   24  C   UNL     1      43.274 -18.602   3.157  1.00  0.00    -0.005 A 
HETATM   25  C   UNL     1      43.065 -19.418   2.033  1.00  0.00     0.014 A 
HETATM   26  C   UNL     1      43.687 -20.664   1.929  1.00  0.00     0.001 A 
HETATM   27  C   UNL     1      44.530 -21.107   2.944  1.00  0.00     0.000 A 
HETATM   28  C   UNL     1      44.765 -20.300   4.055  1.00  0.00     0.001 A 
HETATM   29  C   UNL     1      44.141 -19.053   4.163  1.00  0.00     0.014 A 
ENDBRANCH  22  24
ENDBRANCH  18  19
ENDBRANCH   5  18
BRANCH   1  30
HETATM   30  C   UNL     1      40.462 -15.135  -2.894  1.00  0.00     0.113 C 
HETATM   31  C   UNL     1      39.402 -15.681  -3.857  1.00  0.00     0.026 C 
ENDBRANCH   1  30
TORSDOF 4
ENDMDL
MODEL 5
REMARK VINA RESULT:      -8.7      2.189      4.648
REMARK  4 active torsions:
REMARK  status: ('A' for Active; 'I' for Inactive)
REMARK    1  A    between atoms: C_2  and  N_3 
REMARK    2  A    between atoms: N_7  and  C_9 
REMARK    3  A    between atoms: C_9  and  C_10 
REMARK    4  A    between atoms: C_13  and  C_14 
ROOT
HETATM    1  N   UNL     1      39.955 -12.912   3.963  1.00  0.00    -0.398 N 
HETATM    2  C   UNL     1      41.146 -13.788   3.606  1.00  0.00     0.075 C 
HETATM    3  C   UNL     1      41.977 -13.394   2.355  1.00  0.00     0.065 C 
HETATM    4  C   UNL     1      41.318 -13.573   0.999  1.00  0.00     0.238 C 
HETATM    5  N   UNL     1      40.567 -14.876   0.861  1.00  0.00    -0.065 N 
HETATM    6  H   UNL     1      39.853 -14.675   0.146  1.00  0.00     0.280 HD
HETATM    7  C   UNL     1      39.758 -15.272   2.071  1.00  0.00     0.238 C 
HETATM    8  C   UNL     1      40.588 -15.207   3.346  1.00  0.00     0.065 C 
HETATM    9  C   UNL     1      42.142 -13.839   4.764  1.00  0.00     0.061 A 
HETATM   10  C   UNL     1      42.106 -13.011   5.865  1.00  0.00     0.037 A 
HETATM   11  N   UNL     1      43.158 -13.369   6.675  1.00  0.00    -0.354 N 
HETATM   12  H   UNL     1      43.390 -12.942   7.572  1.00  0.00     0.166 HD
HETATM   13  C   UNL     1      43.827 -14.396   6.141  1.00  0.00     0.181 A 
HETATM   14  N   UNL     1      43.220 -14.689   4.980  1.00  0.00    -0.352 N 
HETATM   15  H   UNL     1      43.530 -15.451   4.383  1.00  0.00     0.166 HD
HETATM   16  C   UNL     1      41.043 -12.031   6.108  1.00  0.00     0.078 C 
HETATM   17  C   UNL     1      39.789 -12.614   5.421  1.00  0.00     0.124 C 
ENDROOT
BRANCH   5  18
HETATM   18  C   UNL     1      41.354 -16.017   0.202  1.00  0.00     0.301 C 
BRANCH  18  19
HETATM   19  C   UNL     1      42.114 -16.786   1.213  1.00  0.00     0.107 C 
HETATM   20  O   UNL     1      43.319 -16.272   1.555  1.00  0.00    -0.216 OA
HETATM   21  N   UNL     1      44.069 -17.245   2.170  1.00  0.00    -0.128 NA
HETATM   22  C   UNL     1      43.300 -18.344   2.243  1.00  0.00     0.097 C 
HETATM   23  C   UNL     1      41.999 -18.054   1.735  1.00  0.00     0.071 C 
BRANCH  22  24
HETATM   24  C   UNL     1      43.836 -19.651   2.626  1.00  0.00    -0.005 A 
HETATM   25  C   UNL     1      43.690 -20.750   1.764  1.00  0.00     0.014 A 
HETATM   26  C   UNL     1      44.079 -22.030   2.166  1.00  0.00     0.001 A 
HETATM   27  C   UNL     1      44.622 -22.226   3.432  1.00  0.00     0.000 A 
HETATM   28  C   UNL     1      44.794 -21.141   4.291  1.00  0.00     0.001 A 
HETATM   29  C   UNL     1      44.403 -19.860   3.892  1.00  0.00     0.014 A 
ENDBRANCH  22  24
ENDBRANCH  18  19
ENDBRANCH   5  18
BRANCH   1  30
HETATM   30  C   UNL     1      39.660 -11.746   3.118  1.00  0.00     0.113 C 
HETATM   31  C   UNL     1      38.345 -11.791   2.333  1.00  0.00     0.026 C 
ENDBRANCH   1  30
TORSDOF 4
ENDMDL
MODEL 6
REMARK VINA RESULT:      -8.5      2.484      7.432
REMARK  4 active torsions:
REMARK  status: ('A' for Active; 'I' for Inactive)
REMARK    1  A    between atoms: C_2  and  N_3 
REMARK    2  A    between atoms: N_7  and  C_9 
REMARK    3  A    between atoms: C_9  and  C_10 
REMARK    4  A    between atoms: C_13  and  C_14 
ROOT
HETATM    1  N   UNL     1      43.274 -18.460   6.254  1.00  0.00    -0.398 N 
HETATM    2  C   UNL     1      42.874 -17.871   4.910  1.00  0.00     0.075 C 
HETATM    3  C   UNL     1      43.417 -16.460   4.555  1.00  0.00     0.065 C 
HETATM    4  C   UNL     1      42.865 -15.285   5.343  1.00  0.00     0.238 C 
HETATM    5  N   UNL     1      41.370 -15.343   5.543  1.00  0.00    -0.065 N 
HETATM    6  H   UNL     1      41.213 -14.797   6.403  1.00  0.00     0.280 HD
HETATM    7  C   UNL     1      40.828 -16.708   5.885  1.00  0.00     0.238 C 
HETATM    8  C   UNL     1      41.330 -17.770   4.914  1.00  0.00     0.065 C 
HETATM    9  C   UNL     1      43.318 -18.784   3.768  1.00  0.00     0.061 A 
HETATM   10  C   UNL     1      44.183 -19.848   3.908  1.00  0.00     0.037 A 
HETATM   11  N   UNL     1      44.329 -20.415   2.664  1.00  0.00    -0.354 N 
HETATM   12  H   UNL     1      44.903 -21.230   2.446  1.00  0.00     0.166 HD
HETATM   13  C   UNL     1      43.577 -19.771   1.767  1.00  0.00     0.181 A 
HETATM   14  N   UNL     1      42.960 -18.776   2.426  1.00  0.00    -0.352 N 
HETATM   15  H   UNL     1      42.311 -18.143   1.967  1.00  0.00     0.166 HD
HETATM   16  C   UNL     1      44.714 -20.296   5.198  1.00  0.00     0.078 C 
HETATM   17  C   UNL     1      43.638 -19.913   6.236  1.00  0.00     0.124 C 
ENDROOT
BRANCH   5  18
HETATM   18  C   UNL     1      40.543 -14.552   4.519  1.00  0.00     0.301 C 
BRANCH  18  19
HETATM   19  C   UNL     1      41.245 -14.476   3.219  1.00  0.00     0.107 C 
HETATM   20  O   UNL     1      42.038 -13.391   3.044  1.00  0.00    -0.216 OA
HETATM   21  N   UNL     1      42.304 -13.235   1.706  1.00  0.00    -0.128 NA
HETATM   22  C   UNL     1      41.709 -14.255   1.067  1.00  0.00     0.097 C 
HETATM   23  C   UNL     1      41.109 -15.133   2.018  1.00  0.00     0.071 C 
BRANCH  22  24
HETATM   24  C   UNL     1      41.578 -14.298  -0.390  1.00  0.00    -0.005 A 
HETATM   25  C   UNL     1      41.048 -15.439  -1.015  1.00  0.00     0.014 A 
HETATM   26  C   UNL     1      41.035 -15.550  -2.407  1.00  0.00     0.001 A 
HETATM   27  C   UNL     1      41.547 -14.521  -3.192  1.00  0.00     0.000 A 
HETATM   28  C   UNL     1      42.056 -13.373  -2.587  1.00  0.00     0.001 A 
HETATM   29  C   UNL     1      42.073 -13.261  -1.194  1.00  0.00     0.014 A 
ENDBRANCH  22  24
ENDBRANCH  18  19
ENDBRANCH   5  18
BRANCH   1  30
HETATM   30  C   UNL     1      44.151 -17.675   7.135  1.00  0.00     0.113 C 
HETATM   31  C   UNL     1      43.519 -17.147   8.427  1.00  0.00     0.026 C 
ENDBRANCH   1  30
TORSDOF 4
ENDMDL
MODEL 7
REMARK VINA RESULT:      -8.4      3.300      5.590
REMARK  4 active torsions:
REMARK  status: ('A' for Active; 'I' for Inactive)
REMARK    1  A    between atoms: C_2  and  N_3 
REMARK    2  A    between atoms: N_7  and  C_9 
REMARK    3  A    between atoms: C_9  and  C_10 
REMARK    4  A    between atoms: C_13  and  C_14 
ROOT
HETATM    1  N   UNL     1      40.479 -12.434   4.126  1.00  0.00    -0.398 N 
HETATM    2  C   UNL     1      40.813 -12.775   5.569  1.00  0.00     0.075 C 
HETATM    3  C   UNL     1      42.315 -12.885   5.951  1.00  0.00     0.065 C 
HETATM    4  C   UNL     1      43.089 -14.066   5.391  1.00  0.00     0.238 C 
HETATM    5  N   UNL     1      42.332 -15.371   5.462  1.00  0.00    -0.065 N 
HETATM    6  H   UNL     1      42.738 -15.934   4.701  1.00  0.00     0.280 HD
HETATM    7  C   UNL     1      40.871 -15.278   5.098  1.00  0.00     0.238 C 
HETATM    8  C   UNL     1      40.175 -14.155   5.856  1.00  0.00     0.065 C 
HETATM    9  C   UNL     1      40.221 -11.736   6.519  1.00  0.00     0.061 A 
HETATM   10  C   UNL     1      39.689 -10.527   6.125  1.00  0.00     0.037 A 
HETATM   11  N   UNL     1      39.261  -9.884   7.262  1.00  0.00    -0.354 N 
HETATM   12  H   UNL     1      38.814  -8.967   7.294  1.00  0.00     0.166 HD
HETATM   13  C   UNL     1      39.478 -10.646   8.338  1.00  0.00     0.181 A 
HETATM   14  N   UNL     1      40.062 -11.773   7.900  1.00  0.00    -0.352 N 
HETATM   15  H   UNL     1      40.316 -12.532   8.526  1.00  0.00     0.166 HD
HETATM   16  C   UNL     1      39.541 -10.126   4.723  1.00  0.00     0.078 C 
HETATM   17  C   UNL     1      39.369 -11.445   3.940  1.00  0.00     0.124 C 
ENDROOT
BRANCH   5  18
HETATM   18  C   UNL     1      42.642 -16.239   6.689  1.00  0.00     0.301 C 
BRANCH  18  19
HETATM   19  C   UNL     1      43.326 -17.490   6.292  1.00  0.00     0.107 C 
HETATM   20  O   UNL     1      44.676 -17.479   6.401  1.00  0.00    -0.216 OA
HETATM   21  N   UNL     1      45.199 -18.506   5.654  1.00  0.00    -0.128 NA
HETATM   22  C   UNL     1      44.161 -19.173   5.125  1.00  0.00     0.097 C 
HETATM   23  C   UNL     1      42.938 -18.614   5.600  1.00  0.00     0.071 C 
BRANCH  22  24
HETATM   24  C   UNL     1      44.331 -20.189   4.085  1.00  0.00    -0.005 A 
HETATM   25  C   UNL     1      44.042 -19.879   2.746  1.00  0.00     0.014 A 
HETATM   26  C   UNL     1      44.073 -20.868   1.760  1.00  0.00     0.001 A 
HETATM   27  C   UNL     1      44.400 -22.178   2.100  1.00  0.00     0.000 A 
HETATM   28  C   UNL     1      44.710 -22.497   3.421  1.00  0.00     0.001 A 
HETATM   29  C   UNL     1      44.676 -21.509   4.409  1.00  0.00     0.014 A 
ENDBRANCH  22  24
ENDBRANCH  18  19
ENDBRANCH   5  18
BRANCH   1  30
HETATM   30  C   UNL     1      41.581 -12.220   3.178  1.00  0.00     0.113 C 
HETATM   31  C   UNL     1      41.423 -12.860   1.795  1.00  0.00     0.026 C 
ENDBRANCH   1  30
TORSDOF 4
ENDMDL
MODEL 8
REMARK VINA RESULT:      -8.3      5.522      8.067
REMARK  4 active torsions:
REMARK  status: ('A' for Active; 'I' for Inactive)
REMARK    1  A    between atoms: C_2  and  N_3 
REMARK    2  A    between atoms: N_7  and  C_9 
REMARK    3  A    between atoms: C_9  and  C_10 
REMARK    4  A    between atoms: C_13  and  C_14 
ROOT
HETATM    1  N   UNL     1      41.385 -15.161   3.000  1.00  0.00    -0.398 N 
HETATM    2  C   UNL     1      42.511 -15.849   3.756  1.00  0.00     0.075 C 
HETATM    3  C   UNL     1      42.291 -16.134   5.266  1.00  0.00     0.065 C 
HETATM    4  C   UNL     1      42.264 -14.938   6.202  1.00  0.00     0.238 C 
HETATM    5  N   UNL     1      43.342 -13.921   5.912  1.00  0.00    -0.065 N 
HETATM    6  H   UNL     1      42.953 -13.038   6.274  1.00  0.00     0.280 HD
HETATM    7  C   UNL     1      43.568 -13.637   4.448  1.00  0.00     0.238 C 
HETATM    8  C   UNL     1      43.745 -14.922   3.648  1.00  0.00     0.065 C 
HETATM    9  C   UNL     1      42.837 -17.201   3.123  1.00  0.00     0.061 A 
HETATM   10  C   UNL     1      42.059 -17.830   2.175  1.00  0.00     0.037 A 
HETATM   11  N   UNL     1      42.685 -19.012   1.858  1.00  0.00    -0.354 N 
HETATM   12  H   UNL     1      42.354 -19.696   1.177  1.00  0.00     0.166 HD
HETATM   13  C   UNL     1      43.826 -19.133   2.544  1.00  0.00     0.181 A 
HETATM   14  N   UNL     1      43.928 -18.039   3.317  1.00  0.00    -0.352 N 
HETATM   15  H   UNL     1      44.724 -17.879   3.929  1.00  0.00     0.166 HD
HETATM   16  C   UNL     1      40.859 -17.230   1.584  1.00  0.00     0.078 C 
HETATM   17  C   UNL     1      41.101 -15.706   1.633  1.00  0.00     0.124 C 
ENDROOT
BRANCH   5  18
HETATM   18  C   UNL     1      44.619 -14.065   6.752  1.00  0.00     0.301 C 
BRANCH  18  19
HETATM   19  C   UNL     1      44.669 -13.038   7.816  1.00  0.00     0.107 C 
HETATM   20  O   UNL     1      45.690 -13.160   8.699  1.00  0.00    -0.216 OA
HETATM   21  N   UNL     1      45.408 -12.422   9.822  1.00  0.00    -0.128 NA
HETATM   22  C   UNL     1      44.231 -11.812   9.604  1.00  0.00     0.097 C 
HETATM   23  C   UNL     1      43.779 -12.099   8.282  1.00  0.00     0.071 C 
BRANCH  22  24
HETATM   24  C   UNL     1      43.496 -11.125  10.667  1.00  0.00    -0.005 A 
HETATM   25  C   UNL     1      42.109 -10.937  10.554  1.00  0.00     0.014 A 
HETATM   26  C   UNL     1      41.413 -10.172  11.492  1.00  0.00     0.001 A 
HETATM   27  C   UNL     1      42.093  -9.591  12.559  1.00  0.00     0.000 A 
HETATM   28  C   UNL     1      43.466  -9.787  12.697  1.00  0.00     0.001 A 
HETATM   29  C   UNL     1      44.165 -10.549  11.757  1.00  0.00     0.014 A 
ENDBRANCH  22  24
ENDBRANCH  18  19
ENDBRANCH   5  18
BRANCH   1  30
HETATM   30  C   UNL     1      40.157 -14.812   3.728  1.00  0.00     0.113 C 
HETATM   31  C   UNL     1      39.843 -13.318   3.855  1.00  0.00     0.026 C 
ENDBRANCH   1  30
TORSDOF 4
ENDMDL
MODEL 9
REMARK VINA RESULT:      -8.2      1.656      2.211
REMARK  4 active torsions:
REMARK  status: ('A' for Active; 'I' for Inactive)
REMARK    1  A    between atoms: C_2  and  N_3 
REMARK    2  A    between atoms: N_7  and  C_9 
REMARK    3  A    between atoms: C_9  and  C_10 
REMARK    4  A    between atoms: C_13  and  C_14 
ROOT
HETATM    1  N   UNL     1      39.751 -12.012   2.028  1.00  0.00    -0.398 N 
HETATM    2  C   UNL     1      40.466 -13.335   2.249  1.00  0.00     0.075 C 
HETATM    3  C   UNL     1      39.863 -14.310   3.298  1.00  0.00     0.065 C 
HETATM    4  C   UNL     1      39.959 -13.904   4.758  1.00  0.00     0.238 C 
HETATM    5  N   UNL     1      41.305 -13.336   5.139  1.00  0.00    -0.065 N 
HETATM    6  H   UNL     1      41.099 -12.730   5.946  1.00  0.00     0.280 HD
HETATM    7  C   UNL     1      41.904 -12.391   4.128  1.00  0.00     0.238 C 
HETATM    8  C   UNL     1      41.896 -12.990   2.727  1.00  0.00     0.065 C 
HETATM    9  C   UNL     1      40.545 -14.129   0.946  1.00  0.00     0.061 A 
HETATM   10  C   UNL     1      39.847 -13.822  -0.202  1.00  0.00     0.037 A 
HETATM   11  N   UNL     1      40.187 -14.761  -1.145  1.00  0.00    -0.354 N 
HETATM   12  H   UNL     1      39.838 -14.795  -2.104  1.00  0.00     0.166 HD
HETATM   13  C   UNL     1      41.082 -15.619  -0.647  1.00  0.00     0.181 A 
HETATM   14  N   UNL     1      41.306 -15.246   0.624  1.00  0.00    -0.352 N 
HETATM   15  H   UNL     1      41.967 -15.732   1.224  1.00  0.00     0.166 HD
HETATM   16  C   UNL     1      39.004 -12.631  -0.343  1.00  0.00     0.078 C 
HETATM   17  C   UNL     1      39.628 -11.578   0.599  1.00  0.00     0.124 C 
ENDROOT
BRANCH   5  18
HETATM   18  C   UNL     1      42.289 -14.343   5.751  1.00  0.00     0.301 C 
BRANCH  18  19
HETATM   19  C   UNL     1      42.138 -15.675   5.125  1.00  0.00     0.107 C 
HETATM   20  O   UNL     1      41.395 -16.569   5.822  1.00  0.00    -0.216 OA
HETATM   21  N   UNL     1      41.653 -17.835   5.357  1.00  0.00    -0.128 NA
HETATM   22  C   UNL     1      42.524 -17.708   4.342  1.00  0.00     0.097 C 
HETATM   23  C   UNL     1      42.776 -16.326   4.094  1.00  0.00     0.071 C 
BRANCH  22  24
HETATM   24  C   UNL     1      43.208 -18.858   3.749  1.00  0.00    -0.005 A 
HETATM   25  C   UNL     1      44.219 -19.520   4.465  1.00  0.00     0.014 A 
HETATM   26  C   UNL     1      44.971 -20.535   3.868  1.00  0.00     0.001 A 
HETATM   27  C   UNL     1      44.717 -20.904   2.551  1.00  0.00     0.000 A 
HETATM   28  C   UNL     1      43.702 -20.272   1.834  1.00  0.00     0.001 A 
HETATM   29  C   UNL     1      42.951 -19.254   2.429  1.00  0.00     0.014 A 
ENDBRANCH  22  24
ENDBRANCH  18  19
ENDBRANCH   5  18
BRANCH   1  30
HETATM   30  C   UNL     1      38.535 -11.729   2.804  1.00  0.00     0.113 C 
HETATM   31  C   UNL     1      38.603 -10.535   3.762  1.00  0.00     0.026 C 
ENDBRANCH   1  30
TORSDOF 4
ENDMDL
MODEL 10
REMARK VINA RESULT:      -8.0      2.807      8.441
REMARK  4 active torsions:
REMARK  status: ('A' for Active; 'I' for Inactive)
REMARK    1  A    between atoms: C_2  and  N_3 
REMARK    2  A    between atoms: N_7  and  C_9 
REMARK    3  A    between atoms: C_9  and  C_10 
REMARK    4  A    between atoms: C_13  and  C_14 
ROOT
HETATM    1  N   UNL     1      43.011 -17.206   5.003  1.00  0.00    -0.398 N 
HETATM    2  C   UNL     1      43.152 -17.895   3.655  1.00  0.00     0.075 C 
HETATM    3  C   UNL     1      43.905 -17.130   2.533  1.00  0.00     0.065 C 
HETATM    4  C   UNL     1      43.220 -15.908   1.945  1.00  0.00     0.238 C 
HETATM    5  N   UNL     1      41.748 -16.113   1.678  1.00  0.00    -0.065 N 
HETATM    6  H   UNL     1      41.353 -15.162   1.722  1.00  0.00     0.280 HD
HETATM    7  C   UNL     1      41.004 -16.859   2.758  1.00  0.00     0.238 C 
HETATM    8  C   UNL     1      41.716 -18.151   3.138  1.00  0.00     0.065 C 
HETATM    9  C   UNL     1      43.881 -19.229   3.806  1.00  0.00     0.061 A 
HETATM   10  C   UNL     1      44.548 -19.633   4.942  1.00  0.00     0.037 A 
HETATM   11  N   UNL     1      45.064 -20.881   4.685  1.00  0.00    -0.354 N 
HETATM   12  H   UNL     1      45.604 -21.447   5.340  1.00  0.00     0.166 HD
HETATM   13  C   UNL     1      44.726 -21.281   3.456  1.00  0.00     0.181 A 
HETATM   14  N   UNL     1      44.009 -20.285   2.911  1.00  0.00    -0.352 N 
HETATM   15  H   UNL     1      43.615 -20.348   1.976  1.00  0.00     0.166 HD
HETATM   16  C   UNL     1      44.561 -18.864   6.190  1.00  0.00     0.078 C 
HETATM   17  C   UNL     1      43.231 -18.081   6.199  1.00  0.00     0.124 C 
ENDROOT
BRANCH   5  18
HETATM   18  C   UNL     1      41.397 -16.527   0.242  1.00  0.00     0.301 C 
BRANCH  18  19
HETATM   19  C   UNL     1      41.250 -15.340  -0.629  1.00  0.00     0.107 C 
HETATM   20  O   UNL     1      41.075 -15.599  -1.948  1.00  0.00    -0.216 OA
HETATM   21  N   UNL     1      41.345 -14.464  -2.672  1.00  0.00    -0.128 NA
HETATM   22  C   UNL     1      41.642 -13.497  -1.789  1.00  0.00     0.097 C 
HETATM   23  C   UNL     1      41.486 -13.995  -0.461  1.00  0.00     0.071 C 
BRANCH  22  24
HETATM   24  C   UNL     1      42.207 -12.210  -2.196  1.00  0.00    -0.005 A 
HETATM   25  C   UNL     1      42.845 -11.392  -1.250  1.00  0.00     0.014 A 
HETATM   26  C   UNL     1      43.275 -10.107  -1.590  1.00  0.00     0.001 A 
HETATM   27  C   UNL     1      43.080  -9.628  -2.882  1.00  0.00     0.000 A 
HETATM   28  C   UNL     1      42.468 -10.436  -3.839  1.00  0.00     0.001 A 
HETATM   29  C   UNL     1      42.034 -11.721  -3.499  1.00  0.00     0.014 A 
ENDBRANCH  22  24
ENDBRANCH  18  19
ENDBRANCH   5  18
BRANCH   1  30
HETATM   30  C   UNL     1      43.596 -15.869   5.176  1.00  0.00     0.113 C 
HETATM   31  C   UNL     1      42.615 -14.733   5.486  1.00  0.00     0.026 C 
ENDBRANCH   1  30
TORSDOF 4
ENDMDL
