MODEL 1
REMARK VINA RESULT:      -8.7      0.000      0.000
REMARK  8 active torsions:
REMARK  status: ('A' for Active; 'I' for Inactive)
REMARK    1  A    between atoms: C_3  and  N_4 
REMARK       I    between atoms: N_4  and  C_5 
REMARK    2  A    between atoms: C_5  and  C_6 
REMARK    3  A    between atoms: C_7  and  C_8 
REMARK    4  A    between atoms: C_17  and  C_18 
REMARK    5  A    between atoms: C_20  and  O_21 
REMARK    6  A    between atoms: C_23  and  O_24 
REMARK    7  A    between atoms: O_24  and  C_25 
REMARK    8  A    between atoms: C_25  and  C_26 
REMARK       I    between atoms: C_26  and  N_27 
ROOT
HETATM    1  C   UNL     1      40.787 -15.644   4.205  1.00  0.00     0.062 A 
HETATM    2  C   UNL     1      41.060 -14.731   5.373  1.00  0.00     0.176 A 
HETATM    3  N   UNL     1      40.586 -13.385   5.090  1.00  0.00    -0.277 N 
HETATM    4  C   UNL     1      40.070 -13.065   3.875  1.00  0.00     0.177 A 
HETATM    5  S   UNL     1      39.642 -11.383   3.789  1.00  0.00    -0.046 SA
HETATM    6  C   UNL     1      39.976 -11.145   5.468  1.00  0.00     0.077 C 
HETATM    7  C   UNL     1      39.798  -9.963   6.076  1.00  0.00     0.036 C 
HETATM    8  C   UNL     1      40.450 -12.430   6.071  1.00  0.00     0.267 C 
HETATM    9  O   UNL     1      40.618 -12.617   7.267  1.00  0.00    -0.266 OA
HETATM   10  N   UNL     1      39.875 -13.872   2.892  1.00  0.00    -0.228 NA
HETATM   11  C   UNL     1      40.226 -15.191   3.064  1.00  0.00     0.047 A 
HETATM   12  C   UNL     1      39.913 -16.056   1.867  1.00  0.00     0.071 C 
ENDROOT
BRANCH   7  13
HETATM   13  C   UNL     1      40.013  -9.707   7.500  1.00  0.00    -0.032 A 
HETATM   14  C   UNL     1      38.935  -9.733   8.397  1.00  0.00     0.051 A 
HETATM   15  C   UNL     1      39.145  -9.476   9.757  1.00  0.00     0.102 A 
HETATM   16  C   UNL     1      40.439  -9.161  10.203  1.00  0.00     0.102 A 
HETATM   17  C   UNL     1      41.518  -9.169   9.316  1.00  0.00     0.040 A 
HETATM   18  C   UNL     1      41.303  -9.439   7.965  1.00  0.00     0.014 A 
BRANCH  15  19
HETATM   19  O   UNL     1      38.159  -9.468  10.713  1.00  0.00    -0.353 OA
HETATM   20  C   UNL     1      37.630  -8.198  11.075  1.00  0.00     0.210 C 
ENDBRANCH  15  19
BRANCH  16  21
HETATM   21  O   UNL     1      40.605  -8.912  11.542  1.00  0.00    -0.339 OA
BRANCH  21  22
HETATM   22  C   UNL     1      41.792  -9.489  12.091  1.00  0.00     0.278 C 
BRANCH  22  23
HETATM   23  C   UNL     1      41.521 -10.937  12.483  1.00  0.00     0.239 C 
HETATM   24  N   UNL     1      42.425 -11.847  12.016  1.00  0.00    -0.368 N 
HETATM   25  H   UNL     1      43.311 -11.519  11.643  1.00  0.00     0.159 HD
HETATM   26  H   UNL     1      42.331 -12.811  12.304  1.00  0.00     0.159 HD
HETATM   27  O   UNL     1      40.533 -11.291  13.121  1.00  0.00    -0.271 OA
ENDBRANCH  22  23
ENDBRANCH  21  22
ENDBRANCH  16  21
ENDBRANCH   7  13
BRANCH   2  28
HETATM   28  C   UNL     1      42.526 -14.657   5.758  1.00  0.00     0.011 A 
HETATM   29  S   UNL     1      43.643 -13.858   4.724  1.00  0.00    -0.104 SA
HETATM   30  C   UNL     1      44.942 -14.146   5.792  1.00  0.00     0.050 A 
HETATM   31  C   UNL     1      44.545 -14.830   6.918  1.00  0.00     0.008 A 
HETATM   32  C   UNL     1      43.151 -15.128   6.900  1.00  0.00     0.017 A 
ENDBRANCH   2  28
BRANCH   1  33
HETATM   33  C   UNL     1      41.339 -17.031   4.264  1.00  0.00     0.256 C 
HETATM   34  N   UNL     1      42.445 -17.236   3.466  1.00  0.00    -0.323 N 
HETATM   35  H   UNL     1      42.822 -16.443   2.969  1.00  0.00     0.169 HD
HETATM   36  O   UNL     1      40.770 -17.864   4.959  1.00  0.00    -0.267 OA
BRANCH  34  37
HETATM   37  C   UNL     1      43.109 -18.468   3.221  1.00  0.00     0.041 A 
HETATM   38  C   UNL     1      44.054 -18.932   4.164  1.00  0.00    -0.035 A 
HETATM   39  C   UNL     1      44.389 -18.172   5.418  1.00  0.00     0.050 C 
HETATM   40  C   UNL     1      44.725 -20.148   3.929  1.00  0.00     0.009 A 
HETATM   41  C   UNL     1      44.473 -20.896   2.781  1.00  0.00     0.001 A 
HETATM   42  C   UNL     1      43.546 -20.439   1.855  1.00  0.00     0.002 A 
HETATM   43  C   UNL     1      42.871 -19.235   2.073  1.00  0.00     0.030 A 
ENDBRANCH  34  37
ENDBRANCH   1  33
TORSDOF 8
ENDMDL
MODEL 2
REMARK VINA RESULT:      -8.2      2.134      2.855
REMARK  8 active torsions:
REMARK  status: ('A' for Active; 'I' for Inactive)
REMARK    1  A    between atoms: C_3  and  N_4 
REMARK       I    between atoms: N_4  and  C_5 
REMARK    2  A    between atoms: C_5  and  C_6 
REMARK    3  A    between atoms: C_7  and  C_8 
REMARK    4  A    between atoms: C_17  and  C_18 
REMARK    5  A    between atoms: C_20  and  O_21 
REMARK    6  A    between atoms: C_23  and  O_24 
REMARK    7  A    between atoms: O_24  and  C_25 
REMARK    8  A    between atoms: C_25  and  C_26 
REMARK       I    between atoms: C_26  and  N_27 
ROOT
HETATM    1  C   UNL     1      41.524 -15.683   2.488  1.00  0.00     0.062 A 
HETATM    2  C   UNL     1      41.351 -14.608   3.531  1.00  0.00     0.176 A 
HETATM    3  N   UNL     1      41.257 -13.299   2.903  1.00  0.00    -0.277 N 
HETATM    4  C   UNL     1      41.416 -13.152   1.562  1.00  0.00     0.177 A 
HETATM    5  S   UNL     1      41.319 -11.482   1.090  1.00  0.00    -0.046 SA
HETATM    6  C   UNL     1      40.865 -10.990   2.684  1.00  0.00     0.077 C 
HETATM    7  C   UNL     1      40.594  -9.713   2.992  1.00  0.00     0.036 C 
HETATM    8  C   UNL     1      40.818 -12.186   3.583  1.00  0.00     0.267 C 
HETATM    9  O   UNL     1      40.384 -12.182   4.725  1.00  0.00    -0.266 OA
HETATM   10  N   UNL     1      41.587 -14.096   0.706  1.00  0.00    -0.228 NA
HETATM   11  C   UNL     1      41.628 -15.389   1.174  1.00  0.00     0.047 A 
HETATM   12  C   UNL     1      41.788 -16.418   0.082  1.00  0.00     0.071 C 
ENDROOT
BRANCH   7  13
HETATM   13  C   UNL     1      40.157  -9.238   4.305  1.00  0.00    -0.032 A 
HETATM   14  C   UNL     1      38.797  -9.017   4.564  1.00  0.00     0.051 A 
HETATM   15  C   UNL     1      38.386  -8.551   5.818  1.00  0.00     0.102 A 
HETATM   16  C   UNL     1      39.353  -8.278   6.799  1.00  0.00     0.102 A 
HETATM   17  C   UNL     1      40.705  -8.532   6.552  1.00  0.00     0.040 A 
HETATM   18  C   UNL     1      41.105  -9.008   5.306  1.00  0.00     0.014 A 
BRANCH  15  19
HETATM   19  O   UNL     1      37.083  -8.294   6.168  1.00  0.00    -0.353 OA
HETATM   20  C   UNL     1      36.238  -7.770   5.151  1.00  0.00     0.210 C 
ENDBRANCH  15  19
BRANCH  16  21
HETATM   21  O   UNL     1      38.912  -7.820   8.015  1.00  0.00    -0.339 OA
BRANCH  21  22
HETATM   22  C   UNL     1      39.498  -8.495   9.130  1.00  0.00     0.278 C 
BRANCH  22  23
HETATM   23  C   UNL     1      38.623  -9.677   9.528  1.00  0.00     0.239 C 
HETATM   24  N   UNL     1      37.985  -9.554  10.729  1.00  0.00    -0.368 N 
HETATM   25  H   UNL     1      37.940  -8.642  11.175  1.00  0.00     0.159 HD
HETATM   26  H   UNL     1      37.338 -10.278  11.009  1.00  0.00     0.159 HD
HETATM   27  O   UNL     1      38.530 -10.704   8.861  1.00  0.00    -0.271 OA
ENDBRANCH  22  23
ENDBRANCH  21  22
ENDBRANCH  16  21
ENDBRANCH   7  13
BRANCH   2  28
HETATM   28  C   UNL     1      42.464 -14.574   4.561  1.00  0.00     0.011 A 
HETATM   29  S   UNL     1      44.001 -13.932   4.138  1.00  0.00    -0.104 SA
HETATM   30  C   UNL     1      44.615 -14.186   5.710  1.00  0.00     0.050 A 
HETATM   31  C   UNL     1      43.676 -14.741   6.549  1.00  0.00     0.008 A 
HETATM   32  C   UNL     1      42.434 -14.968   5.888  1.00  0.00     0.017 A 
ENDBRANCH   2  28
BRANCH   1  33
HETATM   33  C   UNL     1      41.783 -17.075   2.962  1.00  0.00     0.256 C 
HETATM   34  N   UNL     1      43.035 -17.560   2.643  1.00  0.00    -0.323 N 
HETATM   35  H   UNL     1      43.680 -16.934   2.185  1.00  0.00     0.169 HD
HETATM   36  O   UNL     1      40.889 -17.678   3.544  1.00  0.00    -0.267 OA
BRANCH  34  37
HETATM   37  C   UNL     1      43.522 -18.878   2.850  1.00  0.00     0.041 A 
HETATM   38  C   UNL     1      44.135 -19.192   4.085  1.00  0.00    -0.035 A 
HETATM   39  C   UNL     1      44.296 -18.185   5.191  1.00  0.00     0.050 C 
HETATM   40  C   UNL     1      44.630 -20.494   4.300  1.00  0.00     0.009 A 
HETATM   41  C   UNL     1      44.526 -21.472   3.314  1.00  0.00     0.001 A 
HETATM   42  C   UNL     1      43.925 -21.163   2.102  1.00  0.00     0.002 A 
HETATM   43  C   UNL     1      43.429 -19.877   1.873  1.00  0.00     0.030 A 
ENDBRANCH  34  37
ENDBRANCH   1  33
TORSDOF 8
ENDMDL
MODEL 3
REMARK VINA RESULT:      -8.0      4.740      7.138
REMARK  8 active torsions:
REMARK  status: ('A' for Active; 'I' for Inactive)
REMARK    1  A    between atoms: C_3  and  N_4 
REMARK       I    between atoms: N_4  and  C_5 
REMARK    2  A    between atoms: C_5  and  C_6 
REMARK    3  A    between atoms: C_7  and  C_8 
REMARK    4  A    between atoms: C_17  and  C_18 
REMARK    5  A    between atoms: C_20  and  O_21 
REMARK    6  A    between atoms: C_23  and  O_24 
REMARK    7  A    between atoms: O_24  and  C_25 
REMARK    8  A    between atoms: C_25  and  C_26 
REMARK       I    between atoms: C_26  and  N_27 
ROOT
HETATM    1  C   UNL     1      42.772 -16.392   5.121  1.00  0.00     0.062 A 
HETATM    2  C   UNL     1      42.558 -15.428   3.982  1.00  0.00     0.176 A 
HETATM    3  N   UNL     1      41.490 -14.493   4.299  1.00  0.00    -0.277 N 
HETATM    4  C   UNL     1      40.773 -14.612   5.447  1.00  0.00     0.177 A 
HETATM    5  S   UNL     1      39.523 -13.408   5.542  1.00  0.00    -0.046 SA
HETATM    6  C   UNL     1      40.091 -12.610   4.118  1.00  0.00     0.077 C 
HETATM    7  C   UNL     1      39.518 -11.496   3.641  1.00  0.00     0.036 C 
HETATM    8  C   UNL     1      41.277 -13.344   3.573  1.00  0.00     0.267 C 
HETATM    9  O   UNL     1      41.988 -12.941   2.665  1.00  0.00    -0.266 OA
HETATM   10  N   UNL     1      40.972 -15.467   6.386  1.00  0.00    -0.228 NA
HETATM   11  C   UNL     1      42.001 -16.368   6.229  1.00  0.00     0.047 A 
HETATM   12  C   UNL     1      42.174 -17.294   7.408  1.00  0.00     0.071 C 
ENDROOT
BRANCH   7  13
HETATM   13  C   UNL     1      39.979 -10.745   2.474  1.00  0.00    -0.032 A 
HETATM   14  C   UNL     1      39.620 -11.152   1.181  1.00  0.00     0.051 A 
HETATM   15  C   UNL     1      40.073 -10.436   0.066  1.00  0.00     0.102 A 
HETATM   16  C   UNL     1      40.915  -9.328   0.258  1.00  0.00     0.102 A 
HETATM   17  C   UNL     1      41.243  -8.902   1.548  1.00  0.00     0.040 A 
HETATM   18  C   UNL     1      40.778  -9.612   2.653  1.00  0.00     0.014 A 
BRANCH  15  19
HETATM   19  O   UNL     1      39.787 -10.757  -1.239  1.00  0.00    -0.353 OA
HETATM   20  C   UNL     1      39.484 -12.120  -1.511  1.00  0.00     0.210 C 
ENDBRANCH  15  19
BRANCH  16  21
HETATM   21  O   UNL     1      41.341  -8.654  -0.858  1.00  0.00    -0.339 OA
BRANCH  21  22
HETATM   22  C   UNL     1      42.760  -8.654  -1.022  1.00  0.00     0.278 C 
BRANCH  22  23
HETATM   23  C   UNL     1      43.215 -10.016  -1.531  1.00  0.00     0.239 C 
HETATM   24  N   UNL     1      42.702 -10.390  -2.740  1.00  0.00    -0.368 N 
HETATM   25  H   UNL     1      42.247  -9.692  -3.323  1.00  0.00     0.159 HD
HETATM   26  H   UNL     1      43.025 -11.252  -3.156  1.00  0.00     0.159 HD
HETATM   27  O   UNL     1      43.942 -10.769  -0.889  1.00  0.00    -0.271 OA
ENDBRANCH  22  23
ENDBRANCH  21  22
ENDBRANCH  16  21
ENDBRANCH   7  13
BRANCH   2  28
HETATM   28  C   UNL     1      42.235 -16.106   2.663  1.00  0.00     0.011 A 
HETATM   29  S   UNL     1      40.709 -16.866   2.444  1.00  0.00    -0.104 SA
HETATM   30  C   UNL     1      41.080 -17.301   0.837  1.00  0.00     0.050 A 
HETATM   31  C   UNL     1      42.334 -16.876   0.462  1.00  0.00     0.008 A 
HETATM   32  C   UNL     1      43.003 -16.187   1.515  1.00  0.00     0.017 A 
ENDBRANCH   2  28
BRANCH   1  33
HETATM   33  C   UNL     1      43.734 -17.516   4.909  1.00  0.00     0.256 C 
HETATM   34  N   UNL     1      43.143 -18.707   4.541  1.00  0.00    -0.323 N 
HETATM   35  H   UNL     1      42.146 -18.711   4.386  1.00  0.00     0.169 HD
HETATM   36  O   UNL     1      44.927 -17.318   5.106  1.00  0.00    -0.267 OA
BRANCH  34  37
HETATM   37  C   UNL     1      43.778 -19.968   4.389  1.00  0.00     0.041 A 
HETATM   38  C   UNL     1      43.929 -20.504   3.089  1.00  0.00    -0.035 A 
HETATM   39  C   UNL     1      43.440 -19.793   1.857  1.00  0.00     0.050 C 
HETATM   40  C   UNL     1      44.550 -21.758   2.926  1.00  0.00     0.009 A 
HETATM   41  C   UNL     1      45.014 -22.476   4.024  1.00  0.00     0.001 A 
HETATM   42  C   UNL     1      44.865 -21.951   5.300  1.00  0.00     0.002 A 
HETATM   43  C   UNL     1      44.251 -20.708   5.480  1.00  0.00     0.030 A 
ENDBRANCH  34  37
ENDBRANCH   1  33
TORSDOF 8
ENDMDL
MODEL 4
REMARK VINA RESULT:      -8.0      4.677      6.959
REMARK  8 active torsions:
REMARK  status: ('A' for Active; 'I' for Inactive)
REMARK    1  A    between atoms: C_3  and  N_4 
REMARK       I    between atoms: N_4  and  C_5 
REMARK    2  A    between atoms: C_5  and  C_6 
REMARK    3  A    between atoms: C_7  and  C_8 
REMARK    4  A    between atoms: C_17  and  C_18 
REMARK    5  A    between atoms: C_20  and  O_21 
REMARK    6  A    between atoms: C_23  and  O_24 
REMARK    7  A    between atoms: O_24  and  C_25 
REMARK    8  A    between atoms: C_25  and  C_26 
REMARK       I    between atoms: C_26  and  N_27 
ROOT
HETATM    1  C   UNL     1      41.194 -15.865   2.143  1.00  0.00     0.062 A 
HETATM    2  C   UNL     1      40.149 -14.816   2.427  1.00  0.00     0.176 A 
HETATM    3  N   UNL     1      39.941 -13.975   1.258  1.00  0.00    -0.277 N 
HETATM    4  C   UNL     1      40.701 -14.125   0.143  1.00  0.00     0.177 A 
HETATM    5  S   UNL     1      40.284 -12.954  -1.072  1.00  0.00    -0.046 SA
HETATM    6  C   UNL     1      38.940 -12.378  -0.149  1.00  0.00     0.077 C 
HETATM    7  C   UNL     1      38.124 -11.412  -0.595  1.00  0.00     0.036 C 
HETATM    8  C   UNL     1      38.859 -13.132   1.141  1.00  0.00     0.267 C 
HETATM    9  O   UNL     1      37.932 -13.059   1.933  1.00  0.00    -0.266 OA
HETATM   10  N   UNL     1      41.603 -15.020  -0.051  1.00  0.00    -0.228 NA
HETATM   11  C   UNL     1      41.847 -15.918   0.963  1.00  0.00     0.047 A 
HETATM   12  C   UNL     1      42.890 -16.950   0.612  1.00  0.00     0.071 C 
ENDROOT
BRANCH   7  13
HETATM   13  C   UNL     1      36.943 -10.915   0.111  1.00  0.00    -0.032 A 
HETATM   14  C   UNL     1      37.068  -9.929   1.100  1.00  0.00     0.051 A 
HETATM   15  C   UNL     1      35.936  -9.465   1.780  1.00  0.00     0.102 A 
HETATM   16  C   UNL     1      34.682 -10.022   1.482  1.00  0.00     0.102 A 
HETATM   17  C   UNL     1      34.552 -10.980   0.472  1.00  0.00     0.040 A 
HETATM   18  C   UNL     1      35.682 -11.426  -0.210  1.00  0.00     0.014 A 
BRANCH  15  19
HETATM   19  O   UNL     1      35.953  -8.512   2.768  1.00  0.00    -0.353 OA
HETATM   20  C   UNL     1      36.597  -8.865   3.987  1.00  0.00     0.210 C 
ENDBRANCH  15  19
BRANCH  16  21
HETATM   21  O   UNL     1      33.595  -9.545   2.171  1.00  0.00    -0.339 OA
BRANCH  21  22
HETATM   22  C   UNL     1      32.379 -10.233   1.875  1.00  0.00     0.278 C 
BRANCH  22  23
HETATM   23  C   UNL     1      31.895 -10.972   3.117  1.00  0.00     0.239 C 
HETATM   24  N   UNL     1      32.590 -10.706   4.262  1.00  0.00    -0.368 N 
HETATM   25  H   UNL     1      33.216  -9.906   4.288  1.00  0.00     0.159 HD
HETATM   26  H   UNL     1      32.268 -11.116   5.128  1.00  0.00     0.159 HD
HETATM   27  O   UNL     1      30.987 -11.798   3.102  1.00  0.00    -0.271 OA
ENDBRANCH  22  23
ENDBRANCH  21  22
ENDBRANCH  16  21
ENDBRANCH   7  13
BRANCH   2  28
HETATM   28  C   UNL     1      40.483 -13.928   3.611  1.00  0.00     0.011 A 
HETATM   29  S   UNL     1      41.776 -12.801   3.497  1.00  0.00    -0.104 SA
HETATM   30  C   UNL     1      41.494 -12.216   5.075  1.00  0.00     0.050 A 
HETATM   31  C   UNL     1      40.437 -12.852   5.682  1.00  0.00     0.008 A 
HETATM   32  C   UNL     1      39.852 -13.843   4.840  1.00  0.00     0.017 A 
ENDBRANCH   2  28
BRANCH   1  33
HETATM   33  C   UNL     1      41.641 -16.726   3.280  1.00  0.00     0.256 C 
HETATM   34  N   UNL     1      42.880 -16.396   3.789  1.00  0.00    -0.323 N 
HETATM   35  H   UNL     1      43.345 -15.585   3.410  1.00  0.00     0.169 HD
HETATM   36  O   UNL     1      40.921 -17.650   3.639  1.00  0.00    -0.267 OA
BRANCH  34  37
HETATM   37  C   UNL     1      43.614 -17.101   4.780  1.00  0.00     0.041 A 
HETATM   38  C   UNL     1      43.817 -16.493   6.040  1.00  0.00    -0.035 A 
HETATM   39  C   UNL     1      43.289 -15.125   6.376  1.00  0.00     0.050 C 
HETATM   40  C   UNL     1      44.552 -17.178   7.028  1.00  0.00     0.009 A 
HETATM   41  C   UNL     1      45.081 -18.442   6.780  1.00  0.00     0.001 A 
HETATM   42  C   UNL     1      44.882 -19.038   5.542  1.00  0.00     0.002 A 
HETATM   43  C   UNL     1      44.156 -18.372   4.552  1.00  0.00     0.030 A 
ENDBRANCH  34  37
ENDBRANCH   1  33
TORSDOF 8
ENDMDL
MODEL 5
REMARK VINA RESULT:      -7.8      4.536      6.589
REMARK  8 active torsions:
REMARK  status: ('A' for Active; 'I' for Inactive)
REMARK    1  A    between atoms: C_3  and  N_4 
REMARK       I    between atoms: N_4  and  C_5 
REMARK    2  A    between atoms: C_5  and  C_6 
REMARK    3  A    between atoms: C_7  and  C_8 
REMARK    4  A    between atoms: C_17  and  C_18 
REMARK    5  A    between atoms: C_20  and  O_21 
REMARK    6  A    between atoms: C_23  and  O_24 
REMARK    7  A    between atoms: O_24  and  C_25 
REMARK    8  A    between atoms: C_25  and  C_26 
REMARK       I    between atoms: C_26  and  N_27 
ROOT
HETATM    1  C   UNL     1      40.932 -15.663   2.264  1.00  0.00     0.062 A 
HETATM    2  C   UNL     1      40.035 -14.514   2.648  1.00  0.00     0.176 A 
HETATM    3  N   UNL     1      39.747 -13.683   1.488  1.00  0.00    -0.277 N 
HETATM    4  C   UNL     1      40.332 -13.930   0.288  1.00  0.00     0.177 A 
HETATM    5  S   UNL     1      39.862 -12.752  -0.901  1.00  0.00    -0.046 SA
HETATM    6  C   UNL     1      38.714 -12.031   0.171  1.00  0.00     0.077 C 
HETATM    7  C   UNL     1      37.937 -11.001  -0.195  1.00  0.00     0.036 C 
HETATM    8  C   UNL     1      38.742 -12.744   1.487  1.00  0.00     0.267 C 
HETATM    9  O   UNL     1      37.941 -12.565   2.392  1.00  0.00    -0.266 OA
HETATM   10  N   UNL     1      41.114 -14.911   0.006  1.00  0.00    -0.228 NA
HETATM   11  C   UNL     1      41.410 -15.805   1.010  1.00  0.00     0.047 A 
HETATM   12  C   UNL     1      42.298 -16.939   0.560  1.00  0.00     0.071 C 
ENDROOT
BRANCH   7  13
HETATM   13  C   UNL     1      36.913 -10.379   0.644  1.00  0.00    -0.032 A 
HETATM   14  C   UNL     1      35.584 -10.824   0.592  1.00  0.00     0.051 A 
HETATM   15  C   UNL     1      34.606 -10.218   1.388  1.00  0.00     0.102 A 
HETATM   16  C   UNL     1      34.966  -9.139   2.213  1.00  0.00     0.102 A 
HETATM   17  C   UNL     1      36.296  -8.719   2.291  1.00  0.00     0.040 A 
HETATM   18  C   UNL     1      37.266  -9.337   1.505  1.00  0.00     0.014 A 
BRANCH  15  19
HETATM   19  O   UNL     1      33.279 -10.572   1.404  1.00  0.00    -0.353 OA
HETATM   20  C   UNL     1      32.554 -10.392   0.193  1.00  0.00     0.210 C 
ENDBRANCH  15  19
BRANCH  16  21
HETATM   21  O   UNL     1      33.980  -8.568   2.977  1.00  0.00    -0.339 OA
BRANCH  21  22
HETATM   22  C   UNL     1      34.179  -8.725   4.383  1.00  0.00     0.278 C 
BRANCH  22  23
HETATM   23  C   UNL     1      32.970  -9.423   4.995  1.00  0.00     0.239 C 
HETATM   24  N   UNL     1      32.636 -10.619   4.426  1.00  0.00    -0.368 N 
HETATM   25  H   UNL     1      33.301 -11.077   3.808  1.00  0.00     0.159 HD
HETATM   26  H   UNL     1      31.886 -11.156   4.837  1.00  0.00     0.159 HD
HETATM   27  O   UNL     1      32.292  -8.936   5.895  1.00  0.00    -0.271 OA
ENDBRANCH  22  23
ENDBRANCH  21  22
ENDBRANCH  16  21
ENDBRANCH   7  13
BRANCH   2  28
HETATM   28  C   UNL     1      40.606 -13.635   3.745  1.00  0.00     0.011 A 
HETATM   29  S   UNL     1      39.892 -13.645   5.308  1.00  0.00    -0.104 SA
HETATM   30  C   UNL     1      41.038 -12.536   5.914  1.00  0.00     0.050 A 
HETATM   31  C   UNL     1      41.954 -12.164   4.957  1.00  0.00     0.008 A 
HETATM   32  C   UNL     1      41.706 -12.796   3.703  1.00  0.00     0.017 A 
ENDBRANCH   2  28
BRANCH   1  33
HETATM   33  C   UNL     1      41.448 -16.537   3.361  1.00  0.00     0.256 C 
HETATM   34  N   UNL     1      42.777 -16.332   3.672  1.00  0.00    -0.323 N 
HETATM   35  H   UNL     1      43.264 -15.589   3.194  1.00  0.00     0.169 HD
HETATM   36  O   UNL     1      40.696 -17.366   3.859  1.00  0.00    -0.267 OA
BRANCH  34  37
HETATM   37  C   UNL     1      43.571 -17.087   4.575  1.00  0.00     0.041 A 
HETATM   38  C   UNL     1      43.870 -16.538   5.843  1.00  0.00    -0.035 A 
HETATM   39  C   UNL     1      43.383 -15.181   6.275  1.00  0.00     0.050 C 
HETATM   40  C   UNL     1      44.664 -17.272   6.745  1.00  0.00     0.009 A 
HETATM   41  C   UNL     1      45.160 -18.528   6.405  1.00  0.00     0.001 A 
HETATM   42  C   UNL     1      44.867 -19.067   5.160  1.00  0.00     0.002 A 
HETATM   43  C   UNL     1      44.081 -18.351   4.254  1.00  0.00     0.030 A 
ENDBRANCH  34  37
ENDBRANCH   1  33
TORSDOF 8
ENDMDL
MODEL 6
REMARK VINA RESULT:      -7.6      4.582     10.018
REMARK  8 active torsions:
REMARK  status: ('A' for Active; 'I' for Inactive)
REMARK    1  A    between atoms: C_3  and  N_4 
REMARK       I    between atoms: N_4  and  C_5 
REMARK    2  A    between atoms: C_5  and  C_6 
REMARK    3  A    between atoms: C_7  and  C_8 
REMARK    4  A    between atoms: C_17  and  C_18 
REMARK    5  A    between atoms: C_20  and  O_21 
REMARK    6  A    between atoms: C_23  and  O_24 
REMARK    7  A    between atoms: O_24  and  C_25 
REMARK    8  A    between atoms: C_25  and  C_26 
REMARK       I    between atoms: C_26  and  N_27 
ROOT
HETATM    1  C   UNL     1      38.379 -11.215   2.771  1.00  0.00     0.062 A 
HETATM    2  C   UNL     1      39.253 -12.416   2.520  1.00  0.00     0.176 A 
HETATM    3  N   UNL     1      40.021 -12.747   3.711  1.00  0.00    -0.277 N 
HETATM    4  C   UNL     1      39.967 -11.963   4.818  1.00  0.00     0.177 A 
HETATM    5  S   UNL     1      41.025 -12.552   6.065  1.00  0.00    -0.046 SA
HETATM    6  C   UNL     1      41.401 -13.978   5.164  1.00  0.00     0.077 C 
HETATM    7  C   UNL     1      42.213 -14.934   5.638  1.00  0.00     0.036 C 
HETATM    8  C   UNL     1      40.677 -13.948   3.854  1.00  0.00     0.267 C 
HETATM    9  O   UNL     1      40.621 -14.882   3.068  1.00  0.00    -0.266 OA
HETATM   10  N   UNL     1      39.223 -10.928   4.986  1.00  0.00    -0.228 NA
HETATM   11  C   UNL     1      38.401 -10.553   3.947  1.00  0.00     0.047 A 
HETATM   12  C   UNL     1      37.540  -9.355   4.266  1.00  0.00     0.071 C 
ENDROOT
BRANCH   7  13
HETATM   13  C   UNL     1      42.532 -16.185   4.950  1.00  0.00    -0.032 A 
HETATM   14  C   UNL     1      43.292 -16.175   3.772  1.00  0.00     0.051 A 
HETATM   15  C   UNL     1      43.585 -17.374   3.112  1.00  0.00     0.102 A 
HETATM   16  C   UNL     1      43.082 -18.580   3.627  1.00  0.00     0.102 A 
HETATM   17  C   UNL     1      42.356 -18.594   4.820  1.00  0.00     0.040 A 
HETATM   18  C   UNL     1      42.080 -17.397   5.478  1.00  0.00     0.014 A 
BRANCH  15  19
HETATM   19  O   UNL     1      44.310 -17.471   1.949  1.00  0.00    -0.353 OA
HETATM   20  C   UNL     1      43.576 -17.422   0.731  1.00  0.00     0.210 C 
ENDBRANCH  15  19
BRANCH  16  21
HETATM   21  O   UNL     1      43.387 -19.735   2.951  1.00  0.00    -0.339 OA
BRANCH  21  22
HETATM   22  C   UNL     1      44.409 -20.513   3.577  1.00  0.00     0.278 C 
BRANCH  22  23
HETATM   23  C   UNL     1      44.399 -21.925   3.001  1.00  0.00     0.239 C 
HETATM   24  N   UNL     1      44.759 -22.914   3.872  1.00  0.00    -0.368 N 
HETATM   25  H   UNL     1      44.796 -22.709   4.867  1.00  0.00     0.159 HD
HETATM   26  H   UNL     1      44.702 -23.874   3.562  1.00  0.00     0.159 HD
HETATM   27  O   UNL     1      44.147 -22.173   1.826  1.00  0.00    -0.271 OA
ENDBRANCH  22  23
ENDBRANCH  21  22
ENDBRANCH  16  21
ENDBRANCH   7  13
BRANCH   2  28
HETATM   28  C   UNL     1      40.213 -12.239   1.357  1.00  0.00     0.011 A 
HETATM   29  S   UNL     1      39.992 -13.152  -0.082  1.00  0.00    -0.104 SA
HETATM   30  C   UNL     1      41.325 -12.405  -0.841  1.00  0.00     0.050 A 
HETATM   31  C   UNL     1      41.928 -11.474  -0.028  1.00  0.00     0.008 A 
HETATM   32  C   UNL     1      41.290 -11.377   1.242  1.00  0.00     0.017 A 
ENDBRANCH   2  28
BRANCH   1  33
HETATM   33  C   UNL     1      37.629 -10.646   1.611  1.00  0.00     0.256 C 
HETATM   34  N   UNL     1      36.468 -11.323   1.299  1.00  0.00    -0.323 N 
HETATM   35  H   UNL     1      36.191 -12.086   1.898  1.00  0.00     0.169 HD
HETATM   36  O   UNL     1      38.098  -9.681   1.020  1.00  0.00    -0.267 OA
BRANCH  34  37
HETATM   37  C   UNL     1      35.617 -11.095   0.185  1.00  0.00     0.041 A 
HETATM   38  C   UNL     1      34.287 -10.676   0.417  1.00  0.00    -0.035 A 
HETATM   39  C   UNL     1      33.733 -10.463   1.800  1.00  0.00     0.050 C 
HETATM   40  C   UNL     1      33.430 -10.455  -0.679  1.00  0.00     0.009 A 
HETATM   41  C   UNL     1      33.873 -10.646  -1.985  1.00  0.00     0.001 A 
HETATM   42  C   UNL     1      35.178 -11.059  -2.213  1.00  0.00     0.002 A 
HETATM   43  C   UNL     1      36.041 -11.282  -1.137  1.00  0.00     0.030 A 
ENDBRANCH  34  37
ENDBRANCH   1  33
TORSDOF 8
ENDMDL
MODEL 7
REMARK VINA RESULT:      -7.4      5.991      7.967
REMARK  8 active torsions:
REMARK  status: ('A' for Active; 'I' for Inactive)
REMARK    1  A    between atoms: C_3  and  N_4 
REMARK       I    between atoms: N_4  and  C_5 
REMARK    2  A    between atoms: C_5  and  C_6 
REMARK    3  A    between atoms: C_7  and  C_8 
REMARK    4  A    between atoms: C_17  and  C_18 
REMARK    5  A    between atoms: C_20  and  O_21 
REMARK    6  A    between atoms: C_23  and  O_24 
REMARK    7  A    between atoms: O_24  and  C_25 
REMARK    8  A    between atoms: C_25  and  C_26 
REMARK       I    between atoms: C_26  and  N_27 
ROOT
HETATM    1  C   UNL     1      39.517 -14.053  -0.589  1.00  0.00     0.062 A 
HETATM    2  C   UNL     1      38.655 -13.064   0.153  1.00  0.00     0.176 A 
HETATM    3  N   UNL     1      37.749 -12.389  -0.764  1.00  0.00    -0.277 N 
HETATM    4  C   UNL     1      37.814 -12.611  -2.102  1.00  0.00     0.177 A 
HETATM    5  S   UNL     1      36.666 -11.632  -2.964  1.00  0.00    -0.046 SA
HETATM    6  C   UNL     1      35.954 -11.058  -1.497  1.00  0.00     0.077 C 
HETATM    7  C   UNL     1      34.907 -10.220  -1.486  1.00  0.00     0.036 C 
HETATM    8  C   UNL     1      36.671 -11.655  -0.327  1.00  0.00     0.267 C 
HETATM    9  O   UNL     1      36.305 -11.560   0.835  1.00  0.00    -0.266 OA
HETATM   10  N   UNL     1      38.584 -13.449  -2.701  1.00  0.00    -0.228 NA
HETATM   11  C   UNL     1      39.444 -14.197  -1.929  1.00  0.00     0.047 A 
HETATM   12  C   UNL     1      40.268 -15.177  -2.727  1.00  0.00     0.071 C 
ENDROOT
BRANCH   7  13
HETATM   13  C   UNL     1      34.227  -9.737  -0.284  1.00  0.00    -0.032 A 
HETATM   14  C   UNL     1      33.044 -10.347   0.156  1.00  0.00     0.051 A 
HETATM   15  C   UNL     1      32.392  -9.874   1.300  1.00  0.00     0.102 A 
HETATM   16  C   UNL     1      32.919  -8.764   1.980  1.00  0.00     0.102 A 
HETATM   17  C   UNL     1      34.116  -8.178   1.562  1.00  0.00     0.040 A 
HETATM   18  C   UNL     1      34.767  -8.663   0.429  1.00  0.00     0.014 A 
BRANCH  15  19
HETATM   19  O   UNL     1      31.226 -10.394   1.808  1.00  0.00    -0.353 OA
HETATM   20  C   UNL     1      31.335 -11.601   2.554  1.00  0.00     0.210 C 
ENDBRANCH  15  19
BRANCH  16  21
HETATM   21  O   UNL     1      32.250  -8.326   3.096  1.00  0.00    -0.339 OA
BRANCH  21  22
HETATM   22  C   UNL     1      33.092  -8.140   4.235  1.00  0.00     0.278 C 
BRANCH  22  23
HETATM   23  C   UNL     1      32.583  -8.993   5.391  1.00  0.00     0.239 C 
HETATM   24  N   UNL     1      32.952 -10.307   5.354  1.00  0.00    -0.368 N 
HETATM   25  H   UNL     1      33.693 -10.597   4.721  1.00  0.00     0.159 HD
HETATM   26  H   UNL     1      32.699 -10.902   6.131  1.00  0.00     0.159 HD
HETATM   27  O   UNL     1      31.842  -8.565   6.271  1.00  0.00    -0.271 OA
ENDBRANCH  22  23
ENDBRANCH  21  22
ENDBRANCH  16  21
ENDBRANCH   7  13
BRANCH   2  28
HETATM   28  C   UNL     1      39.446 -12.017   0.914  1.00  0.00     0.011 A 
HETATM   29  S   UNL     1      40.396 -10.871   0.054  1.00  0.00    -0.104 SA
HETATM   30  C   UNL     1      40.881 -10.092   1.493  1.00  0.00     0.050 A 
HETATM   31  C   UNL     1      40.332 -10.679   2.609  1.00  0.00     0.008 A 
HETATM   32  C   UNL     1      39.504 -11.791   2.278  1.00  0.00     0.017 A 
ENDBRANCH   2  28
BRANCH   1  33
HETATM   33  C   UNL     1      40.608 -14.733   0.174  1.00  0.00     0.256 C 
HETATM   34  N   UNL     1      40.191 -15.823   0.909  1.00  0.00    -0.323 N 
HETATM   35  H   UNL     1      39.226 -16.106   0.828  1.00  0.00     0.169 HD
HETATM   36  O   UNL     1      41.741 -14.271   0.123  1.00  0.00    -0.267 OA
BRANCH  34  37
HETATM   37  C   UNL     1      40.966 -16.589   1.821  1.00  0.00     0.041 A 
HETATM   38  C   UNL     1      40.986 -16.211   3.183  1.00  0.00    -0.035 A 
HETATM   39  C   UNL     1      40.222 -15.026   3.708  1.00  0.00     0.050 C 
HETATM   40  C   UNL     1      41.758 -16.956   4.096  1.00  0.00     0.009 A 
HETATM   41  C   UNL     1      42.501 -18.056   3.676  1.00  0.00     0.001 A 
HETATM   42  C   UNL     1      42.482 -18.426   2.338  1.00  0.00     0.002 A 
HETATM   43  C   UNL     1      41.721 -17.698   1.420  1.00  0.00     0.030 A 
ENDBRANCH  34  37
ENDBRANCH   1  33
TORSDOF 8
ENDMDL
MODEL 8
REMARK VINA RESULT:      -7.2      5.008      7.509
REMARK  8 active torsions:
REMARK  status: ('A' for Active; 'I' for Inactive)
REMARK    1  A    between atoms: C_3  and  N_4 
REMARK       I    between atoms: N_4  and  C_5 
REMARK    2  A    between atoms: C_5  and  C_6 
REMARK    3  A    between atoms: C_7  and  C_8 
REMARK    4  A    between atoms: C_17  and  C_18 
REMARK    5  A    between atoms: C_20  and  O_21 
REMARK    6  A    between atoms: C_23  and  O_24 
REMARK    7  A    between atoms: O_24  and  C_25 
REMARK    8  A    between atoms: C_25  and  C_26 
REMARK       I    between atoms: C_26  and  N_27 
ROOT
HETATM    1  C   UNL     1      41.275 -15.953   2.111  1.00  0.00     0.062 A 
HETATM    2  C   UNL     1      40.328 -14.786   2.226  1.00  0.00     0.176 A 
HETATM    3  N   UNL     1      40.240 -14.075   0.959  1.00  0.00    -0.277 N 
HETATM    4  C   UNL     1      41.017 -14.428  -0.097  1.00  0.00     0.177 A 
HETATM    5  S   UNL     1      40.755 -13.377  -1.457  1.00  0.00    -0.046 SA
HETATM    6  C   UNL     1      39.444 -12.573  -0.667  1.00  0.00     0.077 C 
HETATM    7  C   UNL     1      38.741 -11.596  -1.256  1.00  0.00     0.036 C 
HETATM    8  C   UNL     1      39.250 -13.156   0.698  1.00  0.00     0.267 C 
HETATM    9  O   UNL     1      38.309 -12.902   1.435  1.00  0.00    -0.266 OA
HETATM   10  N   UNL     1      41.834 -15.419  -0.147  1.00  0.00    -0.228 NA
HETATM   11  C   UNL     1      41.956 -16.208   0.975  1.00  0.00     0.047 A 
HETATM   12  C   UNL     1      42.906 -17.367   0.792  1.00  0.00     0.071 C 
ENDROOT
BRANCH   7  13
HETATM   13  C   UNL     1      37.592 -10.910  -0.665  1.00  0.00    -0.032 A 
HETATM   14  C   UNL     1      36.286 -11.310  -0.983  1.00  0.00     0.051 A 
HETATM   15  C   UNL     1      35.190 -10.644  -0.423  1.00  0.00     0.102 A 
HETATM   16  C   UNL     1      35.415  -9.553   0.433  1.00  0.00     0.102 A 
HETATM   17  C   UNL     1      36.716  -9.177   0.777  1.00  0.00     0.040 A 
HETATM   18  C   UNL     1      37.802  -9.854   0.226  1.00  0.00     0.014 A 
BRANCH  15  19
HETATM   19  O   UNL     1      33.875 -10.950  -0.676  1.00  0.00    -0.353 OA
HETATM   20  C   UNL     1      33.423 -10.774  -2.014  1.00  0.00     0.210 C 
ENDBRANCH  15  19
BRANCH  16  21
HETATM   21  O   UNL     1      34.316  -8.923   0.960  1.00  0.00    -0.339 OA
BRANCH  21  22
HETATM   22  C   UNL     1      34.073  -9.242   2.332  1.00  0.00     0.278 C 
BRANCH  22  23
HETATM   23  C   UNL     1      32.719  -9.929   2.464  1.00  0.00     0.239 C 
HETATM   24  N   UNL     1      32.764 -11.241   2.841  1.00  0.00    -0.368 N 
HETATM   25  H   UNL     1      33.630 -11.619   3.218  1.00  0.00     0.159 HD
HETATM   26  H   UNL     1      31.894 -11.725   3.011  1.00  0.00     0.159 HD
HETATM   27  O   UNL     1      31.654  -9.381   2.195  1.00  0.00    -0.271 OA
ENDBRANCH  22  23
ENDBRANCH  21  22
ENDBRANCH  16  21
ENDBRANCH   7  13
BRANCH   2  28
HETATM   28  C   UNL     1      40.709 -13.797   3.312  1.00  0.00     0.011 A 
HETATM   29  S   UNL     1      42.243 -13.022   3.264  1.00  0.00    -0.104 SA
HETATM   30  C   UNL     1      41.906 -12.117   4.670  1.00  0.00     0.050 A 
HETATM   31  C   UNL     1      40.652 -12.386   5.170  1.00  0.00     0.008 A 
HETATM   32  C   UNL     1      39.960 -13.356   4.389  1.00  0.00     0.017 A 
ENDBRANCH   2  28
BRANCH   1  33
HETATM   33  C   UNL     1      41.599 -16.709   3.359  1.00  0.00     0.256 C 
HETATM   34  N   UNL     1      42.883 -16.512   3.824  1.00  0.00    -0.323 N 
HETATM   35  H   UNL     1      43.464 -15.846   3.339  1.00  0.00     0.169 HD
HETATM   36  O   UNL     1      40.749 -17.449   3.839  1.00  0.00    -0.267 OA
BRANCH  34  37
HETATM   37  C   UNL     1      43.514 -17.182   4.907  1.00  0.00     0.041 A 
HETATM   38  C   UNL     1      43.790 -16.457   6.089  1.00  0.00    -0.035 A 
HETATM   39  C   UNL     1      43.444 -15.001   6.248  1.00  0.00     0.050 C 
HETATM   40  C   UNL     1      44.423 -17.107   7.166  1.00  0.00     0.009 A 
HETATM   41  C   UNL     1      44.782 -18.450   7.083  1.00  0.00     0.001 A 
HETATM   42  C   UNL     1      44.513 -19.160   5.921  1.00  0.00     0.002 A 
HETATM   43  C   UNL     1      43.885 -18.531   4.844  1.00  0.00     0.030 A 
ENDBRANCH  34  37
ENDBRANCH   1  33
TORSDOF 8
ENDMDL
MODEL 9
REMARK VINA RESULT:      -7.1      4.616      9.597
REMARK  8 active torsions:
REMARK  status: ('A' for Active; 'I' for Inactive)
REMARK    1  A    between atoms: C_3  and  N_4 
REMARK       I    between atoms: N_4  and  C_5 
REMARK    2  A    between atoms: C_5  and  C_6 
REMARK    3  A    between atoms: C_7  and  C_8 
REMARK    4  A    between atoms: C_17  and  C_18 
REMARK    5  A    between atoms: C_20  and  O_21 
REMARK    6  A    between atoms: C_23  and  O_24 
REMARK    7  A    between atoms: O_24  and  C_25 
REMARK    8  A    between atoms: C_25  and  C_26 
REMARK       I    between atoms: C_26  and  N_27 
ROOT
HETATM    1  C   UNL     1      40.129 -10.003   7.240  1.00  0.00     0.062 A 
HETATM    2  C   UNL     1      40.430 -10.514   5.854  1.00  0.00     0.176 A 
HETATM    3  N   UNL     1      39.502  -9.946   4.888  1.00  0.00    -0.277 N 
HETATM    4  C   UNL     1      38.475  -9.152   5.287  1.00  0.00     0.177 A 
HETATM    5  S   UNL     1      37.489  -8.665   3.941  1.00  0.00    -0.046 SA
HETATM    6  C   UNL     1      38.578  -9.374   2.802  1.00  0.00     0.077 C 
HETATM    7  C   UNL     1      38.377  -9.306   1.478  1.00  0.00     0.036 C 
HETATM    8  C   UNL     1      39.718 -10.014   3.531  1.00  0.00     0.267 C 
HETATM    9  O   UNL     1      40.721 -10.462   2.997  1.00  0.00    -0.266 OA
HETATM   10  N   UNL     1      38.237  -8.757   6.488  1.00  0.00    -0.228 NA
HETATM   11  C   UNL     1      39.088  -9.179   7.484  1.00  0.00     0.047 A 
HETATM   12  C   UNL     1      38.744  -8.622   8.843  1.00  0.00     0.071 C 
ENDROOT
BRANCH   7  13
HETATM   13  C   UNL     1      39.282  -9.839   0.460  1.00  0.00    -0.032 A 
HETATM   14  C   UNL     1      40.349  -9.065  -0.018  1.00  0.00     0.051 A 
HETATM   15  C   UNL     1      41.205  -9.576  -1.000  1.00  0.00     0.102 A 
HETATM   16  C   UNL     1      40.963 -10.857  -1.521  1.00  0.00     0.102 A 
HETATM   17  C   UNL     1      39.922 -11.642  -1.020  1.00  0.00     0.040 A 
HETATM   18  C   UNL     1      39.082 -11.132  -0.033  1.00  0.00     0.014 A 
BRANCH  15  19
HETATM   19  O   UNL     1      42.270  -8.897  -1.540  1.00  0.00    -0.353 OA
HETATM   20  C   UNL     1      43.387  -8.674  -0.687  1.00  0.00     0.210 C 
ENDBRANCH  15  19
BRANCH  16  21
HETATM   21  O   UNL     1      41.822 -11.323  -2.485  1.00  0.00    -0.339 OA
BRANCH  21  22
HETATM   22  C   UNL     1      41.176 -12.068  -3.519  1.00  0.00     0.278 C 
BRANCH  22  23
HETATM   23  C   UNL     1      41.649 -13.517  -3.475  1.00  0.00     0.239 C 
HETATM   24  N   UNL     1      42.947 -13.696  -3.094  1.00  0.00    -0.368 N 
HETATM   25  H   UNL     1      43.448 -12.925  -2.661  1.00  0.00     0.159 HD
HETATM   26  H   UNL     1      43.291 -14.640  -2.981  1.00  0.00     0.159 HD
HETATM   27  O   UNL     1      40.948 -14.466  -3.813  1.00  0.00    -0.271 OA
ENDBRANCH  22  23
ENDBRANCH  21  22
ENDBRANCH  16  21
ENDBRANCH   7  13
BRANCH   2  28
HETATM   28  C   UNL     1      40.385 -12.027   5.739  1.00  0.00     0.011 A 
HETATM   29  S   UNL     1      41.836 -12.908   5.469  1.00  0.00    -0.104 SA
HETATM   30  C   UNL     1      41.015 -14.403   5.508  1.00  0.00     0.050 A 
HETATM   31  C   UNL     1      39.666 -14.247   5.728  1.00  0.00     0.008 A 
HETATM   32  C   UNL     1      39.299 -12.876   5.860  1.00  0.00     0.017 A 
ENDBRANCH   2  28
BRANCH   1  33
HETATM   33  C   UNL     1      40.892 -10.596   8.379  1.00  0.00     0.256 C 
HETATM   34  N   UNL     1      42.220 -10.224   8.427  1.00  0.00    -0.323 N 
HETATM   35  H   UNL     1      42.547  -9.553   7.748  1.00  0.00     0.169 HD
HETATM   36  O   UNL     1      40.317 -11.367   9.138  1.00  0.00    -0.267 OA
BRANCH  34  37
HETATM   37  C   UNL     1      43.216 -10.715   9.313  1.00  0.00     0.041 A 
HETATM   38  C   UNL     1      43.283 -10.189  10.623  1.00  0.00    -0.035 A 
HETATM   39  C   UNL     1      42.343  -9.124  11.119  1.00  0.00     0.050 C 
HETATM   40  C   UNL     1      44.271 -10.661  11.508  1.00  0.00     0.009 A 
HETATM   41  C   UNL     1      45.183 -11.636  11.111  1.00  0.00     0.001 A 
HETATM   42  C   UNL     1      45.117 -12.152   9.824  1.00  0.00     0.002 A 
HETATM   43  C   UNL     1      44.143 -11.694   8.934  1.00  0.00     0.030 A 
ENDBRANCH  34  37
ENDBRANCH   1  33
TORSDOF 8
ENDMDL
MODEL 10
REMARK VINA RESULT:      -7.1      5.905      9.573
REMARK  8 active torsions:
REMARK  status: ('A' for Active; 'I' for Inactive)
REMARK    1  A    between atoms: C_3  and  N_4 
REMARK       I    between atoms: N_4  and  C_5 
REMARK    2  A    between atoms: C_5  and  C_6 
REMARK    3  A    between atoms: C_7  and  C_8 
REMARK    4  A    between atoms: C_17  and  C_18 
REMARK    5  A    between atoms: C_20  and  O_21 
REMARK    6  A    between atoms: C_23  and  O_24 
REMARK    7  A    between atoms: O_24  and  C_25 
REMARK    8  A    between atoms: C_25  and  C_26 
REMARK       I    between atoms: C_26  and  N_27 
ROOT
HETATM    1  C   UNL     1      42.640 -13.271   4.571  1.00  0.00     0.062 A 
HETATM    2  C   UNL     1      42.580 -13.207   3.066  1.00  0.00     0.176 A 
HETATM    3  N   UNL     1      41.693 -12.137   2.637  1.00  0.00    -0.277 N 
HETATM    4  C   UNL     1      40.981 -11.413   3.539  1.00  0.00     0.177 A 
HETATM    5  S   UNL     1      39.958 -10.248   2.753  1.00  0.00    -0.046 SA
HETATM    6  C   UNL     1      40.637 -10.600   1.202  1.00  0.00     0.077 C 
HETATM    7  C   UNL     1      40.258  -9.956   0.089  1.00  0.00     0.036 C 
HETATM    8  C   UNL     1      41.671 -11.673   1.341  1.00  0.00     0.267 C 
HETATM    9  O   UNL     1      42.429 -12.028   0.452  1.00  0.00    -0.266 OA
HETATM   10  N   UNL     1      41.042 -11.516   4.819  1.00  0.00    -0.228 NA
HETATM   11  C   UNL     1      41.899 -12.454   5.349  1.00  0.00     0.047 A 
HETATM   12  C   UNL     1      41.925 -12.459   6.857  1.00  0.00     0.071 C 
ENDROOT
BRANCH   7  13
HETATM   13  C   UNL     1      40.825 -10.170  -1.242  1.00  0.00    -0.032 A 
HETATM   14  C   UNL     1      40.367 -11.220  -2.050  1.00  0.00     0.051 A 
HETATM   15  C   UNL     1      40.921 -11.427  -3.318  1.00  0.00     0.102 A 
HETATM   16  C   UNL     1      41.961 -10.590  -3.756  1.00  0.00     0.102 A 
HETATM   17  C   UNL     1      42.394  -9.522  -2.966  1.00  0.00     0.040 A 
HETATM   18  C   UNL     1      41.827  -9.315  -1.710  1.00  0.00     0.014 A 
BRANCH  15  19
HETATM   19  O   UNL     1      40.551 -12.430  -4.180  1.00  0.00    -0.353 OA
HETATM   20  C   UNL     1      40.210 -13.682  -3.597  1.00  0.00     0.210 C 
ENDBRANCH  15  19
BRANCH  16  21
HETATM   21  O   UNL     1      42.482 -10.825  -5.004  1.00  0.00    -0.339 OA
BRANCH  21  22
HETATM   22  C   UNL     1      42.418  -9.695  -5.876  1.00  0.00     0.278 C 
BRANCH  22  23
HETATM   23  C   UNL     1      41.462  -9.992  -7.025  1.00  0.00     0.239 C 
HETATM   24  N   UNL     1      42.044 -10.105  -8.255  1.00  0.00    -0.368 N 
HETATM   25  H   UNL     1      43.053 -10.208  -8.318  1.00  0.00     0.159 HD
HETATM   26  H   UNL     1      41.466 -10.369  -9.040  1.00  0.00     0.159 HD
HETATM   27  O   UNL     1      40.244 -10.067  -6.889  1.00  0.00    -0.271 OA
ENDBRANCH  22  23
ENDBRANCH  21  22
ENDBRANCH  16  21
ENDBRANCH   7  13
BRANCH   2  28
HETATM   28  C   UNL     1      42.128 -14.502   2.418  1.00  0.00     0.011 A 
HETATM   29  S   UNL     1      40.515 -15.052   2.641  1.00  0.00    -0.104 SA
HETATM   30  C   UNL     1      40.770 -16.415   1.646  1.00  0.00     0.050 A 
HETATM   31  C   UNL     1      42.050 -16.456   1.144  1.00  0.00     0.008 A 
HETATM   32  C   UNL     1      42.837 -15.354   1.590  1.00  0.00     0.017 A 
ENDBRANCH   2  28
BRANCH   1  33
HETATM   33  C   UNL     1      43.391 -14.406   5.188  1.00  0.00     0.256 C 
HETATM   34  N   UNL     1      42.598 -15.464   5.583  1.00  0.00    -0.323 N 
HETATM   35  H   UNL     1      41.612 -15.418   5.374  1.00  0.00     0.169 HD
HETATM   36  O   UNL     1      44.604 -14.305   5.329  1.00  0.00    -0.267 OA
BRANCH  34  37
HETATM   37  C   UNL     1      43.006 -16.618   6.303  1.00  0.00     0.041 A 
HETATM   38  C   UNL     1      43.110 -17.849   5.615  1.00  0.00    -0.035 A 
HETATM   39  C   UNL     1      42.803 -17.987   4.148  1.00  0.00     0.050 C 
HETATM   40  C   UNL     1      43.505 -19.003   6.319  1.00  0.00     0.009 A 
HETATM   41  C   UNL     1      43.792 -18.950   7.680  1.00  0.00     0.001 A 
HETATM   42  C   UNL     1      43.688 -17.742   8.356  1.00  0.00     0.002 A 
HETATM   43  C   UNL     1      43.298 -16.588   7.672  1.00  0.00     0.030 A 
ENDBRANCH  34  37
ENDBRANCH   1  33
TORSDOF 8
ENDMDL
