MODEL 1
REMARK VINA RESULT:      -8.4      0.000      0.000
REMARK  3 active torsions:
REMARK  status: ('A' for Active; 'I' for Inactive)
REMARK    1  A    between atoms: C_2  and  O_3 
REMARK    2  A    between atoms: O_3  and  C_4 
REMARK    3  A    between atoms: C_7  and  N_8 
REMARK       I    between atoms: N_8  and  C_9 
REMARK       I    between atoms: C_9  and  N_10 
ROOT
HETATM    1  N   UNL     1      41.236 -15.027   1.475  1.00  0.00    -0.309 N 
HETATM    2  C   UNL     1      41.934 -16.033   0.848  1.00  0.00     0.323 C 
HETATM    3  N   UNL     1      43.023 -16.535   1.551  1.00  0.00    -0.328 N 
HETATM    4  C   UNL     1      43.672 -17.738   1.005  1.00  0.00     0.185 C 
HETATM    5  C   UNL     1      43.892 -18.689   2.135  1.00  0.00     0.035 A 
HETATM    6  C   UNL     1      43.791 -18.412   3.485  1.00  0.00    -0.020 A 
HETATM    7  C   UNL     1      43.412 -17.053   3.966  1.00  0.00     0.061 C 
HETATM    8  C   UNL     1      43.602 -16.035   2.821  1.00  0.00     0.132 C 
HETATM    9  N   UNL     1      44.227 -20.006   1.996  1.00  0.00    -0.357 N 
HETATM   10  H   UNL     1      44.356 -20.493   1.119  1.00  0.00     0.166 HD
HETATM   11  C   UNL     1      44.349 -20.592   3.238  1.00  0.00     0.043 A 
HETATM   12  C   UNL     1      44.075 -19.610   4.195  1.00  0.00    -0.001 A 
HETATM   13  C   UNL     1      44.669 -21.910   3.583  1.00  0.00     0.030 A 
HETATM   14  C   UNL     1      44.710 -22.234   4.943  1.00  0.00     0.002 A 
HETATM   15  C   UNL     1      44.439 -21.275   5.918  1.00  0.00     0.001 A 
HETATM   16  C   UNL     1      44.121 -19.961   5.558  1.00  0.00     0.014 A 
HETATM   17  O   UNL     1      41.636 -16.492  -0.254  1.00  0.00    -0.247 OA
HETATM   18  H   UNL     1      41.568 -14.726   2.371  1.00  0.00     0.170 HD
ENDROOT
BRANCH   1  19
HETATM   19  C   UNL     1      40.048 -14.394   1.045  1.00  0.00     0.036 A 
HETATM   20  C   UNL     1      38.765 -14.772   1.444  1.00  0.00     0.032 A 
HETATM   21  C   UNL     1      37.645 -14.056   1.005  1.00  0.00     0.039 A 
HETATM   22  C   UNL     1      37.805 -12.950   0.177  1.00  0.00     0.070 A 
HETATM   23  C   UNL     1      39.070 -12.593  -0.273  1.00  0.00     0.039 A 
HETATM   24  C   UNL     1      40.189 -13.304   0.173  1.00  0.00     0.032 A 
BRANCH  22  25
HETATM   25  O   UNL     1      36.686 -12.295  -0.236  1.00  0.00    -0.341 OA
BRANCH  25  26
HETATM   26  C   UNL     1      36.396 -11.017   0.374  1.00  0.00     0.057 C 
HETATM   27  C   UNL     1      36.720  -9.921  -0.649  1.00  0.00     0.045 C 
HETATM   28  C   UNL     1      37.091 -10.715   1.715  1.00  0.00     0.045 C 
HETATM   29  C   UNL     1      34.878 -11.030   0.617  1.00  0.00     0.045 C 
ENDBRANCH  25  26
ENDBRANCH  22  25
ENDBRANCH   1  19
TORSDOF 3
ENDMDL
MODEL 2
REMARK VINA RESULT:      -8.4      3.412      4.408
REMARK  3 active torsions:
REMARK  status: ('A' for Active; 'I' for Inactive)
REMARK    1  A    between atoms: C_2  and  O_3 
REMARK    2  A    between atoms: O_3  and  C_4 
REMARK    3  A    between atoms: C_7  and  N_8 
REMARK       I    between atoms: N_8  and  C_9 
REMARK       I    between atoms: C_9  and  N_10 
ROOT
HETATM    1  N   UNL     1      41.781 -13.792   0.619  1.00  0.00    -0.309 N 
HETATM    2  C   UNL     1      42.299 -14.114   1.853  1.00  0.00     0.323 C 
HETATM    3  N   UNL     1      41.928 -15.357   2.352  1.00  0.00    -0.328 N 
HETATM    4  C   UNL     1      42.614 -15.818   3.571  1.00  0.00     0.185 C 
HETATM    5  C   UNL     1      43.018 -17.239   3.357  1.00  0.00     0.035 A 
HETATM    6  C   UNL     1      42.591 -18.080   2.347  1.00  0.00    -0.020 A 
HETATM    7  C   UNL     1      41.639 -17.607   1.302  1.00  0.00     0.061 C 
HETATM    8  C   UNL     1      40.948 -16.315   1.788  1.00  0.00     0.132 C 
HETATM    9  N   UNL     1      43.895 -17.931   4.143  1.00  0.00    -0.357 N 
HETATM   10  H   UNL     1      44.379 -17.563   4.951  1.00  0.00     0.166 HD
HETATM   11  C   UNL     1      44.045 -19.214   3.661  1.00  0.00     0.043 A 
HETATM   12  C   UNL     1      43.236 -19.333   2.526  1.00  0.00    -0.001 A 
HETATM   13  C   UNL     1      44.836 -20.266   4.135  1.00  0.00     0.030 A 
HETATM   14  C   UNL     1      44.801 -21.474   3.431  1.00  0.00     0.002 A 
HETATM   15  C   UNL     1      44.006 -21.620   2.296  1.00  0.00     0.001 A 
HETATM   16  C   UNL     1      43.219 -20.559   1.833  1.00  0.00     0.014 A 
HETATM   17  O   UNL     1      43.051 -13.381   2.494  1.00  0.00    -0.247 OA
HETATM   18  H   UNL     1      41.175 -14.461   0.186  1.00  0.00     0.170 HD
ENDROOT
BRANCH   1  19
HETATM   19  C   UNL     1      42.051 -12.648  -0.165  1.00  0.00     0.036 A 
HETATM   20  C   UNL     1      41.999 -11.336   0.311  1.00  0.00     0.032 A 
HETATM   21  C   UNL     1      42.330 -10.264  -0.525  1.00  0.00     0.039 A 
HETATM   22  C   UNL     1      42.730 -10.499  -1.836  1.00  0.00     0.070 A 
HETATM   23  C   UNL     1      42.736 -11.793  -2.342  1.00  0.00     0.039 A 
HETATM   24  C   UNL     1      42.412 -12.865  -1.503  1.00  0.00     0.032 A 
BRANCH  22  25
HETATM   25  O   UNL     1      43.028  -9.424  -2.615  1.00  0.00    -0.341 OA
BRANCH  25  26
HETATM   26  C   UNL     1      42.011  -8.956  -3.529  1.00  0.00     0.057 C 
HETATM   27  C   UNL     1      42.067  -7.424  -3.556  1.00  0.00     0.045 C 
HETATM   28  C   UNL     1      40.570  -9.431  -3.262  1.00  0.00     0.045 C 
HETATM   29  C   UNL     1      42.440  -9.490  -4.905  1.00  0.00     0.045 C 
ENDBRANCH  25  26
ENDBRANCH  22  25
ENDBRANCH   1  19
TORSDOF 3
ENDMDL
MODEL 3
REMARK VINA RESULT:      -8.3      3.332      9.731
REMARK  3 active torsions:
REMARK  status: ('A' for Active; 'I' for Inactive)
REMARK    1  A    between atoms: C_2  and  O_3 
REMARK    2  A    between atoms: O_3  and  C_4 
REMARK    3  A    between atoms: C_7  and  N_8 
REMARK       I    between atoms: N_8  and  C_9 
REMARK       I    between atoms: C_9  and  N_10 
ROOT
HETATM    1  N   UNL     1      41.915 -16.207  -0.164  1.00  0.00    -0.309 N 
HETATM    2  C   UNL     1      41.648 -14.876  -0.387  1.00  0.00     0.323 C 
HETATM    3  N   UNL     1      41.173 -14.564  -1.656  1.00  0.00    -0.328 N 
HETATM    4  C   UNL     1      40.692 -13.189  -1.868  1.00  0.00     0.185 C 
HETATM    5  C   UNL     1      39.388 -13.270  -2.590  1.00  0.00     0.035 A 
HETATM    6  C   UNL     1      38.851 -14.380  -3.214  1.00  0.00    -0.020 A 
HETATM    7  C   UNL     1      39.566 -15.688  -3.207  1.00  0.00     0.061 C 
HETATM    8  C   UNL     1      41.046 -15.458  -2.831  1.00  0.00     0.132 C 
HETATM    9  N   UNL     1      38.509 -12.234  -2.739  1.00  0.00    -0.357 N 
HETATM   10  H   UNL     1      38.632 -11.299  -2.372  1.00  0.00     0.166 HD
HETATM   11  C   UNL     1      37.407 -12.653  -3.453  1.00  0.00     0.043 A 
HETATM   12  C   UNL     1      37.596 -14.004  -3.762  1.00  0.00    -0.001 A 
HETATM   13  C   UNL     1      36.263 -11.946  -3.838  1.00  0.00     0.030 A 
HETATM   14  C   UNL     1      35.283 -12.637  -4.557  1.00  0.00     0.002 A 
HETATM   15  C   UNL     1      35.443 -13.984  -4.877  1.00  0.00     0.001 A 
HETATM   16  C   UNL     1      36.594 -14.678  -4.487  1.00  0.00     0.014 A 
HETATM   17  O   UNL     1      41.796 -13.995   0.459  1.00  0.00    -0.247 OA
HETATM   18  H   UNL     1      41.763 -16.840  -0.925  1.00  0.00     0.170 HD
ENDROOT
BRANCH   1  19
HETATM   19  C   UNL     1      42.320 -16.822   1.042  1.00  0.00     0.036 A 
HETATM   20  C   UNL     1      43.622 -17.247   1.311  1.00  0.00     0.032 A 
HETATM   21  C   UNL     1      43.944 -17.803   2.554  1.00  0.00     0.039 A 
HETATM   22  C   UNL     1      42.970 -17.923   3.539  1.00  0.00     0.070 A 
HETATM   23  C   UNL     1      41.657 -17.554   3.270  1.00  0.00     0.039 A 
HETATM   24  C   UNL     1      41.338 -16.992   2.030  1.00  0.00     0.032 A 
BRANCH  22  25
HETATM   25  O   UNL     1      43.328 -18.483   4.727  1.00  0.00    -0.341 OA
BRANCH  25  26
HETATM   26  C   UNL     1      43.657 -17.591   5.815  1.00  0.00     0.057 C 
HETATM   27  C   UNL     1      42.693 -17.880   6.972  1.00  0.00     0.045 C 
HETATM   28  C   UNL     1      43.669 -16.084   5.496  1.00  0.00     0.045 C 
HETATM   29  C   UNL     1      45.077 -17.997   6.243  1.00  0.00     0.045 C 
ENDBRANCH  25  26
ENDBRANCH  22  25
ENDBRANCH   1  19
TORSDOF 3
ENDMDL
MODEL 4
REMARK VINA RESULT:      -8.0      7.466     10.348
REMARK  3 active torsions:
REMARK  status: ('A' for Active; 'I' for Inactive)
REMARK    1  A    between atoms: C_2  and  O_3 
REMARK    2  A    between atoms: O_3  and  C_4 
REMARK    3  A    between atoms: C_7  and  N_8 
REMARK       I    between atoms: N_8  and  C_9 
REMARK       I    between atoms: C_9  and  N_10 
ROOT
HETATM    1  N   UNL     1      42.853 -13.534   6.531  1.00  0.00    -0.309 N 
HETATM    2  C   UNL     1      43.792 -13.236   7.492  1.00  0.00     0.323 C 
HETATM    3  N   UNL     1      43.619 -12.020   8.143  1.00  0.00    -0.328 N 
HETATM    4  C   UNL     1      44.483 -11.758   9.306  1.00  0.00     0.185 C 
HETATM    5  C   UNL     1      43.621 -11.224  10.402  1.00  0.00     0.035 A 
HETATM    6  C   UNL     1      42.319 -10.774  10.290  1.00  0.00    -0.020 A 
HETATM    7  C   UNL     1      41.606 -10.797   8.981  1.00  0.00     0.061 C 
HETATM    8  C   UNL     1      42.637 -10.952   7.841  1.00  0.00     0.132 C 
HETATM    9  N   UNL     1      44.000 -11.107  11.709  1.00  0.00    -0.357 N 
HETATM   10  H   UNL     1      44.898 -11.374  12.089  1.00  0.00     0.166 HD
HETATM   11  C   UNL     1      42.962 -10.583  12.452  1.00  0.00     0.043 A 
HETATM   12  C   UNL     1      41.890 -10.367  11.582  1.00  0.00    -0.001 A 
HETATM   13  C   UNL     1      42.892 -10.295  13.819  1.00  0.00     0.030 A 
HETATM   14  C   UNL     1      41.692  -9.774  14.313  1.00  0.00     0.002 A 
HETATM   15  C   UNL     1      40.605  -9.550  13.469  1.00  0.00     0.001 A 
HETATM   16  C   UNL     1      40.691  -9.842  12.102  1.00  0.00     0.014 A 
HETATM   17  O   UNL     1      44.727 -13.978   7.790  1.00  0.00    -0.247 OA
HETATM   18  H   UNL     1      42.134 -12.856   6.365  1.00  0.00     0.170 HD
ENDROOT
BRANCH   1  19
HETATM   19  C   UNL     1      42.726 -14.723   5.779  1.00  0.00     0.036 A 
HETATM   20  C   UNL     1      42.329 -15.952   6.308  1.00  0.00     0.032 A 
HETATM   21  C   UNL     1      42.182 -17.069   5.478  1.00  0.00     0.039 A 
HETATM   22  C   UNL     1      42.417 -16.958   4.112  1.00  0.00     0.070 A 
HETATM   23  C   UNL     1      42.865 -15.757   3.576  1.00  0.00     0.039 A 
HETATM   24  C   UNL     1      43.003 -14.639   4.406  1.00  0.00     0.032 A 
BRANCH  22  25
HETATM   25  O   UNL     1      42.276 -18.075   3.347  1.00  0.00    -0.341 OA
BRANCH  25  26
HETATM   26  C   UNL     1      43.469 -18.637   2.757  1.00  0.00     0.057 C 
HETATM   27  C   UNL     1      44.412 -19.047   3.894  1.00  0.00     0.045 C 
HETATM   28  C   UNL     1      44.217 -17.758   1.736  1.00  0.00     0.045 C 
HETATM   29  C   UNL     1      42.991 -19.906   2.031  1.00  0.00     0.045 C 
ENDBRANCH  25  26
ENDBRANCH  22  25
ENDBRANCH   1  19
TORSDOF 3
ENDMDL
MODEL 5
REMARK VINA RESULT:      -7.9      7.471      9.844
REMARK  3 active torsions:
REMARK  status: ('A' for Active; 'I' for Inactive)
REMARK    1  A    between atoms: C_2  and  O_3 
REMARK    2  A    between atoms: O_3  and  C_4 
REMARK    3  A    between atoms: C_7  and  N_8 
REMARK       I    between atoms: N_8  and  C_9 
REMARK       I    between atoms: C_9  and  N_10 
ROOT
HETATM    1  N   UNL     1      40.364 -12.946   6.297  1.00  0.00    -0.309 N 
HETATM    2  C   UNL     1      41.295 -11.976   6.588  1.00  0.00     0.323 C 
HETATM    3  N   UNL     1      40.945 -11.096   7.606  1.00  0.00    -0.328 N 
HETATM    4  C   UNL     1      41.991 -10.173   8.078  1.00  0.00     0.185 C 
HETATM    5  C   UNL     1      41.972 -10.189   9.570  1.00  0.00     0.035 A 
HETATM    6  C   UNL     1      40.991 -10.723  10.383  1.00  0.00    -0.020 A 
HETATM    7  C   UNL     1      39.790 -11.390   9.803  1.00  0.00     0.061 C 
HETATM    8  C   UNL     1      39.650 -10.989   8.319  1.00  0.00     0.132 C 
HETATM    9  N   UNL     1      42.951  -9.672  10.371  1.00  0.00    -0.357 N 
HETATM   10  H   UNL     1      43.802  -9.228  10.051  1.00  0.00     0.166 HD
HETATM   11  C   UNL     1      42.619  -9.859  11.697  1.00  0.00     0.043 A 
HETATM   12  C   UNL     1      41.389 -10.523  11.732  1.00  0.00    -0.001 A 
HETATM   13  C   UNL     1      43.315  -9.501  12.857  1.00  0.00     0.030 A 
HETATM   14  C   UNL     1      42.739  -9.832  14.088  1.00  0.00     0.002 A 
HETATM   15  C   UNL     1      41.515 -10.495  14.153  1.00  0.00     0.001 A 
HETATM   16  C   UNL     1      40.831 -10.846  12.984  1.00  0.00     0.014 A 
HETATM   17  O   UNL     1      42.379 -11.872   6.017  1.00  0.00    -0.247 OA
HETATM   18  H   UNL     1      39.511 -12.937   6.822  1.00  0.00     0.170 HD
ENDROOT
BRANCH   1  19
HETATM   19  C   UNL     1      40.481 -14.017   5.383  1.00  0.00     0.036 A 
HETATM   20  C   UNL     1      40.047 -13.972   4.057  1.00  0.00     0.032 A 
HETATM   21  C   UNL     1      40.248 -15.065   3.207  1.00  0.00     0.039 A 
HETATM   22  C   UNL     1      40.899 -16.202   3.674  1.00  0.00     0.070 A 
HETATM   23  C   UNL     1      41.290 -16.285   5.005  1.00  0.00     0.039 A 
HETATM   24  C   UNL     1      41.094 -15.189   5.851  1.00  0.00     0.032 A 
BRANCH  22  25
HETATM   25  O   UNL     1      41.059 -17.245   2.814  1.00  0.00    -0.341 OA
BRANCH  25  26
HETATM   26  C   UNL     1      42.263 -17.275   2.015  1.00  0.00     0.057 C 
HETATM   27  C   UNL     1      42.771 -18.721   1.981  1.00  0.00     0.045 C 
HETATM   28  C   UNL     1      43.398 -16.323   2.437  1.00  0.00     0.045 C 
HETATM   29  C   UNL     1      41.809 -16.878   0.601  1.00  0.00     0.045 C 
ENDBRANCH  25  26
ENDBRANCH  22  25
ENDBRANCH   1  19
TORSDOF 3
ENDMDL
MODEL 6
REMARK VINA RESULT:      -7.9      3.681      4.928
REMARK  3 active torsions:
REMARK  status: ('A' for Active; 'I' for Inactive)
REMARK    1  A    between atoms: C_2  and  O_3 
REMARK    2  A    between atoms: O_3  and  C_4 
REMARK    3  A    between atoms: C_7  and  N_8 
REMARK       I    between atoms: N_8  and  C_9 
REMARK       I    between atoms: C_9  and  N_10 
ROOT
HETATM    1  N   UNL     1      41.936 -14.466  -0.953  1.00  0.00    -0.309 N 
HETATM    2  C   UNL     1      40.972 -14.646   0.012  1.00  0.00     0.323 C 
HETATM    3  N   UNL     1      41.085 -15.811   0.763  1.00  0.00    -0.328 N 
HETATM    4  C   UNL     1      40.194 -15.942   1.928  1.00  0.00     0.185 C 
HETATM    5  C   UNL     1      41.017 -16.417   3.079  1.00  0.00     0.035 A 
HETATM    6  C   UNL     1      42.301 -16.927   3.028  1.00  0.00    -0.020 A 
HETATM    7  C   UNL     1      43.033 -17.039   1.734  1.00  0.00     0.061 C 
HETATM    8  C   UNL     1      42.027 -16.938   0.567  1.00  0.00     0.132 C 
HETATM    9  N   UNL     1      40.615 -16.412   4.384  1.00  0.00    -0.357 N 
HETATM   10  H   UNL     1      39.722 -16.079   4.725  1.00  0.00     0.166 HD
HETATM   11  C   UNL     1      41.618 -16.913   5.186  1.00  0.00     0.043 A 
HETATM   12  C   UNL     1      42.694 -17.242   4.356  1.00  0.00    -0.001 A 
HETATM   13  C   UNL     1      41.657 -17.090   6.574  1.00  0.00     0.030 A 
HETATM   14  C   UNL     1      42.827 -17.616   7.129  1.00  0.00     0.002 A 
HETATM   15  C   UNL     1      43.916 -17.951   6.326  1.00  0.00     0.001 A 
HETATM   16  C   UNL     1      43.862 -17.770   4.939  1.00  0.00     0.014 A 
HETATM   17  O   UNL     1      40.063 -13.846   0.232  1.00  0.00    -0.247 OA
HETATM   18  H   UNL     1      42.629 -15.183  -1.050  1.00  0.00     0.170 HD
ENDROOT
BRANCH   1  19
HETATM   19  C   UNL     1      42.123 -13.349  -1.797  1.00  0.00     0.036 A 
HETATM   20  C   UNL     1      41.728 -13.298  -3.135  1.00  0.00     0.032 A 
HETATM   21  C   UNL     1      41.908 -12.130  -3.884  1.00  0.00     0.039 A 
HETATM   22  C   UNL     1      42.471 -11.003  -3.295  1.00  0.00     0.070 A 
HETATM   23  C   UNL     1      42.919 -11.053  -1.980  1.00  0.00     0.039 A 
HETATM   24  C   UNL     1      42.730 -12.218  -1.230  1.00  0.00     0.032 A 
BRANCH  22  25
HETATM   25  O   UNL     1      42.640  -9.895  -4.067  1.00  0.00    -0.341 OA
BRANCH  25  26
HETATM   26  C   UNL     1      41.644  -8.852  -3.969  1.00  0.00     0.057 C 
HETATM   27  C   UNL     1      42.293  -7.642  -3.286  1.00  0.00     0.045 C 
HETATM   28  C   UNL     1      40.325  -9.218  -3.262  1.00  0.00     0.045 C 
HETATM   29  C   UNL     1      41.317  -8.480  -5.424  1.00  0.00     0.045 C 
ENDBRANCH  25  26
ENDBRANCH  22  25
ENDBRANCH   1  19
TORSDOF 3
ENDMDL
MODEL 7
REMARK VINA RESULT:      -7.8      3.314      9.588
REMARK  3 active torsions:
REMARK  status: ('A' for Active; 'I' for Inactive)
REMARK    1  A    between atoms: C_2  and  O_3 
REMARK    2  A    between atoms: O_3  and  C_4 
REMARK    3  A    between atoms: C_7  and  N_8 
REMARK       I    between atoms: N_8  and  C_9 
REMARK       I    between atoms: C_9  and  N_10 
ROOT
HETATM    1  N   UNL     1      41.033 -15.239   1.809  1.00  0.00    -0.309 N 
HETATM    2  C   UNL     1      41.247 -15.528   0.481  1.00  0.00     0.323 C 
HETATM    3  N   UNL     1      40.636 -14.669  -0.425  1.00  0.00    -0.328 N 
HETATM    4  C   UNL     1      40.999 -14.827  -1.843  1.00  0.00     0.185 C 
HETATM    5  C   UNL     1      41.264 -13.467  -2.399  1.00  0.00     0.035 A 
HETATM    6  C   UNL     1      40.953 -12.255  -1.813  1.00  0.00    -0.020 A 
HETATM    7  C   UNL     1      40.297 -12.193  -0.476  1.00  0.00     0.061 C 
HETATM    8  C   UNL     1      39.682 -13.570  -0.144  1.00  0.00     0.132 C 
HETATM    9  N   UNL     1      41.873 -13.216  -3.596  1.00  0.00    -0.357 N 
HETATM   10  H   UNL     1      42.223 -13.914  -4.238  1.00  0.00     0.166 HD
HETATM   11  C   UNL     1      41.962 -11.854  -3.799  1.00  0.00     0.043 A 
HETATM   12  C   UNL     1      41.392 -11.226  -2.688  1.00  0.00    -0.001 A 
HETATM   13  C   UNL     1      42.507 -11.139  -4.871  1.00  0.00     0.030 A 
HETATM   14  C   UNL     1      42.471  -9.743  -4.806  1.00  0.00     0.002 A 
HETATM   15  C   UNL     1      41.911  -9.090  -3.710  1.00  0.00     0.001 A 
HETATM   16  C   UNL     1      41.368  -9.818  -2.645  1.00  0.00     0.014 A 
HETATM   17  O   UNL     1      41.936 -16.467   0.085  1.00  0.00    -0.247 OA
HETATM   18  H   UNL     1      40.451 -14.452   2.021  1.00  0.00     0.170 HD
ENDROOT
BRANCH   1  19
HETATM   19  C   UNL     1      41.593 -15.878   2.939  1.00  0.00     0.036 A 
HETATM   20  C   UNL     1      42.741 -15.443   3.602  1.00  0.00     0.032 A 
HETATM   21  C   UNL     1      43.197 -16.110   4.744  1.00  0.00     0.039 A 
HETATM   22  C   UNL     1      42.498 -17.206   5.238  1.00  0.00     0.070 A 
HETATM   23  C   UNL     1      41.383 -17.685   4.560  1.00  0.00     0.039 A 
HETATM   24  C   UNL     1      40.925 -17.013   3.423  1.00  0.00     0.032 A 
BRANCH  22  25
HETATM   25  O   UNL     1      42.988 -17.831   6.343  1.00  0.00    -0.341 OA
BRANCH  25  26
HETATM   26  C   UNL     1      44.056 -18.786   6.154  1.00  0.00     0.057 C 
HETATM   27  C   UNL     1      45.370 -18.114   6.571  1.00  0.00     0.045 C 
HETATM   28  C   UNL     1      44.196 -19.399   4.747  1.00  0.00     0.045 C 
HETATM   29  C   UNL     1      43.749 -19.924   7.140  1.00  0.00     0.045 C 
ENDBRANCH  25  26
ENDBRANCH  22  25
ENDBRANCH   1  19
TORSDOF 3
ENDMDL
MODEL 8
REMARK VINA RESULT:      -7.5      3.148      4.470
REMARK  3 active torsions:
REMARK  status: ('A' for Active; 'I' for Inactive)
REMARK    1  A    between atoms: C_2  and  O_3 
REMARK    2  A    between atoms: O_3  and  C_4 
REMARK    3  A    between atoms: C_7  and  N_8 
REMARK       I    between atoms: N_8  and  C_9 
REMARK       I    between atoms: C_9  and  N_10 
ROOT
HETATM    1  N   UNL     1      40.277 -14.910  -0.082  1.00  0.00    -0.309 N 
HETATM    2  C   UNL     1      40.304 -14.523   1.238  1.00  0.00     0.323 C 
HETATM    3  N   UNL     1      40.400 -15.556   2.163  1.00  0.00    -0.328 N 
HETATM    4  C   UNL     1      40.629 -15.174   3.567  1.00  0.00     0.185 C 
HETATM    5  C   UNL     1      41.708 -16.053   4.107  1.00  0.00     0.035 A 
HETATM    6  C   UNL     1      42.209 -17.204   3.528  1.00  0.00    -0.020 A 
HETATM    7  C   UNL     1      41.695 -17.693   2.217  1.00  0.00     0.061 C 
HETATM    8  C   UNL     1      40.341 -17.015   1.915  1.00  0.00     0.132 C 
HETATM    9  N   UNL     1      42.379 -15.841   5.278  1.00  0.00    -0.357 N 
HETATM   10  H   UNL     1      42.233 -15.064   5.909  1.00  0.00     0.166 HD
HETATM   11  C   UNL     1      43.310 -16.839   5.472  1.00  0.00     0.043 A 
HETATM   12  C   UNL     1      43.226 -17.710   4.381  1.00  0.00    -0.001 A 
HETATM   13  C   UNL     1      44.219 -17.030   6.519  1.00  0.00     0.030 A 
HETATM   14  C   UNL     1      45.067 -18.139   6.449  1.00  0.00     0.002 A 
HETATM   15  C   UNL     1      45.007 -19.023   5.373  1.00  0.00     0.001 A 
HETATM   16  C   UNL     1      44.092 -18.820   4.333  1.00  0.00     0.014 A 
HETATM   17  O   UNL     1      40.262 -13.351   1.611  1.00  0.00    -0.247 OA
HETATM   18  H   UNL     1      40.313 -15.892  -0.274  1.00  0.00     0.170 HD
ENDROOT
BRANCH   1  19
HETATM   19  C   UNL     1      40.272 -14.085  -1.230  1.00  0.00     0.036 A 
HETATM   20  C   UNL     1      39.180 -13.323  -1.648  1.00  0.00     0.032 A 
HETATM   21  C   UNL     1      39.281 -12.496  -2.772  1.00  0.00     0.039 A 
HETATM   22  C   UNL     1      40.479 -12.414  -3.473  1.00  0.00     0.070 A 
HETATM   23  C   UNL     1      41.559 -13.206  -3.103  1.00  0.00     0.039 A 
HETATM   24  C   UNL     1      41.460 -14.027  -1.975  1.00  0.00     0.032 A 
BRANCH  22  25
HETATM   25  O   UNL     1      40.525 -11.606  -4.568  1.00  0.00    -0.341 OA
BRANCH  25  26
HETATM   26  C   UNL     1      41.047 -10.270  -4.393  1.00  0.00     0.057 C 
HETATM   27  C   UNL     1      41.260 -10.038  -2.892  1.00  0.00     0.045 C 
HETATM   28  C   UNL     1      40.221  -9.119  -4.997  1.00  0.00     0.045 C 
HETATM   29  C   UNL     1      42.418 -10.288  -5.088  1.00  0.00     0.045 C 
ENDBRANCH  25  26
ENDBRANCH  22  25
ENDBRANCH   1  19
TORSDOF 3
ENDMDL
MODEL 9
REMARK VINA RESULT:      -7.0      6.651     10.735
REMARK  3 active torsions:
REMARK  status: ('A' for Active; 'I' for Inactive)
REMARK    1  A    between atoms: C_2  and  O_3 
REMARK    2  A    between atoms: O_3  and  C_4 
REMARK    3  A    between atoms: C_7  and  N_8 
REMARK       I    between atoms: N_8  and  C_9 
REMARK       I    between atoms: C_9  and  N_10 
ROOT
HETATM    1  N   UNL     1      41.060 -14.083   5.947  1.00  0.00    -0.309 N 
HETATM    2  C   UNL     1      41.665 -12.851   6.037  1.00  0.00     0.323 C 
HETATM    3  N   UNL     1      40.886 -11.840   6.588  1.00  0.00    -0.328 N 
HETATM    4  C   UNL     1      41.560 -10.564   6.882  1.00  0.00     0.185 C 
HETATM    5  C   UNL     1      41.147 -10.135   8.250  1.00  0.00     0.035 A 
HETATM    6  C   UNL     1      40.111 -10.652   9.005  1.00  0.00    -0.020 A 
HETATM    7  C   UNL     1      39.268 -11.770   8.493  1.00  0.00     0.061 C 
HETATM    8  C   UNL     1      39.454 -11.890   6.964  1.00  0.00     0.132 C 
HETATM    9  N   UNL     1      41.751  -9.149   8.978  1.00  0.00    -0.357 N 
HETATM   10  H   UNL     1      42.549  -8.603   8.682  1.00  0.00     0.166 HD
HETATM   11  C   UNL     1      41.121  -9.014  10.197  1.00  0.00     0.043 A 
HETATM   12  C   UNL     1      40.085  -9.952  10.241  1.00  0.00    -0.001 A 
HETATM   13  C   UNL     1      41.394  -8.144  11.258  1.00  0.00     0.030 A 
HETATM   14  C   UNL     1      40.588  -8.236  12.398  1.00  0.00     0.002 A 
HETATM   15  C   UNL     1      39.551  -9.163  12.470  1.00  0.00     0.001 A 
HETATM   16  C   UNL     1      39.288 -10.027  11.400  1.00  0.00     0.014 A 
HETATM   17  O   UNL     1      42.819 -12.625   5.676  1.00  0.00    -0.247 OA
HETATM   18  H   UNL     1      40.113 -14.156   6.267  1.00  0.00     0.170 HD
ENDROOT
BRANCH   1  19
HETATM   19  C   UNL     1      41.630 -15.302   5.515  1.00  0.00     0.036 A 
HETATM   20  C   UNL     1      42.557 -15.415   4.478  1.00  0.00     0.032 A 
HETATM   21  C   UNL     1      43.107 -16.658   4.149  1.00  0.00     0.039 A 
HETATM   22  C   UNL     1      42.745 -17.793   4.867  1.00  0.00     0.070 A 
HETATM   23  C   UNL     1      41.784 -17.709   5.867  1.00  0.00     0.039 A 
HETATM   24  C   UNL     1      41.240 -16.464   6.199  1.00  0.00     0.032 A 
BRANCH  22  25
HETATM   25  O   UNL     1      43.296 -18.983   4.502  1.00  0.00    -0.341 OA
BRANCH  25  26
HETATM   26  C   UNL     1      44.275 -19.568   5.389  1.00  0.00     0.057 C 
HETATM   27  C   UNL     1      45.152 -20.519   4.565  1.00  0.00     0.045 C 
HETATM   28  C   UNL     1      43.735 -20.291   6.637  1.00  0.00     0.045 C 
HETATM   29  C   UNL     1      45.138 -18.386   5.860  1.00  0.00     0.045 C 
ENDBRANCH  25  26
ENDBRANCH  22  25
ENDBRANCH   1  19
TORSDOF 3
ENDMDL
MODEL 10
REMARK VINA RESULT:      -7.0      3.164      9.788
REMARK  3 active torsions:
REMARK  status: ('A' for Active; 'I' for Inactive)
REMARK    1  A    between atoms: C_2  and  O_3 
REMARK    2  A    between atoms: O_3  and  C_4 
REMARK    3  A    between atoms: C_7  and  N_8 
REMARK       I    between atoms: N_8  and  C_9 
REMARK       I    between atoms: C_9  and  N_10 
ROOT
HETATM    1  N   UNL     1      41.595 -14.672   2.311  1.00  0.00    -0.309 N 
HETATM    2  C   UNL     1      40.492 -14.361   1.550  1.00  0.00     0.323 C 
HETATM    3  N   UNL     1      40.506 -13.102   0.962  1.00  0.00    -0.328 N 
HETATM    4  C   UNL     1      39.443 -12.810  -0.014  1.00  0.00     0.185 C 
HETATM    5  C   UNL     1      40.080 -12.173  -1.204  1.00  0.00     0.035 A 
HETATM    6  C   UNL     1      41.364 -11.671  -1.290  1.00  0.00    -0.020 A 
HETATM    7  C   UNL     1      42.296 -11.740  -0.128  1.00  0.00     0.061 C 
HETATM    8  C   UNL     1      41.488 -12.010   1.159  1.00  0.00     0.132 C 
HETATM    9  N   UNL     1      39.473 -11.995  -2.416  1.00  0.00    -0.357 N 
HETATM   10  H   UNL     1      38.532 -12.280  -2.652  1.00  0.00     0.166 HD
HETATM   11  C   UNL     1      40.345 -11.381  -3.290  1.00  0.00     0.043 A 
HETATM   12  C   UNL     1      41.546 -11.168  -2.606  1.00  0.00    -0.001 A 
HETATM   13  C   UNL     1      40.164 -11.009  -4.627  1.00  0.00     0.030 A 
HETATM   14  C   UNL     1      41.240 -10.404  -5.284  1.00  0.00     0.002 A 
HETATM   15  C   UNL     1      42.449 -10.182  -4.628  1.00  0.00     0.001 A 
HETATM   16  C   UNL     1      42.615 -10.559  -3.290  1.00  0.00     0.014 A 
HETATM   17  O   UNL     1      39.546 -15.126   1.369  1.00  0.00    -0.247 OA
HETATM   18  H   UNL     1      42.308 -13.973   2.396  1.00  0.00     0.170 HD
ENDROOT
BRANCH   1  19
HETATM   19  C   UNL     1      41.894 -15.897   2.949  1.00  0.00     0.036 A 
HETATM   20  C   UNL     1      42.623 -16.934   2.364  1.00  0.00     0.032 A 
HETATM   21  C   UNL     1      42.914 -18.094   3.088  1.00  0.00     0.039 A 
HETATM   22  C   UNL     1      42.491 -18.219   4.407  1.00  0.00     0.070 A 
HETATM   23  C   UNL     1      41.718 -17.221   4.988  1.00  0.00     0.039 A 
HETATM   24  C   UNL     1      41.435 -16.057   4.265  1.00  0.00     0.032 A 
BRANCH  22  25
HETATM   25  O   UNL     1      42.785 -19.372   5.066  1.00  0.00    -0.341 OA
BRANCH  25  26
HETATM   26  C   UNL     1      44.030 -19.426   5.799  1.00  0.00     0.057 C 
HETATM   27  C   UNL     1      43.775 -20.183   7.108  1.00  0.00     0.045 C 
HETATM   28  C   UNL     1      44.720 -18.080   6.089  1.00  0.00     0.045 C 
HETATM   29  C   UNL     1      44.971 -20.264   4.919  1.00  0.00     0.045 C 
ENDBRANCH  25  26
ENDBRANCH  22  25
ENDBRANCH   1  19
TORSDOF 3
ENDMDL
