MODEL 1
REMARK VINA RESULT:      -9.5      0.000      0.000
REMARK  6 active torsions:
REMARK  status: ('A' for Active; 'I' for Inactive)
REMARK    1  A    between atoms: O_2  and  C_3 
REMARK    2  A    between atoms: C_5  and  C_6 
REMARK    3  A    between atoms: C_12  and  C_13 
REMARK       I    between atoms: C_13  and  N_14 
REMARK    4  A    between atoms: N_14  and  C_15 
REMARK    5  A    between atoms: C_17  and  O_18 
REMARK    6  A    between atoms: C_23  and  C_24 
ROOT
HETATM    1  C   UNL     1      43.899 -18.353   4.987  1.00  0.00     0.118 C 
HETATM    2  N   UNL     1      42.953 -17.928   3.944  1.00  0.00    -0.365 N 
HETATM    3  C   UNL     1      42.135 -16.856   4.162  1.00  0.00     0.138 A 
HETATM    4  N   UNL     1      42.062 -16.270   5.406  1.00  0.00    -0.240 N 
HETATM    5  N   UNL     1      41.187 -15.260   5.491  1.00  0.00    -0.181 NA
HETATM    6  C   UNL     1      40.739 -15.144   4.241  1.00  0.00     0.160 A 
HETATM    7  C   UNL     1      41.277 -16.120   3.362  1.00  0.00     0.096 A 
HETATM    8  C   UNL     1      42.857 -16.660   6.553  1.00  0.00     0.221 C 
HETATM    9  C   UNL     1      43.306 -18.113   6.386  1.00  0.00     0.066 C 
HETATM   10  H   UNL     1      43.343 -18.066   3.010  1.00  0.00     0.161 HD
ENDROOT
BRANCH   7  11
HETATM   11  C   UNL     1      40.949 -16.233   1.949  1.00  0.00     0.261 C 
HETATM   12  N   UNL     1      40.998 -15.041   1.254  1.00  0.00    -0.323 N 
HETATM   13  H   UNL     1      41.374 -14.251   1.766  1.00  0.00     0.169 HD
HETATM   14  O   UNL     1      40.689 -17.331   1.469  1.00  0.00    -0.267 OA
BRANCH  12  15
HETATM   15  C   UNL     1      40.660 -14.826  -0.100  1.00  0.00     0.037 A 
HETATM   16  C   UNL     1      41.482 -15.184  -1.174  1.00  0.00     0.066 A 
HETATM   17  C   UNL     1      41.065 -14.942  -2.482  1.00  0.00     0.067 A 
HETATM   18  C   UNL     1      39.837 -14.352  -2.745  1.00  0.00     0.036 A 
HETATM   19  C   UNL     1      39.010 -13.996  -1.683  1.00  0.00     0.005 A 
HETATM   20  C   UNL     1      39.420 -14.231  -0.366  1.00  0.00     0.029 A 
BRANCH  17  21
HETATM   21  O   UNL     1      41.850 -15.277  -3.548  1.00  0.00    -0.361 OA
HETATM   22  H   UNL     1      41.727 -14.606  -4.242  1.00  0.00     0.217 HD
ENDBRANCH  17  21
ENDBRANCH  12  15
ENDBRANCH   7  11
BRANCH   1  23
HETATM   23  C   UNL     1      44.255 -19.818   4.818  1.00  0.00    -0.033 A 
HETATM   24  C   UNL     1      44.441 -20.387   3.546  1.00  0.00     0.046 A 
HETATM   25  C   UNL     1      44.646 -21.761   3.389  1.00  0.00     0.068 A 
HETATM   26  C   UNL     1      44.707 -22.578   4.517  1.00  0.00     0.037 A 
HETATM   27  C   UNL     1      44.547 -22.026   5.789  1.00  0.00     0.003 A 
HETATM   28  C   UNL     1      44.316 -20.658   5.940  1.00  0.00     0.009 A 
BRANCH  25  29
HETATM   29  O   UNL     1      44.770 -22.179   2.092  1.00  0.00    -0.356 OA
HETATM   30  C   UNL     1      43.686 -21.873   1.222  1.00  0.00     0.210 C 
ENDBRANCH  25  29
ENDBRANCH   1  23
BRANCH   8  31
HETATM   31  C   UNL     1      44.023 -15.708   6.719  1.00  0.00     0.409 C 
HETATM   32  F   UNL     1      44.155 -14.849   5.684  1.00  0.00    -0.169 F 
HETATM   33  F   UNL     1      43.957 -14.980   7.852  1.00  0.00    -0.169 F 
HETATM   34  F   UNL     1      45.184 -16.412   6.780  1.00  0.00    -0.169 F 
ENDBRANCH   8  31
TORSDOF 6
ENDMDL
MODEL 2
REMARK VINA RESULT:      -9.4      1.443      2.105
REMARK  6 active torsions:
REMARK  status: ('A' for Active; 'I' for Inactive)
REMARK    1  A    between atoms: O_2  and  C_3 
REMARK    2  A    between atoms: C_5  and  C_6 
REMARK    3  A    between atoms: C_12  and  C_13 
REMARK       I    between atoms: C_13  and  N_14 
REMARK    4  A    between atoms: N_14  and  C_15 
REMARK    5  A    between atoms: C_17  and  O_18 
REMARK    6  A    between atoms: C_23  and  C_24 
ROOT
HETATM    1  C   UNL     1      43.766 -17.476   4.192  1.00  0.00     0.118 C 
HETATM    2  N   UNL     1      43.094 -16.524   3.294  1.00  0.00    -0.365 N 
HETATM    3  C   UNL     1      42.493 -15.410   3.809  1.00  0.00     0.138 A 
HETATM    4  N   UNL     1      42.361 -15.248   5.170  1.00  0.00    -0.240 N 
HETATM    5  N   UNL     1      41.712 -14.136   5.535  1.00  0.00    -0.181 NA
HETATM    6  C   UNL     1      41.487 -13.523   4.371  1.00  0.00     0.160 A 
HETATM    7  C   UNL     1      41.934 -14.272   3.251  1.00  0.00     0.096 A 
HETATM    8  C   UNL     1      42.879 -16.164   6.167  1.00  0.00     0.221 C 
HETATM    9  C   UNL     1      43.036 -17.553   5.544  1.00  0.00     0.066 C 
HETATM   10  H   UNL     1      43.580 -16.450   2.399  1.00  0.00     0.161 HD
ENDROOT
BRANCH   7  11
HETATM   11  C   UNL     1      41.802 -13.849   1.866  1.00  0.00     0.261 C 
HETATM   12  N   UNL     1      40.894 -14.583   1.128  1.00  0.00    -0.323 N 
HETATM   13  H   UNL     1      40.334 -15.243   1.656  1.00  0.00     0.169 HD
HETATM   14  O   UNL     1      42.450 -12.892   1.454  1.00  0.00    -0.267 OA
BRANCH  12  15
HETATM   15  C   UNL     1      40.609 -14.457  -0.249  1.00  0.00     0.037 A 
HETATM   16  C   UNL     1      41.481 -14.863  -1.264  1.00  0.00     0.066 A 
HETATM   17  C   UNL     1      41.115 -14.709  -2.601  1.00  0.00     0.067 A 
HETATM   18  C   UNL     1      39.887 -14.162  -2.949  1.00  0.00     0.036 A 
HETATM   19  C   UNL     1      39.011 -13.760  -1.944  1.00  0.00     0.005 A 
HETATM   20  C   UNL     1      39.371 -13.906  -0.601  1.00  0.00     0.029 A 
BRANCH  17  21
HETATM   21  O   UNL     1      41.949 -15.091  -3.612  1.00  0.00    -0.361 OA
HETATM   22  H   UNL     1      42.791 -14.614  -3.511  1.00  0.00     0.217 HD
ENDBRANCH  17  21
ENDBRANCH  12  15
ENDBRANCH   7  11
BRANCH   1  23
HETATM   23  C   UNL     1      43.831 -18.851   3.557  1.00  0.00    -0.033 A 
HETATM   24  C   UNL     1      44.411 -19.943   4.227  1.00  0.00     0.046 A 
HETATM   25  C   UNL     1      44.581 -21.176   3.592  1.00  0.00     0.068 A 
HETATM   26  C   UNL     1      44.130 -21.342   2.284  1.00  0.00     0.037 A 
HETATM   27  C   UNL     1      43.531 -20.275   1.612  1.00  0.00     0.003 A 
HETATM   28  C   UNL     1      43.388 -19.037   2.239  1.00  0.00     0.009 A 
BRANCH  25  29
HETATM   29  O   UNL     1      45.197 -22.134   4.351  1.00  0.00    -0.356 OA
HETATM   30  C   UNL     1      44.783 -22.226   5.711  1.00  0.00     0.210 C 
ENDBRANCH  25  29
ENDBRANCH   1  23
BRANCH   8  31
HETATM   31  C   UNL     1      44.180 -15.630   6.729  1.00  0.00     0.409 C 
HETATM   32  F   UNL     1      45.153 -16.566   6.788  1.00  0.00    -0.169 F 
HETATM   33  F   UNL     1      44.663 -14.577   6.039  1.00  0.00    -0.169 F 
HETATM   34  F   UNL     1      43.986 -15.199   8.003  1.00  0.00    -0.169 F 
ENDBRANCH   8  31
TORSDOF 6
ENDMDL
MODEL 3
REMARK VINA RESULT:      -9.2      1.466      2.071
REMARK  6 active torsions:
REMARK  status: ('A' for Active; 'I' for Inactive)
REMARK    1  A    between atoms: O_2  and  C_3 
REMARK    2  A    between atoms: C_5  and  C_6 
REMARK    3  A    between atoms: C_12  and  C_13 
REMARK       I    between atoms: C_13  and  N_14 
REMARK    4  A    between atoms: N_14  and  C_15 
REMARK    5  A    between atoms: C_17  and  O_18 
REMARK    6  A    between atoms: C_23  and  C_24 
ROOT
HETATM    1  C   UNL     1      43.186 -17.037   3.955  1.00  0.00     0.118 C 
HETATM    2  N   UNL     1      42.038 -16.538   3.183  1.00  0.00    -0.365 N 
HETATM    3  C   UNL     1      41.260 -15.536   3.690  1.00  0.00     0.138 A 
HETATM    4  N   UNL     1      41.431 -15.101   4.986  1.00  0.00    -0.240 N 
HETATM    5  N   UNL     1      40.571 -14.148   5.367  1.00  0.00    -0.181 NA
HETATM    6  C   UNL     1      39.874 -13.909   4.256  1.00  0.00     0.160 A 
HETATM    7  C   UNL     1      40.241 -14.752   3.175  1.00  0.00     0.096 A 
HETATM    8  C   UNL     1      42.452 -15.584   5.894  1.00  0.00     0.221 C 
HETATM    9  C   UNL     1      42.887 -16.987   5.464  1.00  0.00     0.066 C 
HETATM   10  H   UNL     1      42.231 -16.549   2.180  1.00  0.00     0.161 HD
ENDROOT
BRANCH   7  11
HETATM   11  C   UNL     1      39.633 -14.717   1.854  1.00  0.00     0.261 C 
HETATM   12  N   UNL     1      40.470 -14.263   0.852  1.00  0.00    -0.323 N 
HETATM   13  H   UNL     1      41.438 -14.127   1.120  1.00  0.00     0.169 HD
HETATM   14  O   UNL     1      38.479 -15.101   1.701  1.00  0.00    -0.267 OA
BRANCH  12  15
HETATM   15  C   UNL     1      40.142 -14.049  -0.504  1.00  0.00     0.037 A 
HETATM   16  C   UNL     1      40.634 -14.828  -1.556  1.00  0.00     0.066 A 
HETATM   17  C   UNL     1      40.251 -14.551  -2.868  1.00  0.00     0.067 A 
HETATM   18  C   UNL     1      39.378 -13.511  -3.155  1.00  0.00     0.036 A 
HETATM   19  C   UNL     1      38.879 -12.733  -2.114  1.00  0.00     0.005 A 
HETATM   20  C   UNL     1      39.261 -12.999  -0.795  1.00  0.00     0.029 A 
BRANCH  17  21
HETATM   21  O   UNL     1      40.721 -15.293  -3.913  1.00  0.00    -0.361 OA
HETATM   22  H   UNL     1      39.996 -15.418  -4.550  1.00  0.00     0.217 HD
ENDBRANCH  17  21
ENDBRANCH  12  15
ENDBRANCH   7  11
BRANCH   1  23
HETATM   23  C   UNL     1      43.530 -18.455   3.541  1.00  0.00    -0.033 A 
HETATM   24  C   UNL     1      44.281 -19.302   4.375  1.00  0.00     0.046 A 
HETATM   25  C   UNL     1      44.702 -20.562   3.939  1.00  0.00     0.068 A 
HETATM   26  C   UNL     1      44.337 -21.005   2.669  1.00  0.00     0.037 A 
HETATM   27  C   UNL     1      43.572 -20.186   1.837  1.00  0.00     0.003 A 
HETATM   28  C   UNL     1      43.177 -18.918   2.264  1.00  0.00     0.009 A 
BRANCH  25  29
HETATM   29  O   UNL     1      45.459 -21.259   4.841  1.00  0.00    -0.356 OA
HETATM   30  C   UNL     1      45.055 -22.598   5.104  1.00  0.00     0.210 C 
ENDBRANCH  25  29
ENDBRANCH   1  23
BRANCH   8  31
HETATM   31  C   UNL     1      43.607 -14.606   5.937  1.00  0.00     0.409 C 
HETATM   32  F   UNL     1      43.942 -14.130   4.717  1.00  0.00    -0.169 F 
HETATM   33  F   UNL     1      43.377 -13.548   6.741  1.00  0.00    -0.169 F 
HETATM   34  F   UNL     1      44.715 -15.226   6.422  1.00  0.00    -0.169 F 
ENDBRANCH   8  31
TORSDOF 6
ENDMDL
MODEL 4
REMARK VINA RESULT:      -9.1      2.544      7.860
REMARK  6 active torsions:
REMARK  status: ('A' for Active; 'I' for Inactive)
REMARK    1  A    between atoms: O_2  and  C_3 
REMARK    2  A    between atoms: C_5  and  C_6 
REMARK    3  A    between atoms: C_12  and  C_13 
REMARK       I    between atoms: C_13  and  N_14 
REMARK    4  A    between atoms: N_14  and  C_15 
REMARK    5  A    between atoms: C_17  and  O_18 
REMARK    6  A    between atoms: C_23  and  C_24 
ROOT
HETATM    1  C   UNL     1      41.371 -13.769   0.876  1.00  0.00     0.118 C 
HETATM    2  N   UNL     1      42.234 -14.908   1.224  1.00  0.00    -0.365 N 
HETATM    3  C   UNL     1      42.567 -15.136   2.529  1.00  0.00     0.138 A 
HETATM    4  N   UNL     1      42.246 -14.221   3.507  1.00  0.00    -0.240 N 
HETATM    5  N   UNL     1      42.673 -14.548   4.733  1.00  0.00    -0.181 NA
HETATM    6  C   UNL     1      43.220 -15.750   4.550  1.00  0.00     0.160 A 
HETATM    7  C   UNL     1      43.203 -16.171   3.195  1.00  0.00     0.096 A 
HETATM    8  C   UNL     1      41.494 -13.002   3.285  1.00  0.00     0.221 C 
HETATM    9  C   UNL     1      41.633 -12.582   1.820  1.00  0.00     0.066 C 
HETATM   10  H   UNL     1      42.057 -15.708   0.616  1.00  0.00     0.161 HD
ENDROOT
BRANCH   7  11
HETATM   11  C   UNL     1      43.745 -17.431   2.712  1.00  0.00     0.261 C 
HETATM   12  N   UNL     1      43.395 -18.532   3.469  1.00  0.00    -0.323 N 
HETATM   13  H   UNL     1      42.705 -18.363   4.193  1.00  0.00     0.169 HD
HETATM   14  O   UNL     1      44.426 -17.453   1.692  1.00  0.00    -0.267 OA
BRANCH  12  15
HETATM   15  C   UNL     1      43.826 -19.864   3.293  1.00  0.00     0.037 A 
HETATM   16  C   UNL     1      44.438 -20.624   4.297  1.00  0.00     0.066 A 
HETATM   17  C   UNL     1      44.826 -21.938   4.038  1.00  0.00     0.067 A 
HETATM   18  C   UNL     1      44.610 -22.517   2.795  1.00  0.00     0.036 A 
HETATM   19  C   UNL     1      43.998 -21.771   1.792  1.00  0.00     0.005 A 
HETATM   20  C   UNL     1      43.609 -20.450   2.040  1.00  0.00     0.029 A 
BRANCH  17  21
HETATM   21  O   UNL     1      45.430 -22.699   4.997  1.00  0.00    -0.361 OA
HETATM   22  H   UNL     1      46.202 -23.137   4.600  1.00  0.00     0.217 HD
ENDBRANCH  17  21
ENDBRANCH  12  15
ENDBRANCH   7  11
BRANCH   1  23
HETATM   23  C   UNL     1      41.599 -13.348  -0.563  1.00  0.00    -0.033 A 
HETATM   24  C   UNL     1      41.166 -14.143  -1.639  1.00  0.00     0.046 A 
HETATM   25  C   UNL     1      41.487 -13.813  -2.959  1.00  0.00     0.068 A 
HETATM   26  C   UNL     1      42.216 -12.654  -3.218  1.00  0.00     0.037 A 
HETATM   27  C   UNL     1      42.634 -11.841  -2.163  1.00  0.00     0.003 A 
HETATM   28  C   UNL     1      42.336 -12.187  -0.845  1.00  0.00     0.009 A 
BRANCH  25  29
HETATM   29  O   UNL     1      41.035 -14.699  -3.898  1.00  0.00    -0.356 OA
HETATM   30  C   UNL     1      39.889 -15.466  -3.544  1.00  0.00     0.210 C 
ENDBRANCH  25  29
ENDBRANCH   1  23
BRANCH   8  31
HETATM   31  C   UNL     1      40.051 -13.205   3.696  1.00  0.00     0.409 C 
HETATM   32  F   UNL     1      39.187 -12.452   2.981  1.00  0.00    -0.169 F 
HETATM   33  F   UNL     1      39.650 -14.490   3.605  1.00  0.00    -0.169 F 
HETATM   34  F   UNL     1      39.889 -12.842   4.996  1.00  0.00    -0.169 F 
ENDBRANCH   8  31
TORSDOF 6
ENDMDL
MODEL 5
REMARK VINA RESULT:      -9.0      3.673      8.057
REMARK  6 active torsions:
REMARK  status: ('A' for Active; 'I' for Inactive)
REMARK    1  A    between atoms: O_2  and  C_3 
REMARK    2  A    between atoms: C_5  and  C_6 
REMARK    3  A    between atoms: C_12  and  C_13 
REMARK       I    between atoms: C_13  and  N_14 
REMARK    4  A    between atoms: N_14  and  C_15 
REMARK    5  A    between atoms: C_17  and  O_18 
REMARK    6  A    between atoms: C_23  and  C_24 
ROOT
HETATM    1  C   UNL     1      42.526 -16.301   1.459  1.00  0.00     0.118 C 
HETATM    2  N   UNL     1      42.764 -15.550   2.701  1.00  0.00    -0.365 N 
HETATM    3  C   UNL     1      42.914 -16.218   3.883  1.00  0.00     0.138 A 
HETATM    4  N   UNL     1      42.679 -17.572   3.960  1.00  0.00    -0.240 N 
HETATM    5  N   UNL     1      42.817 -18.090   5.187  1.00  0.00    -0.181 NA
HETATM    6  C   UNL     1      43.230 -17.046   5.908  1.00  0.00     0.160 A 
HETATM    7  C   UNL     1      43.296 -15.842   5.161  1.00  0.00     0.096 A 
HETATM    8  C   UNL     1      42.330 -18.417   2.835  1.00  0.00     0.221 C 
HETATM    9  C   UNL     1      41.688 -17.561   1.741  1.00  0.00     0.066 C 
HETATM   10  H   UNL     1      43.335 -14.720   2.530  1.00  0.00     0.161 HD
ENDROOT
BRANCH   7  11
HETATM   11  C   UNL     1      43.699 -14.553   5.700  1.00  0.00     0.261 C 
HETATM   12  N   UNL     1      44.525 -14.629   6.805  1.00  0.00    -0.323 N 
HETATM   13  H   UNL     1      44.858 -15.557   7.038  1.00  0.00     0.169 HD
HETATM   14  O   UNL     1      43.327 -13.519   5.156  1.00  0.00    -0.267 OA
BRANCH  12  15
HETATM   15  C   UNL     1      45.013 -13.557   7.584  1.00  0.00     0.037 A 
HETATM   16  C   UNL     1      46.204 -12.876   7.311  1.00  0.00     0.066 A 
HETATM   17  C   UNL     1      46.607 -11.822   8.130  1.00  0.00     0.067 A 
HETATM   18  C   UNL     1      45.841 -11.425   9.217  1.00  0.00     0.036 A 
HETATM   19  C   UNL     1      44.651 -12.094   9.493  1.00  0.00     0.005 A 
HETATM   20  C   UNL     1      44.240 -13.156   8.681  1.00  0.00     0.029 A 
BRANCH  17  21
HETATM   21  O   UNL     1      47.768 -11.143   7.889  1.00  0.00    -0.361 OA
HETATM   22  H   UNL     1      47.979 -11.224   6.943  1.00  0.00     0.217 HD
ENDBRANCH  17  21
ENDBRANCH  12  15
ENDBRANCH   7  11
BRANCH   1  23
HETATM   23  C   UNL     1      41.825 -15.430   0.435  1.00  0.00    -0.033 A 
HETATM   24  C   UNL     1      41.382 -15.951  -0.793  1.00  0.00     0.046 A 
HETATM   25  C   UNL     1      40.850 -15.121  -1.784  1.00  0.00     0.068 A 
HETATM   26  C   UNL     1      40.717 -13.755  -1.535  1.00  0.00     0.037 A 
HETATM   27  C   UNL     1      41.131 -13.225  -0.313  1.00  0.00     0.003 A 
HETATM   28  C   UNL     1      41.687 -14.052   0.664  1.00  0.00     0.009 A 
BRANCH  25  29
HETATM   29  O   UNL     1      40.499 -15.759  -2.942  1.00  0.00    -0.356 OA
HETATM   30  C   UNL     1      39.310 -15.305  -3.579  1.00  0.00     0.210 C 
ENDBRANCH  25  29
ENDBRANCH   1  23
BRANCH   8  31
HETATM   31  C   UNL     1      43.556 -19.158   2.348  1.00  0.00     0.409 C 
HETATM   32  F   UNL     1      44.712 -18.530   2.659  1.00  0.00    -0.169 F 
HETATM   33  F   UNL     1      43.636 -20.420   2.818  1.00  0.00    -0.169 F 
HETATM   34  F   UNL     1      43.526 -19.253   0.992  1.00  0.00    -0.169 F 
ENDBRANCH   8  31
TORSDOF 6
ENDMDL
MODEL 6
REMARK VINA RESULT:      -9.0      4.164      6.488
REMARK  6 active torsions:
REMARK  status: ('A' for Active; 'I' for Inactive)
REMARK    1  A    between atoms: O_2  and  C_3 
REMARK    2  A    between atoms: C_5  and  C_6 
REMARK    3  A    between atoms: C_12  and  C_13 
REMARK       I    between atoms: C_13  and  N_14 
REMARK    4  A    between atoms: N_14  and  C_15 
REMARK    5  A    between atoms: C_17  and  O_18 
REMARK    6  A    between atoms: C_23  and  C_24 
ROOT
HETATM    1  C   UNL     1      42.743 -17.333   3.022  1.00  0.00     0.118 C 
HETATM    2  N   UNL     1      42.708 -16.158   3.907  1.00  0.00    -0.365 N 
HETATM    3  C   UNL     1      42.449 -14.922   3.388  1.00  0.00     0.138 A 
HETATM    4  N   UNL     1      42.386 -14.730   2.026  1.00  0.00    -0.240 N 
HETATM    5  N   UNL     1      42.171 -13.462   1.654  1.00  0.00    -0.181 NA
HETATM    6  C   UNL     1      42.016 -12.830   2.818  1.00  0.00     0.160 A 
HETATM    7  C   UNL     1      42.193 -13.678   3.942  1.00  0.00     0.096 A 
HETATM    8  C   UNL     1      42.511 -15.781   1.035  1.00  0.00     0.221 C 
HETATM    9  C   UNL     1      43.294 -16.951   1.637  1.00  0.00     0.066 C 
HETATM   10  H   UNL     1      42.328 -16.395   4.825  1.00  0.00     0.161 HD
ENDROOT
BRANCH   7  11
HETATM   11  C   UNL     1      42.095 -13.248   5.328  1.00  0.00     0.261 C 
HETATM   12  N   UNL     1      41.188 -12.230   5.547  1.00  0.00    -0.323 N 
HETATM   13  H   UNL     1      40.606 -11.985   4.754  1.00  0.00     0.169 HD
HETATM   14  O   UNL     1      42.768 -13.803   6.189  1.00  0.00    -0.267 OA
BRANCH  12  15
HETATM   15  C   UNL     1      40.931 -11.560   6.763  1.00  0.00     0.037 A 
HETATM   16  C   UNL     1      39.688 -11.560   7.405  1.00  0.00     0.066 A 
HETATM   17  C   UNL     1      39.526 -10.877   8.610  1.00  0.00     0.067 A 
HETATM   18  C   UNL     1      40.583 -10.196   9.196  1.00  0.00     0.036 A 
HETATM   19  C   UNL     1      41.826 -10.195   8.567  1.00  0.00     0.005 A 
HETATM   20  C   UNL     1      41.998 -10.872   7.355  1.00  0.00     0.029 A 
BRANCH  17  21
HETATM   21  O   UNL     1      38.322 -10.856   9.254  1.00  0.00    -0.361 OA
HETATM   22  H   UNL     1      38.476 -10.609  10.182  1.00  0.00     0.217 HD
ENDBRANCH  17  21
ENDBRANCH  12  15
ENDBRANCH   7  11
BRANCH   1  23
HETATM   23  C   UNL     1      43.588 -18.434   3.632  1.00  0.00    -0.033 A 
HETATM   24  C   UNL     1      43.849 -19.629   2.938  1.00  0.00     0.046 A 
HETATM   25  C   UNL     1      44.523 -20.690   3.550  1.00  0.00     0.068 A 
HETATM   26  C   UNL     1      44.981 -20.548   4.859  1.00  0.00     0.037 A 
HETATM   27  C   UNL     1      44.750 -19.360   5.554  1.00  0.00     0.003 A 
HETATM   28  C   UNL     1      44.054 -18.312   4.950  1.00  0.00     0.009 A 
BRANCH  25  29
HETATM   29  O   UNL     1      44.670 -21.804   2.769  1.00  0.00    -0.356 OA
HETATM   30  C   UNL     1      43.915 -21.835   1.562  1.00  0.00     0.210 C 
ENDBRANCH  25  29
ENDBRANCH   1  23
BRANCH   8  31
HETATM   31  C   UNL     1      41.140 -16.192   0.543  1.00  0.00     0.409 C 
HETATM   32  F   UNL     1      41.020 -17.527   0.367  1.00  0.00    -0.169 F 
HETATM   33  F   UNL     1      40.142 -15.794   1.359  1.00  0.00    -0.169 F 
HETATM   34  F   UNL     1      40.897 -15.624  -0.667  1.00  0.00    -0.169 F 
ENDBRANCH   8  31
TORSDOF 6
ENDMDL
MODEL 7
REMARK VINA RESULT:      -8.9      2.243      7.365
REMARK  6 active torsions:
REMARK  status: ('A' for Active; 'I' for Inactive)
REMARK    1  A    between atoms: O_2  and  C_3 
REMARK    2  A    between atoms: C_5  and  C_6 
REMARK    3  A    between atoms: C_12  and  C_13 
REMARK       I    between atoms: C_13  and  N_14 
REMARK    4  A    between atoms: N_14  and  C_15 
REMARK    5  A    between atoms: C_17  and  O_18 
REMARK    6  A    between atoms: C_23  and  C_24 
ROOT
HETATM    1  C   UNL     1      40.284 -14.080   2.980  1.00  0.00     0.118 C 
HETATM    2  N   UNL     1      41.026 -15.315   3.278  1.00  0.00    -0.365 N 
HETATM    3  C   UNL     1      41.998 -15.311   4.236  1.00  0.00     0.138 A 
HETATM    4  N   UNL     1      42.413 -14.131   4.812  1.00  0.00    -0.240 N 
HETATM    5  N   UNL     1      43.404 -14.267   5.702  1.00  0.00    -0.181 NA
HETATM    6  C   UNL     1      43.581 -15.588   5.756  1.00  0.00     0.160 A 
HETATM    7  C   UNL     1      42.747 -16.300   4.854  1.00  0.00     0.096 A 
HETATM    8  C   UNL     1      41.844 -12.828   4.531  1.00  0.00     0.221 C 
HETATM    9  C   UNL     1      41.193 -12.850   3.146  1.00  0.00     0.066 C 
HETATM   10  H   UNL     1      40.428 -16.139   3.188  1.00  0.00     0.161 HD
ENDROOT
BRANCH   7  11
HETATM   11  C   UNL     1      42.743 -17.745   4.696  1.00  0.00     0.261 C 
HETATM   12  N   UNL     1      43.817 -18.245   3.985  1.00  0.00    -0.323 N 
HETATM   13  H   UNL     1      44.545 -17.575   3.766  1.00  0.00     0.169 HD
HETATM   14  O   UNL     1      41.847 -18.413   5.200  1.00  0.00    -0.267 OA
BRANCH  12  15
HETATM   15  C   UNL     1      44.044 -19.587   3.608  1.00  0.00     0.037 A 
HETATM   16  C   UNL     1      44.582 -20.555   4.463  1.00  0.00     0.066 A 
HETATM   17  C   UNL     1      44.765 -21.860   4.009  1.00  0.00     0.067 A 
HETATM   18  C   UNL     1      44.414 -22.226   2.717  1.00  0.00     0.036 A 
HETATM   19  C   UNL     1      43.873 -21.271   1.861  1.00  0.00     0.005 A 
HETATM   20  C   UNL     1      43.690 -19.957   2.305  1.00  0.00     0.029 A 
BRANCH  17  21
HETATM   21  O   UNL     1      45.293 -22.823   4.821  1.00  0.00    -0.361 OA
HETATM   22  H   UNL     1      45.240 -23.677   4.358  1.00  0.00     0.217 HD
ENDBRANCH  17  21
ENDBRANCH  12  15
ENDBRANCH   7  11
BRANCH   1  23
HETATM   23  C   UNL     1      39.720 -14.123   1.573  1.00  0.00    -0.033 A 
HETATM   24  C   UNL     1      40.547 -14.334   0.456  1.00  0.00     0.046 A 
HETATM   25  C   UNL     1      40.045 -14.250  -0.845  1.00  0.00     0.068 A 
HETATM   26  C   UNL     1      38.689 -13.991  -1.041  1.00  0.00     0.037 A 
HETATM   27  C   UNL     1      37.849 -13.802   0.057  1.00  0.00     0.003 A 
HETATM   28  C   UNL     1      38.359 -13.860   1.355  1.00  0.00     0.009 A 
BRANCH  25  29
HETATM   29  O   UNL     1      40.972 -14.437  -1.833  1.00  0.00    -0.356 OA
HETATM   30  C   UNL     1      40.793 -15.582  -2.660  1.00  0.00     0.210 C 
ENDBRANCH  25  29
ENDBRANCH   1  23
BRANCH   8  31
HETATM   31  C   UNL     1      40.870 -12.444   5.624  1.00  0.00     0.409 C 
HETATM   32  F   UNL     1      41.455 -11.768   6.639  1.00  0.00    -0.169 F 
HETATM   33  F   UNL     1      39.836 -11.703   5.178  1.00  0.00    -0.169 F 
HETATM   34  F   UNL     1      40.333 -13.565   6.174  1.00  0.00    -0.169 F 
ENDBRANCH   8  31
TORSDOF 6
ENDMDL
MODEL 8
REMARK VINA RESULT:      -8.9      4.305      6.714
REMARK  6 active torsions:
REMARK  status: ('A' for Active; 'I' for Inactive)
REMARK    1  A    between atoms: O_2  and  C_3 
REMARK    2  A    between atoms: C_5  and  C_6 
REMARK    3  A    between atoms: C_12  and  C_13 
REMARK       I    between atoms: C_13  and  N_14 
REMARK    4  A    between atoms: N_14  and  C_15 
REMARK    5  A    between atoms: C_17  and  O_18 
REMARK    6  A    between atoms: C_23  and  C_24 
ROOT
HETATM    1  C   UNL     1      42.546 -17.421   3.129  1.00  0.00     0.118 C 
HETATM    2  N   UNL     1      42.555 -16.242   4.008  1.00  0.00    -0.365 N 
HETATM    3  C   UNL     1      42.452 -14.991   3.470  1.00  0.00     0.138 A 
HETATM    4  N   UNL     1      42.510 -14.805   2.107  1.00  0.00    -0.240 N 
HETATM    5  N   UNL     1      42.444 -13.525   1.720  1.00  0.00    -0.181 NA
HETATM    6  C   UNL     1      42.261 -12.872   2.868  1.00  0.00     0.160 A 
HETATM    7  C   UNL     1      42.272 -13.724   4.003  1.00  0.00     0.096 A 
HETATM    8  C   UNL     1      42.613 -15.870   1.130  1.00  0.00     0.221 C 
HETATM    9  C   UNL     1      43.234 -17.103   1.790  1.00  0.00     0.066 C 
HETATM   10  H   UNL     1      42.085 -16.435   4.894  1.00  0.00     0.161 HD
ENDROOT
BRANCH   7  11
HETATM   11  C   UNL     1      42.110 -13.277   5.377  1.00  0.00     0.261 C 
HETATM   12  N   UNL     1      41.251 -12.206   5.531  1.00  0.00    -0.323 N 
HETATM   13  H   UNL     1      40.737 -11.935   4.701  1.00  0.00     0.169 HD
HETATM   14  O   UNL     1      42.691 -13.862   6.283  1.00  0.00    -0.267 OA
BRANCH  12  15
HETATM   15  C   UNL     1      40.956 -11.511   6.724  1.00  0.00     0.037 A 
HETATM   16  C   UNL     1      39.734 -11.605   7.398  1.00  0.00     0.066 A 
HETATM   17  C   UNL     1      39.530 -10.888   8.576  1.00  0.00     0.067 A 
HETATM   18  C   UNL     1      40.527 -10.080   9.105  1.00  0.00     0.036 A 
HETATM   19  C   UNL     1      41.749  -9.984   8.444  1.00  0.00     0.005 A 
HETATM   20  C   UNL     1      41.962 -10.695   7.258  1.00  0.00     0.029 A 
BRANCH  17  21
HETATM   21  O   UNL     1      38.345 -10.958   9.251  1.00  0.00    -0.361 OA
HETATM   22  H   UNL     1      38.256 -11.853   9.622  1.00  0.00     0.217 HD
ENDBRANCH  17  21
ENDBRANCH  12  15
ENDBRANCH   7  11
BRANCH   1  23
HETATM   23  C   UNL     1      43.237 -18.592   3.802  1.00  0.00    -0.033 A 
HETATM   24  C   UNL     1      43.233 -18.743   5.200  1.00  0.00     0.046 A 
HETATM   25  C   UNL     1      43.973 -19.752   5.822  1.00  0.00     0.068 A 
HETATM   26  C   UNL     1      44.698 -20.652   5.042  1.00  0.00     0.037 A 
HETATM   27  C   UNL     1      44.694 -20.530   3.652  1.00  0.00     0.003 A 
HETATM   28  C   UNL     1      43.976 -19.505   3.034  1.00  0.00     0.009 A 
BRANCH  25  29
HETATM   29  O   UNL     1      43.908 -19.753   7.189  1.00  0.00    -0.356 OA
HETATM   30  C   UNL     1      43.947 -18.480   7.825  1.00  0.00     0.210 C 
ENDBRANCH  25  29
ENDBRANCH   1  23
BRANCH   8  31
HETATM   31  C   UNL     1      41.250 -16.155   0.535  1.00  0.00     0.409 C 
HETATM   32  F   UNL     1      41.060 -17.464   0.254  1.00  0.00    -0.169 F 
HETATM   33  F   UNL     1      40.232 -15.752   1.322  1.00  0.00    -0.169 F 
HETATM   34  F   UNL     1      41.115 -15.489  -0.642  1.00  0.00    -0.169 F 
ENDBRANCH   8  31
TORSDOF 6
ENDMDL
MODEL 9
REMARK VINA RESULT:      -8.6      4.267      7.479
REMARK  6 active torsions:
REMARK  status: ('A' for Active; 'I' for Inactive)
REMARK    1  A    between atoms: O_2  and  C_3 
REMARK    2  A    between atoms: C_5  and  C_6 
REMARK    3  A    between atoms: C_12  and  C_13 
REMARK       I    between atoms: C_13  and  N_14 
REMARK    4  A    between atoms: N_14  and  C_15 
REMARK    5  A    between atoms: C_17  and  O_18 
REMARK    6  A    between atoms: C_23  and  C_24 
ROOT
HETATM    1  C   UNL     1      42.096 -16.971   3.548  1.00  0.00     0.118 C 
HETATM    2  N   UNL     1      42.749 -16.094   4.532  1.00  0.00    -0.365 N 
HETATM    3  C   UNL     1      42.561 -14.743   4.471  1.00  0.00     0.138 A 
HETATM    4  N   UNL     1      41.907 -14.172   3.402  1.00  0.00    -0.240 N 
HETATM    5  N   UNL     1      41.834 -12.836   3.447  1.00  0.00    -0.181 NA
HETATM    6  C   UNL     1      42.394 -12.543   4.622  1.00  0.00     0.160 A 
HETATM    7  C   UNL     1      42.885 -13.686   5.306  1.00  0.00     0.096 A 
HETATM    8  C   UNL     1      41.310 -14.910   2.307  1.00  0.00     0.221 C 
HETATM    9  C   UNL     1      41.997 -16.271   2.181  1.00  0.00     0.066 C 
HETATM   10  H   UNL     1      42.805 -16.541   5.449  1.00  0.00     0.161 HD
ENDROOT
BRANCH   7  11
HETATM   11  C   UNL     1      43.553 -13.654   6.597  1.00  0.00     0.261 C 
HETATM   12  N   UNL     1      43.403 -12.468   7.290  1.00  0.00    -0.323 N 
HETATM   13  H   UNL     1      42.750 -11.807   6.887  1.00  0.00     0.169 HD
HETATM   14  O   UNL     1      44.159 -14.643   6.996  1.00  0.00    -0.267 OA
BRANCH  12  15
HETATM   15  C   UNL     1      43.993 -12.117   8.523  1.00  0.00     0.037 A 
HETATM   16  C   UNL     1      43.265 -11.727   9.651  1.00  0.00     0.066 A 
HETATM   17  C   UNL     1      43.930 -11.405  10.834  1.00  0.00     0.067 A 
HETATM   18  C   UNL     1      45.313 -11.470  10.918  1.00  0.00     0.036 A 
HETATM   19  C   UNL     1      46.047 -11.863   9.802  1.00  0.00     0.005 A 
HETATM   20  C   UNL     1      45.390 -12.183   8.609  1.00  0.00     0.029 A 
BRANCH  17  21
HETATM   21  O   UNL     1      43.243 -11.016  11.948  1.00  0.00    -0.361 OA
HETATM   22  H   UNL     1      42.756 -10.199  11.738  1.00  0.00     0.217 HD
ENDBRANCH  17  21
ENDBRANCH  12  15
ENDBRANCH   7  11
BRANCH   1  23
HETATM   23  C   UNL     1      42.857 -18.276   3.410  1.00  0.00    -0.033 A 
HETATM   24  C   UNL     1      43.426 -18.916   4.524  1.00  0.00     0.046 A 
HETATM   25  C   UNL     1      44.230 -20.050   4.376  1.00  0.00     0.068 A 
HETATM   26  C   UNL     1      44.440 -20.581   3.105  1.00  0.00     0.037 A 
HETATM   27  C   UNL     1      43.863 -19.971   1.989  1.00  0.00     0.003 A 
HETATM   28  C   UNL     1      43.083 -18.823   2.137  1.00  0.00     0.009 A 
BRANCH  25  29
HETATM   29  O   UNL     1      44.749 -20.543   5.542  1.00  0.00    -0.356 OA
HETATM   30  C   UNL     1      43.920 -20.444   6.695  1.00  0.00     0.210 C 
ENDBRANCH  25  29
ENDBRANCH   1  23
BRANCH   8  31
HETATM   31  C   UNL     1      39.816 -15.031   2.522  1.00  0.00     0.409 C 
HETATM   32  F   UNL     1      39.309 -16.195   2.058  1.00  0.00    -0.169 F 
HETATM   33  F   UNL     1      39.455 -14.912   3.816  1.00  0.00    -0.169 F 
HETATM   34  F   UNL     1      39.174 -14.040   1.849  1.00  0.00    -0.169 F 
ENDBRANCH   8  31
TORSDOF 6
ENDMDL
MODEL 10
REMARK VINA RESULT:      -8.6      4.137      6.853
REMARK  6 active torsions:
REMARK  status: ('A' for Active; 'I' for Inactive)
REMARK    1  A    between atoms: O_2  and  C_3 
REMARK    2  A    between atoms: C_5  and  C_6 
REMARK    3  A    between atoms: C_12  and  C_13 
REMARK       I    between atoms: C_13  and  N_14 
REMARK    4  A    between atoms: N_14  and  C_15 
REMARK    5  A    between atoms: C_17  and  O_18 
REMARK    6  A    between atoms: C_23  and  C_24 
ROOT
HETATM    1  C   UNL     1      42.780 -17.619   3.773  1.00  0.00     0.118 C 
HETATM    2  N   UNL     1      43.158 -16.530   4.686  1.00  0.00    -0.365 N 
HETATM    3  C   UNL     1      42.968 -15.230   4.311  1.00  0.00     0.138 A 
HETATM    4  N   UNL     1      42.585 -14.918   3.026  1.00  0.00    -0.240 N 
HETATM    5  N   UNL     1      42.481 -13.605   2.783  1.00  0.00    -0.181 NA
HETATM    6  C   UNL     1      42.731 -13.058   3.973  1.00  0.00     0.160 A 
HETATM    7  C   UNL     1      43.060 -14.014   4.969  1.00  0.00     0.096 A 
HETATM    8  C   UNL     1      42.286 -15.888   1.992  1.00  0.00     0.221 C 
HETATM    9  C   UNL     1      43.006 -17.201   2.309  1.00  0.00     0.066 C 
HETATM   10  H   UNL     1      42.995 -16.788   5.661  1.00  0.00     0.161 HD
ENDROOT
BRANCH   7  11
HETATM   11  C   UNL     1      43.392 -13.693   6.348  1.00  0.00     0.261 C 
HETATM   12  N   UNL     1      42.988 -12.436   6.755  1.00  0.00    -0.323 N 
HETATM   13  H   UNL     1      42.402 -11.932   6.100  1.00  0.00     0.169 HD
HETATM   14  O   UNL     1      43.957 -14.524   7.050  1.00  0.00    -0.267 OA
BRANCH  12  15
HETATM   15  C   UNL     1      43.234 -11.821   8.002  1.00  0.00     0.037 A 
HETATM   16  C   UNL     1      44.356 -12.086   8.793  1.00  0.00     0.066 A 
HETATM   17  C   UNL     1      44.523 -11.425  10.010  1.00  0.00     0.067 A 
HETATM   18  C   UNL     1      43.594 -10.494  10.453  1.00  0.00     0.036 A 
HETATM   19  C   UNL     1      42.476 -10.220   9.670  1.00  0.00     0.005 A 
HETATM   20  C   UNL     1      42.296 -10.881   8.450  1.00  0.00     0.029 A 
BRANCH  17  21
HETATM   21  O   UNL     1      45.606 -11.669  10.804  1.00  0.00    -0.361 OA
HETATM   22  H   UNL     1      46.402 -11.352  10.343  1.00  0.00     0.217 HD
ENDBRANCH  17  21
ENDBRANCH  12  15
ENDBRANCH   7  11
BRANCH   1  23
HETATM   23  C   UNL     1      43.573 -18.874   4.083  1.00  0.00    -0.033 A 
HETATM   24  C   UNL     1      43.988 -19.751   3.066  1.00  0.00     0.046 A 
HETATM   25  C   UNL     1      44.609 -20.967   3.365  1.00  0.00     0.068 A 
HETATM   26  C   UNL     1      44.859 -21.300   4.696  1.00  0.00     0.037 A 
HETATM   27  C   UNL     1      44.474 -20.429   5.717  1.00  0.00     0.003 A 
HETATM   28  C   UNL     1      43.830 -19.229   5.416  1.00  0.00     0.009 A 
BRANCH  25  29
HETATM   29  O   UNL     1      44.920 -21.737   2.278  1.00  0.00    -0.356 OA
HETATM   30  C   UNL     1      43.885 -21.926   1.319  1.00  0.00     0.210 C 
ENDBRANCH  25  29
ENDBRANCH   1  23
BRANCH   8  31
HETATM   31  C   UNL     1      40.787 -16.064   1.869  1.00  0.00     0.409 C 
HETATM   32  F   UNL     1      40.223 -15.194   1.001  1.00  0.00    -0.169 F 
HETATM   33  F   UNL     1      40.428 -17.309   1.495  1.00  0.00    -0.169 F 
HETATM   34  F   UNL     1      40.198 -15.838   3.073  1.00  0.00    -0.169 F 
ENDBRANCH   8  31
TORSDOF 6
ENDMDL
