MODEL 1
REMARK VINA RESULT:      -7.8      0.000      0.000
REMARK  3 active torsions:
REMARK  status: ('A' for Active; 'I' for Inactive)
REMARK    1  A    between atoms: O_2  and  C_3 
REMARK    2  A    between atoms: C_4  and  C_5 
REMARK    3  A    between atoms: C_16  and  N_17 
ROOT
HETATM    1  C   UNL     1      42.707 -17.349   6.628  1.00  0.00     0.246 C 
HETATM    2  N   UNL     1      43.385 -18.163   5.642  1.00  0.00    -0.151 N 
HETATM    3  C   UNL     1      44.351 -19.064   6.018  1.00  0.00     0.734 A 
HETATM    4  N   UNL     1      44.828 -19.666   4.949  1.00  0.00    -0.060 NA
HETATM    5  C   UNL     1      44.109 -19.191   3.882  1.00  0.00     0.103 A 
HETATM    6  C   UNL     1      43.166 -18.253   4.293  1.00  0.00     0.083 A 
HETATM    7  C   UNL     1      44.206 -19.522   2.524  1.00  0.00     0.034 A 
HETATM    8  C   UNL     1      43.341 -18.897   1.618  1.00  0.00     0.002 A 
HETATM    9  C   UNL     1      42.398 -17.964   2.056  1.00  0.00     0.002 A 
HETATM   10  C   UNL     1      42.288 -17.619   3.409  1.00  0.00     0.033 A 
HETATM   11  N   UNL     1      44.708 -19.264   7.306  1.00  0.00    -0.033 NA
HETATM   12  C   UNL     1      44.068 -18.644   8.229  1.00  0.00     0.193 C 
HETATM   13  N   UNL     1      43.041 -17.730   7.998  1.00  0.00    -0.338 N 
HETATM   14  H   UNL     1      42.504 -17.317   8.745  1.00  0.00     0.164 HD
ENDROOT
BRANCH   1  15
HETATM   15  C   UNL     1      42.970 -15.851   6.510  1.00  0.00     0.020 A 
HETATM   16  C   UNL     1      41.984 -15.033   5.905  1.00  0.00     0.078 A 
HETATM   17  C   UNL     1      42.198 -13.658   5.766  1.00  0.00     0.039 A 
HETATM   18  C   UNL     1      43.376 -13.075   6.236  1.00  0.00     0.022 A 
HETATM   19  C   UNL     1      44.335 -13.863   6.860  1.00  0.00     0.011 A 
HETATM   20  C   UNL     1      44.137 -15.236   7.008  1.00  0.00     0.033 A 
HETATM   21 BR   UNL     1      45.922 -13.070   7.509  1.00  0.00    -0.051 Br
BRANCH  16  22
HETATM   22  O   UNL     1      40.841 -15.684   5.510  1.00  0.00    -0.355 OA
HETATM   23  C   UNL     1      39.898 -14.939   4.740  1.00  0.00     0.210 C 
ENDBRANCH  16  22
ENDBRANCH   1  15
BRANCH  12  24
HETATM   24  N   UNL     1      44.323 -18.815   9.542  1.00  0.00    -0.272 NA
HETATM   25  H   UNL     1      44.235 -17.937  10.049  1.00  0.00     0.127 HD
HETATM   26  H   UNL     1      43.819 -19.560  10.006  1.00  0.00     0.127 HD
ENDBRANCH  12  24
TORSDOF 3
ENDMDL
MODEL 2
REMARK VINA RESULT:      -7.4      3.411      4.703
REMARK  3 active torsions:
REMARK  status: ('A' for Active; 'I' for Inactive)
REMARK    1  A    between atoms: O_2  and  C_3 
REMARK    2  A    between atoms: C_4  and  C_5 
REMARK    3  A    between atoms: C_16  and  N_17 
ROOT
HETATM    1  C   UNL     1      40.898 -16.632   3.369  1.00  0.00     0.246 C 
HETATM    2  N   UNL     1      42.017 -17.372   3.912  1.00  0.00    -0.151 N 
HETATM    3  C   UNL     1      42.445 -17.157   5.199  1.00  0.00     0.734 A 
HETATM    4  N   UNL     1      43.479 -17.930   5.452  1.00  0.00    -0.060 NA
HETATM    5  C   UNL     1      43.673 -18.699   4.332  1.00  0.00     0.103 A 
HETATM    6  C   UNL     1      42.744 -18.385   3.345  1.00  0.00     0.083 A 
HETATM    7  C   UNL     1      44.629 -19.694   4.089  1.00  0.00     0.034 A 
HETATM    8  C   UNL     1      44.615 -20.350   2.853  1.00  0.00     0.002 A 
HETATM    9  C   UNL     1      43.667 -20.022   1.880  1.00  0.00     0.002 A 
HETATM   10  C   UNL     1      42.706 -19.029   2.104  1.00  0.00     0.033 A 
HETATM   11  N   UNL     1      41.848 -16.278   6.034  1.00  0.00    -0.033 NA
HETATM   12  C   UNL     1      40.789 -15.671   5.640  1.00  0.00     0.193 C 
HETATM   13  N   UNL     1      40.221 -15.818   4.375  1.00  0.00    -0.338 N 
HETATM   14  H   UNL     1      39.345 -15.388   4.119  1.00  0.00     0.164 HD
ENDROOT
BRANCH   1  15
HETATM   15  C   UNL     1      41.249 -15.701   2.212  1.00  0.00     0.020 A 
HETATM   16  C   UNL     1      41.925 -14.489   2.496  1.00  0.00     0.078 A 
HETATM   17  C   UNL     1      42.247 -13.604   1.462  1.00  0.00     0.039 A 
HETATM   18  C   UNL     1      41.923 -13.913   0.140  1.00  0.00     0.022 A 
HETATM   19  C   UNL     1      41.289 -15.113  -0.153  1.00  0.00     0.011 A 
HETATM   20  C   UNL     1      40.961 -16.009   0.866  1.00  0.00     0.033 A 
HETATM   21 BR   UNL     1      40.864 -15.537  -1.944  1.00  0.00    -0.051 Br
BRANCH  16  22
HETATM   22  O   UNL     1      42.240 -14.287   3.817  1.00  0.00    -0.355 OA
HETATM   23  C   UNL     1      43.517 -13.718   4.103  1.00  0.00     0.210 C 
ENDBRANCH  16  22
ENDBRANCH   1  15
BRANCH  12  24
HETATM   24  N   UNL     1      40.100 -14.812   6.419  1.00  0.00    -0.272 NA
HETATM   25  H   UNL     1      40.643 -13.971   6.603  1.00  0.00     0.127 HD
HETATM   26  H   UNL     1      39.161 -14.586   6.120  1.00  0.00     0.127 HD
ENDBRANCH  12  24
TORSDOF 3
ENDMDL
MODEL 3
REMARK VINA RESULT:      -7.3      2.083      2.721
REMARK  3 active torsions:
REMARK  status: ('A' for Active; 'I' for Inactive)
REMARK    1  A    between atoms: O_2  and  C_3 
REMARK    2  A    between atoms: C_4  and  C_5 
REMARK    3  A    between atoms: C_16  and  N_17 
ROOT
HETATM    1  C   UNL     1      42.169 -17.244   5.850  1.00  0.00     0.246 C 
HETATM    2  N   UNL     1      43.172 -18.134   5.304  1.00  0.00    -0.151 N 
HETATM    3  C   UNL     1      44.220 -18.570   6.076  1.00  0.00     0.734 A 
HETATM    4  N   UNL     1      45.000 -19.348   5.356  1.00  0.00    -0.060 NA
HETATM    5  C   UNL     1      44.405 -19.463   4.126  1.00  0.00     0.103 A 
HETATM    6  C   UNL     1      43.227 -18.724   4.070  1.00  0.00     0.083 A 
HETATM    7  C   UNL     1      44.816 -20.193   3.001  1.00  0.00     0.034 A 
HETATM    8  C   UNL     1      44.019 -20.157   1.851  1.00  0.00     0.002 A 
HETATM    9  C   UNL     1      42.837 -19.413   1.822  1.00  0.00     0.002 A 
HETATM   10  C   UNL     1      42.412 -18.676   2.934  1.00  0.00     0.033 A 
HETATM   11  N   UNL     1      44.370 -18.226   7.374  1.00  0.00    -0.033 NA
HETATM   12  C   UNL     1      43.456 -17.524   7.938  1.00  0.00     0.193 C 
HETATM   13  N   UNL     1      42.320 -17.042   7.289  1.00  0.00    -0.338 N 
HETATM   14  H   UNL     1      41.580 -16.559   7.776  1.00  0.00     0.164 HD
ENDROOT
BRANCH   1  15
HETATM   15  C   UNL     1      42.128 -15.859   5.213  1.00  0.00     0.020 A 
HETATM   16  C   UNL     1      43.140 -14.927   5.548  1.00  0.00     0.078 A 
HETATM   17  C   UNL     1      43.125 -13.641   4.995  1.00  0.00     0.039 A 
HETATM   18  C   UNL     1      42.124 -13.271   4.095  1.00  0.00     0.022 A 
HETATM   19  C   UNL     1      41.145 -14.188   3.736  1.00  0.00     0.011 A 
HETATM   20  C   UNL     1      41.146 -15.474   4.277  1.00  0.00     0.033 A 
HETATM   21 BR   UNL     1      39.799 -13.690   2.507  1.00  0.00    -0.051 Br
BRANCH  16  22
HETATM   22  O   UNL     1      44.106 -15.390   6.407  1.00  0.00    -0.355 OA
HETATM   23  C   UNL     1      44.949 -14.419   7.027  1.00  0.00     0.210 C 
ENDBRANCH  16  22
ENDBRANCH   1  15
BRANCH  12  24
HETATM   24  N   UNL     1      43.498 -17.172   9.239  1.00  0.00    -0.272 NA
HETATM   25  H   UNL     1      42.642 -17.444   9.718  1.00  0.00     0.127 HD
HETATM   26  H   UNL     1      44.317 -17.460   9.758  1.00  0.00     0.127 HD
ENDBRANCH  12  24
TORSDOF 3
ENDMDL
MODEL 4
REMARK VINA RESULT:      -7.3      5.742      7.703
REMARK  3 active torsions:
REMARK  status: ('A' for Active; 'I' for Inactive)
REMARK    1  A    between atoms: O_2  and  C_3 
REMARK    2  A    between atoms: C_4  and  C_5 
REMARK    3  A    between atoms: C_16  and  N_17 
ROOT
HETATM    1  C   UNL     1      40.148 -15.100  -0.246  1.00  0.00     0.246 C 
HETATM    2  N   UNL     1      40.735 -15.359   1.051  1.00  0.00    -0.151 N 
HETATM    3  C   UNL     1      40.148 -14.883   2.197  1.00  0.00     0.734 A 
HETATM    4  N   UNL     1      40.873 -15.231   3.238  1.00  0.00    -0.060 NA
HETATM    5  C   UNL     1      41.903 -15.997   2.755  1.00  0.00     0.103 A 
HETATM    6  C   UNL     1      41.829 -16.118   1.371  1.00  0.00     0.083 A 
HETATM    7  C   UNL     1      42.945 -16.629   3.448  1.00  0.00     0.034 A 
HETATM    8  C   UNL     1      43.881 -17.373   2.720  1.00  0.00     0.002 A 
HETATM    9  C   UNL     1      43.780 -17.485   1.331  1.00  0.00     0.002 A 
HETATM   10  C   UNL     1      42.749 -16.858   0.621  1.00  0.00     0.033 A 
HETATM   11  N   UNL     1      38.994 -14.178   2.194  1.00  0.00    -0.033 NA
HETATM   12  C   UNL     1      38.376 -14.008   1.082  1.00  0.00     0.193 C 
HETATM   13  N   UNL     1      38.835 -14.466  -0.153  1.00  0.00    -0.338 N 
HETATM   14  H   UNL     1      38.291 -14.385  -0.998  1.00  0.00     0.164 HD
ENDROOT
BRANCH   1  15
HETATM   15  C   UNL     1      40.994 -14.227  -1.169  1.00  0.00     0.020 A 
HETATM   16  C   UNL     1      41.134 -14.609  -2.525  1.00  0.00     0.078 A 
HETATM   17  C   UNL     1      41.916 -13.841  -3.396  1.00  0.00     0.039 A 
HETATM   18  C   UNL     1      42.549 -12.683  -2.942  1.00  0.00     0.022 A 
HETATM   19  C   UNL     1      42.392 -12.283  -1.621  1.00  0.00     0.011 A 
HETATM   20  C   UNL     1      41.615 -13.036  -0.740  1.00  0.00     0.033 A 
HETATM   21 BR   UNL     1      43.238 -10.708  -1.012  1.00  0.00    -0.051 Br
BRANCH  16  22
HETATM   22  O   UNL     1      40.443 -15.737  -2.894  1.00  0.00    -0.355 OA
HETATM   23  C   UNL     1      39.401 -15.579  -3.855  1.00  0.00     0.210 C 
ENDBRANCH  16  22
ENDBRANCH   1  15
BRANCH  12  24
HETATM   24  N   UNL     1      37.198 -13.359   0.988  1.00  0.00    -0.272 NA
HETATM   25  H   UNL     1      36.974 -12.882   1.859  1.00  0.00     0.127 HD
HETATM   26  H   UNL     1      37.084 -12.744   0.192  1.00  0.00     0.127 HD
ENDBRANCH  12  24
TORSDOF 3
ENDMDL
MODEL 5
REMARK VINA RESULT:      -7.3      6.955      9.081
REMARK  3 active torsions:
REMARK  status: ('A' for Active; 'I' for Inactive)
REMARK    1  A    between atoms: O_2  and  C_3 
REMARK    2  A    between atoms: C_4  and  C_5 
REMARK    3  A    between atoms: C_16  and  N_17 
ROOT
HETATM    1  C   UNL     1      39.948 -13.982  -1.199  1.00  0.00     0.246 C 
HETATM    2  N   UNL     1      40.989 -13.128  -1.729  1.00  0.00    -0.151 N 
HETATM    3  C   UNL     1      41.504 -13.343  -2.984  1.00  0.00     0.734 A 
HETATM    4  N   UNL     1      42.442 -12.454  -3.230  1.00  0.00    -0.060 NA
HETATM    5  C   UNL     1      42.481 -11.618  -2.143  1.00  0.00     0.103 A 
HETATM    6  C   UNL     1      41.551 -12.005  -1.183  1.00  0.00     0.083 A 
HETATM    7  C   UNL     1      43.289 -10.497  -1.909  1.00  0.00     0.034 A 
HETATM    8  C   UNL     1      43.130  -9.794  -0.709  1.00  0.00     0.002 A 
HETATM    9  C   UNL     1      42.184 -10.199   0.237  1.00  0.00     0.002 A 
HETATM   10  C   UNL     1      41.369 -11.318   0.022  1.00  0.00     0.033 A 
HETATM   11  N   UNL     1      41.066 -14.328  -3.799  1.00  0.00    -0.033 NA
HETATM   12  C   UNL     1      40.075 -15.050  -3.421  1.00  0.00     0.193 C 
HETATM   13  N   UNL     1      39.430 -14.921  -2.192  1.00  0.00    -0.338 N 
HETATM   14  H   UNL     1      38.605 -15.450  -1.953  1.00  0.00     0.164 HD
ENDROOT
BRANCH   1  15
HETATM   15  C   UNL     1      40.356 -14.808   0.018  1.00  0.00     0.020 A 
HETATM   16  C   UNL     1      39.556 -14.740   1.184  1.00  0.00     0.078 A 
HETATM   17  C   UNL     1      39.909 -15.470   2.324  1.00  0.00     0.039 A 
HETATM   18  C   UNL     1      41.041 -16.287   2.318  1.00  0.00     0.022 A 
HETATM   19  C   UNL     1      41.814 -16.385   1.168  1.00  0.00     0.011 A 
HETATM   20  C   UNL     1      41.476 -15.664   0.022  1.00  0.00     0.033 A 
HETATM   21 BR   UNL     1      43.338 -17.501   1.156  1.00  0.00    -0.051 Br
BRANCH  16  22
HETATM   22  O   UNL     1      38.439 -13.945   1.087  1.00  0.00    -0.355 OA
HETATM   23  C   UNL     1      38.428 -12.739   1.850  1.00  0.00     0.210 C 
ENDBRANCH  16  22
ENDBRANCH   1  15
BRANCH  12  24
HETATM   24  N   UNL     1      39.541 -16.024  -4.186  1.00  0.00    -0.272 NA
HETATM   25  H   UNL     1      40.234 -16.404  -4.828  1.00  0.00     0.127 HD
HETATM   26  H   UNL     1      39.048 -16.760  -3.698  1.00  0.00     0.127 HD
ENDBRANCH  12  24
TORSDOF 3
ENDMDL
MODEL 6
REMARK VINA RESULT:      -6.9      3.230      6.178
REMARK  3 active torsions:
REMARK  status: ('A' for Active; 'I' for Inactive)
REMARK    1  A    between atoms: O_2  and  C_3 
REMARK    2  A    between atoms: C_4  and  C_5 
REMARK    3  A    between atoms: C_16  and  N_17 
ROOT
HETATM    1  C   UNL     1      41.351 -16.842   4.146  1.00  0.00     0.246 C 
HETATM    2  N   UNL     1      41.855 -15.559   4.585  1.00  0.00    -0.151 N 
HETATM    3  C   UNL     1      41.383 -14.392   4.036  1.00  0.00     0.734 A 
HETATM    4  N   UNL     1      42.003 -13.368   4.582  1.00  0.00    -0.060 NA
HETATM    5  C   UNL     1      42.836 -13.885   5.541  1.00  0.00     0.103 A 
HETATM    6  C   UNL     1      42.746 -15.273   5.585  1.00  0.00     0.083 A 
HETATM    7  C   UNL     1      43.702 -13.222   6.422  1.00  0.00     0.034 A 
HETATM    8  C   UNL     1      44.450 -13.982   7.327  1.00  0.00     0.002 A 
HETATM    9  C   UNL     1      44.336 -15.375   7.356  1.00  0.00     0.002 A 
HETATM   10  C   UNL     1      43.479 -16.056   6.483  1.00  0.00     0.033 A 
HETATM   11  N   UNL     1      40.419 -14.363   3.088  1.00  0.00    -0.033 NA
HETATM   12  C   UNL     1      39.864 -15.465   2.736  1.00  0.00     0.193 C 
HETATM   13  N   UNL     1      40.215 -16.719   3.235  1.00  0.00    -0.338 N 
HETATM   14  H   UNL     1      39.709 -17.559   2.998  1.00  0.00     0.164 HD
ENDROOT
BRANCH   1  15
HETATM   15  C   UNL     1      42.379 -17.730   3.451  1.00  0.00     0.020 A 
HETATM   16  C   UNL     1      42.674 -17.487   2.087  1.00  0.00     0.078 A 
HETATM   17  C   UNL     1      43.599 -18.291   1.413  1.00  0.00     0.039 A 
HETATM   18  C   UNL     1      44.254 -19.328   2.081  1.00  0.00     0.022 A 
HETATM   19  C   UNL     1      43.995 -19.553   3.426  1.00  0.00     0.011 A 
HETATM   20  C   UNL     1      43.076 -18.760   4.114  1.00  0.00     0.033 A 
HETATM   21 BR   UNL     1      44.892 -20.948   4.333  1.00  0.00    -0.051 Br
BRANCH  16  22
HETATM   22  O   UNL     1      42.015 -16.422   1.522  1.00  0.00    -0.355 OA
HETATM   23  C   UNL     1      41.933 -16.386   0.098  1.00  0.00     0.210 C 
ENDBRANCH  16  22
ENDBRANCH   1  15
BRANCH  12  24
HETATM   24  N   UNL     1      38.864 -15.529   1.834  1.00  0.00    -0.272 NA
HETATM   25  H   UNL     1      38.179 -14.794   1.995  1.00  0.00     0.127 HD
HETATM   26  H   UNL     1      39.138 -15.569   0.861  1.00  0.00     0.127 HD
ENDBRANCH  12  24
TORSDOF 3
ENDMDL
MODEL 7
REMARK VINA RESULT:      -6.6      2.443      4.430
REMARK  3 active torsions:
REMARK  status: ('A' for Active; 'I' for Inactive)
REMARK    1  A    between atoms: O_2  and  C_3 
REMARK    2  A    between atoms: C_4  and  C_5 
REMARK    3  A    between atoms: C_16  and  N_17 
ROOT
HETATM    1  C   UNL     1      42.552 -18.378   3.991  1.00  0.00     0.246 C 
HETATM    2  N   UNL     1      42.396 -17.593   2.785  1.00  0.00    -0.151 N 
HETATM    3  C   UNL     1      43.194 -17.819   1.690  1.00  0.00     0.734 A 
HETATM    4  N   UNL     1      42.874 -16.974   0.734  1.00  0.00    -0.060 NA
HETATM    5  C   UNL     1      41.812 -16.242   1.200  1.00  0.00     0.103 A 
HETATM    6  C   UNL     1      41.468 -16.629   2.492  1.00  0.00     0.083 A 
HETATM    7  C   UNL     1      41.085 -15.224   0.568  1.00  0.00     0.034 A 
HETATM    8  C   UNL     1      40.023 -14.629   1.260  1.00  0.00     0.002 A 
HETATM    9  C   UNL     1      39.693 -15.041   2.554  1.00  0.00     0.002 A 
HETATM   10  C   UNL     1      40.410 -16.054   3.203  1.00  0.00     0.033 A 
HETATM   11  N   UNL     1      44.140 -18.784   1.656  1.00  0.00    -0.033 NA
HETATM   12  C   UNL     1      44.251 -19.576   2.660  1.00  0.00     0.193 C 
HETATM   13  N   UNL     1      43.485 -19.489   3.822  1.00  0.00    -0.338 N 
HETATM   14  H   UNL     1      43.541 -20.172   4.561  1.00  0.00     0.164 HD
ENDROOT
BRANCH   1  15
HETATM   15  C   UNL     1      43.021 -17.590   5.210  1.00  0.00     0.020 A 
HETATM   16  C   UNL     1      43.157 -18.268   6.446  1.00  0.00     0.078 A 
HETATM   17  C   UNL     1      43.569 -17.574   7.589  1.00  0.00     0.039 A 
HETATM   18  C   UNL     1      43.867 -16.212   7.520  1.00  0.00     0.022 A 
HETATM   19  C   UNL     1      43.767 -15.545   6.305  1.00  0.00     0.011 A 
HETATM   20  C   UNL     1      43.359 -16.222   5.156  1.00  0.00     0.033 A 
HETATM   21 BR   UNL     1      44.184 -13.705   6.210  1.00  0.00    -0.051 Br
BRANCH  16  22
HETATM   22  O   UNL     1      42.883 -19.614   6.412  1.00  0.00    -0.355 OA
HETATM   23  C   UNL     1      43.670 -20.461   7.248  1.00  0.00     0.210 C 
ENDBRANCH  16  22
ENDBRANCH   1  15
BRANCH  12  24
HETATM   24  N   UNL     1      45.134 -20.595   2.696  1.00  0.00    -0.272 NA
HETATM   25  H   UNL     1      46.067 -20.261   2.929  1.00  0.00     0.127 HD
HETATM   26  H   UNL     1      44.877 -21.393   3.262  1.00  0.00     0.127 HD
ENDBRANCH  12  24
TORSDOF 3
ENDMDL
MODEL 8
REMARK VINA RESULT:      -6.5      7.847      9.823
REMARK  3 active torsions:
REMARK  status: ('A' for Active; 'I' for Inactive)
REMARK    1  A    between atoms: O_2  and  C_3 
REMARK    2  A    between atoms: C_4  and  C_5 
REMARK    3  A    between atoms: C_16  and  N_17 
ROOT
HETATM    1  C   UNL     1      40.585 -13.984  -1.667  1.00  0.00     0.246 C 
HETATM    2  N   UNL     1      41.384 -12.974  -1.005  1.00  0.00    -0.151 N 
HETATM    3  C   UNL     1      41.680 -13.076   0.332  1.00  0.00     0.734 A 
HETATM    4  N   UNL     1      42.397 -12.037   0.702  1.00  0.00    -0.060 NA
HETATM    5  C   UNL     1      42.618 -11.294  -0.430  1.00  0.00     0.103 A 
HETATM    6  C   UNL     1      42.009 -11.877  -1.536  1.00  0.00     0.083 A 
HETATM    7  C   UNL     1      43.340 -10.103  -0.587  1.00  0.00     0.034 A 
HETATM    8  C   UNL     1      43.430  -9.537  -1.864  1.00  0.00     0.002 A 
HETATM    9  C   UNL     1      42.815 -10.146  -2.961  1.00  0.00     0.002 A 
HETATM   10  C   UNL     1      42.087 -11.334  -2.823  1.00  0.00     0.033 A 
HETATM   11  N   UNL     1      41.276 -14.114   1.097  1.00  0.00    -0.033 NA
HETATM   12  C   UNL     1      40.653 -15.088   0.540  1.00  0.00     0.193 C 
HETATM   13  N   UNL     1      40.317 -15.138  -0.812  1.00  0.00    -0.338 N 
HETATM   14  H   UNL     1      39.897 -15.950  -1.238  1.00  0.00     0.164 HD
ENDROOT
BRANCH   1  15
HETATM   15  C   UNL     1      39.235 -13.494  -2.183  1.00  0.00     0.020 A 
HETATM   16  C   UNL     1      38.720 -14.057  -3.376  1.00  0.00     0.078 A 
HETATM   17  C   UNL     1      37.492 -13.621  -3.887  1.00  0.00     0.039 A 
HETATM   18  C   UNL     1      36.756 -12.641  -3.219  1.00  0.00     0.022 A 
HETATM   19  C   UNL     1      37.239 -12.106  -2.031  1.00  0.00     0.011 A 
HETATM   20  C   UNL     1      38.460 -12.530  -1.507  1.00  0.00     0.033 A 
HETATM   21 BR   UNL     1      36.235 -10.790  -1.120  1.00  0.00    -0.051 Br
BRANCH  16  22
HETATM   22  O   UNL     1      39.490 -15.043  -3.943  1.00  0.00    -0.355 OA
HETATM   23  C   UNL     1      38.853 -16.289  -4.223  1.00  0.00     0.210 C 
ENDBRANCH  16  22
ENDBRANCH   1  15
BRANCH  12  24
HETATM   24  N   UNL     1      40.252 -16.186   1.214  1.00  0.00    -0.272 NA
HETATM   25  H   UNL     1      41.050 -16.745   1.507  1.00  0.00     0.127 HD
HETATM   26  H   UNL     1      39.608 -16.034   1.979  1.00  0.00     0.127 HD
ENDBRANCH  12  24
TORSDOF 3
ENDMDL
MODEL 9
REMARK VINA RESULT:      -6.5      3.660      5.979
REMARK  3 active torsions:
REMARK  status: ('A' for Active; 'I' for Inactive)
REMARK    1  A    between atoms: O_2  and  C_3 
REMARK    2  A    between atoms: C_4  and  C_5 
REMARK    3  A    between atoms: C_16  and  N_17 
ROOT
HETATM    1  C   UNL     1      40.876 -14.471   4.158  1.00  0.00     0.246 C 
HETATM    2  N   UNL     1      41.915 -14.529   5.164  1.00  0.00    -0.151 N 
HETATM    3  C   UNL     1      42.683 -13.427   5.446  1.00  0.00     0.734 A 
HETATM    4  N   UNL     1      43.562 -13.733   6.376  1.00  0.00    -0.060 NA
HETATM    5  C   UNL     1      43.308 -15.030   6.741  1.00  0.00     0.103 A 
HETATM    6  C   UNL     1      42.249 -15.556   6.006  1.00  0.00     0.083 A 
HETATM    7  C   UNL     1      43.944 -15.828   7.702  1.00  0.00     0.034 A 
HETATM    8  C   UNL     1      43.486 -17.136   7.898  1.00  0.00     0.002 A 
HETATM    9  C   UNL     1      42.417 -17.638   7.153  1.00  0.00     0.002 A 
HETATM   10  C   UNL     1      41.771 -16.858   6.186  1.00  0.00     0.033 A 
HETATM   11  N   UNL     1      42.510 -12.234   4.835  1.00  0.00    -0.033 NA
HETATM   12  C   UNL     1      41.537 -12.098   4.009  1.00  0.00     0.193 C 
HETATM   13  N   UNL     1      40.655 -13.118   3.655  1.00  0.00    -0.338 N 
HETATM   14  H   UNL     1      39.853 -12.961   3.063  1.00  0.00     0.164 HD
ENDROOT
BRANCH   1  15
HETATM   15  C   UNL     1      41.115 -15.360   2.941  1.00  0.00     0.020 A 
HETATM   16  C   UNL     1      40.068 -15.520   2.001  1.00  0.00     0.078 A 
HETATM   17  C   UNL     1      40.246 -16.341   0.881  1.00  0.00     0.039 A 
HETATM   18  C   UNL     1      41.461 -16.994   0.670  1.00  0.00     0.022 A 
HETATM   19  C   UNL     1      42.505 -16.818   1.569  1.00  0.00     0.011 A 
HETATM   20  C   UNL     1      42.345 -16.003   2.690  1.00  0.00     0.033 A 
HETATM   21 BR   UNL     1      44.154 -17.691   1.274  1.00  0.00    -0.051 Br
BRANCH  16  22
HETATM   22  O   UNL     1      38.923 -14.808   2.267  1.00  0.00    -0.355 OA
HETATM   23  C   UNL     1      38.173 -14.338   1.148  1.00  0.00     0.210 C 
ENDBRANCH  16  22
ENDBRANCH   1  15
BRANCH  12  24
HETATM   24  N   UNL     1      41.259 -10.934   3.388  1.00  0.00    -0.272 NA
HETATM   25  H   UNL     1      40.283 -10.675   3.517  1.00  0.00     0.127 HD
HETATM   26  H   UNL     1      41.875 -10.157   3.589  1.00  0.00     0.127 HD
ENDBRANCH  12  24
TORSDOF 3
ENDMDL
MODEL 10
REMARK VINA RESULT:      -6.4      3.578      5.381
REMARK  3 active torsions:
REMARK  status: ('A' for Active; 'I' for Inactive)
REMARK    1  A    between atoms: O_2  and  C_3 
REMARK    2  A    between atoms: C_4  and  C_5 
REMARK    3  A    between atoms: C_16  and  N_17 
ROOT
HETATM    1  C   UNL     1      42.524 -14.910   2.658  1.00  0.00     0.246 C 
HETATM    2  N   UNL     1      42.517 -16.030   3.574  1.00  0.00    -0.151 N 
HETATM    3  C   UNL     1      41.943 -17.226   3.218  1.00  0.00     0.734 A 
HETATM    4  N   UNL     1      42.047 -18.076   4.217  1.00  0.00    -0.060 NA
HETATM    5  C   UNL     1      42.756 -17.435   5.201  1.00  0.00     0.103 A 
HETATM    6  C   UNL     1      43.092 -16.142   4.812  1.00  0.00     0.083 A 
HETATM    7  C   UNL     1      43.156 -17.903   6.460  1.00  0.00     0.034 A 
HETATM    8  C   UNL     1      43.891 -17.049   7.291  1.00  0.00     0.002 A 
HETATM    9  C   UNL     1      44.222 -15.757   6.874  1.00  0.00     0.002 A 
HETATM   10  C   UNL     1      43.829 -15.271   5.621  1.00  0.00     0.033 A 
HETATM   11  N   UNL     1      41.381 -17.440   2.008  1.00  0.00    -0.033 NA
HETATM   12  C   UNL     1      41.451 -16.515   1.121  1.00  0.00     0.193 C 
HETATM   13  N   UNL     1      42.035 -15.266   1.329  1.00  0.00    -0.338 N 
HETATM   14  H   UNL     1      42.144 -14.588   0.590  1.00  0.00     0.164 HD
ENDROOT
BRANCH   1  15
HETATM   15  C   UNL     1      41.711 -13.703   3.118  1.00  0.00     0.020 A 
HETATM   16  C   UNL     1      41.758 -12.518   2.344  1.00  0.00     0.078 A 
HETATM   17  C   UNL     1      41.038 -11.386   2.744  1.00  0.00     0.039 A 
HETATM   18  C   UNL     1      40.253 -11.420   3.898  1.00  0.00     0.022 A 
HETATM   19  C   UNL     1      40.176 -12.588   4.646  1.00  0.00     0.011 A 
HETATM   20  C   UNL     1      40.886 -13.725   4.261  1.00  0.00     0.033 A 
HETATM   21 BR   UNL     1      39.102 -12.636   6.200  1.00  0.00    -0.051 Br
BRANCH  16  22
HETATM   22  O   UNL     1      42.522 -12.588   1.205  1.00  0.00    -0.355 OA
HETATM   23  C   UNL     1      42.165 -11.725   0.125  1.00  0.00     0.210 C 
ENDBRANCH  16  22
ENDBRANCH   1  15
BRANCH  12  24
HETATM   24  N   UNL     1      40.959 -16.656  -0.127  1.00  0.00    -0.272 NA
HETATM   25  H   UNL     1      39.942 -16.661  -0.120  1.00  0.00     0.127 HD
HETATM   26  H   UNL     1      41.319 -16.020  -0.827  1.00  0.00     0.127 HD
ENDBRANCH  12  24
TORSDOF 3
ENDMDL
