MODEL 1
REMARK VINA RESULT:      -8.4      0.000      0.000
REMARK  9 active torsions:
REMARK  status: ('A' for Active; 'I' for Inactive)
REMARK    1  A    between atoms: C_5  and  C_6 
REMARK    2  A    between atoms: C_8  and  C_9 
REMARK    3  A    between atoms: C_9  and  C_10 
REMARK       I    between atoms: C_10  and  N_11 
REMARK    4  A    between atoms: N_11  and  C_12 
REMARK    5  A    between atoms: C_12  and  C_13 
REMARK    6  A    between atoms: C_13  and  N_14 
REMARK    7  A    between atoms: C_28  and  C_29 
REMARK    8  A    between atoms: C_29  and  O_30 
REMARK    9  A    between atoms: O_30  and  C_31 
ROOT
HETATM    1  C   UNL     1      41.316 -15.140   2.075  1.00  0.00     0.166 C 
HETATM    2  N   UNL     1      39.923 -14.468   2.209  1.00  0.00    -0.319 N 
HETATM    3  C   UNL     1      39.376 -13.404   2.805  1.00  0.00     0.011 C 
HETATM    4  C   UNL     1      39.427 -14.373   0.808  1.00  0.00     0.170 C 
HETATM    5  S   UNL     1      37.769 -13.939   0.693  1.00  0.00    -0.086 SA
HETATM    6  C   UNL     1      38.250 -12.719   1.951  1.00  0.00     0.135 C 
HETATM    7  N   UNL     1      40.296 -14.036  -0.071  1.00  0.00    -0.229 NA
HETATM    8  C   UNL     1      41.656 -13.758   0.352  1.00  0.00     0.048 C 
HETATM    9  C   UNL     1      42.214 -13.261  -0.985  1.00  0.00     0.071 C 
HETATM   10  C   UNL     1      42.254 -13.897   1.632  1.00  0.00     0.069 C 
ENDROOT
BRANCH   3  11
HETATM   11  C   UNL     1      39.920 -12.530   3.935  1.00  0.00     0.156 C 
BRANCH  11  12
HETATM   12  C   UNL     1      39.667 -12.963   5.373  1.00  0.00     0.223 C 
HETATM   13  N   UNL     1      39.430 -11.936   6.265  1.00  0.00    -0.359 N 
HETATM   14  H   UNL     1      39.490 -10.983   5.908  1.00  0.00     0.162 HD
HETATM   15  O   UNL     1      39.670 -14.146   5.703  1.00  0.00    -0.273 OA
BRANCH  13  16
HETATM   16  C   UNL     1      39.408 -11.997   7.739  1.00  0.00     0.150 C 
BRANCH  16  17
HETATM   17  C   UNL     1      39.922 -10.822   8.619  1.00  0.00     0.254 C 
BRANCH  17  18
HETATM   18  N   UNL     1      41.157 -11.133   9.457  1.00  0.00    -0.070 N 
HETATM   19  H   UNL     1      41.287 -12.161   9.363  1.00  0.00     0.279 HD
HETATM   20  C   UNL     1      42.386 -10.468   8.921  1.00  0.00     0.235 C 
HETATM   21  C   UNL     1      43.612 -10.781   9.758  1.00  0.00     0.028 C 
HETATM   22  C   UNL     1      43.408 -10.449  11.222  1.00  0.00     0.003 C 
HETATM   23  C   UNL     1      42.179 -11.178  11.740  1.00  0.00     0.028 C 
HETATM   24  C   UNL     1      40.937 -10.821  10.925  1.00  0.00     0.235 C 
ENDBRANCH  17  18
ENDBRANCH  16  17
ENDBRANCH  13  16
ENDBRANCH  11  12
ENDBRANCH   3  11
BRANCH   1  25
HETATM   25  C   UNL     1      41.923 -16.425   1.085  1.00  0.00    -0.030 C 
HETATM   26  C   UNL     1      43.300 -16.689   0.849  1.00  0.00     0.010 C 
HETATM   27  C   UNL     1      43.932 -17.896   1.307  1.00  0.00     0.007 C 
HETATM   28  C   UNL     1      43.215 -18.877   1.994  1.00  0.00    -0.062 C 
HETATM   29  C   UNL     1      43.866 -20.048   2.692  1.00  0.00     0.048 C 
HETATM   30  C   UNL     1      41.832 -18.757   1.942  1.00  0.00     0.007 C 
HETATM   31  C   UNL     1      41.214 -17.625   1.349  1.00  0.00     0.010 C 
ENDBRANCH   1  25
BRANCH  10  32
HETATM   32  C   UNL     1      42.914 -14.068   3.125  1.00  0.00     0.294 C 
HETATM   33  O   UNL     1      43.899 -13.347   3.429  1.00  0.00    -0.259 OA
BRANCH  32  34
HETATM   34  O   UNL     1      42.413 -14.905   4.050  1.00  0.00    -0.313 OA
BRANCH  34  35
HETATM   35  C   UNL     1      43.252 -15.822   4.931  1.00  0.00     0.124 C 
HETATM   36  C   UNL     1      43.821 -15.312   6.276  1.00  0.00     0.040 C 
HETATM   37  C   UNL     1      42.665 -17.224   5.204  1.00  0.00     0.040 C 
ENDBRANCH  34  35
ENDBRANCH  32  34
ENDBRANCH  10  32
TORSDOF 9
ENDMDL
MODEL 2
REMARK VINA RESULT:      -7.8      1.474      1.882
REMARK  9 active torsions:
REMARK  status: ('A' for Active; 'I' for Inactive)
REMARK    1  A    between atoms: C_5  and  C_6 
REMARK    2  A    between atoms: C_8  and  C_9 
REMARK    3  A    between atoms: C_9  and  C_10 
REMARK       I    between atoms: C_10  and  N_11 
REMARK    4  A    between atoms: N_11  and  C_12 
REMARK    5  A    between atoms: C_12  and  C_13 
REMARK    6  A    between atoms: C_13  and  N_14 
REMARK    7  A    between atoms: C_28  and  C_29 
REMARK    8  A    between atoms: C_29  and  O_30 
REMARK    9  A    between atoms: O_30  and  C_31 
ROOT
HETATM    1  C   UNL     1      40.939 -14.018   2.943  1.00  0.00     0.166 C 
HETATM    2  N   UNL     1      39.860 -12.990   3.379  1.00  0.00    -0.319 N 
HETATM    3  C   UNL     1      39.716 -12.005   4.271  1.00  0.00     0.011 C 
HETATM    4  C   UNL     1      39.411 -12.369   2.102  1.00  0.00     0.170 C 
HETATM    5  S   UNL     1      37.999 -11.404   2.265  1.00  0.00    -0.086 SA
HETATM    6  C   UNL     1      38.882 -10.789   3.731  1.00  0.00     0.135 C 
HETATM    7  N   UNL     1      40.333 -12.112   1.251  1.00  0.00    -0.229 NA
HETATM    8  C   UNL     1      41.711 -12.415   1.590  1.00  0.00     0.048 C 
HETATM    9  C   UNL     1      42.391 -11.791   0.368  1.00  0.00     0.071 C 
HETATM   10  C   UNL     1      42.239 -13.078   2.729  1.00  0.00     0.069 C 
ENDROOT
BRANCH   3  11
HETATM   11  C   UNL     1      40.537 -11.690   5.522  1.00  0.00     0.156 C 
BRANCH  11  12
HETATM   12  C   UNL     1      39.856 -11.787   6.880  1.00  0.00     0.223 C 
HETATM   13  N   UNL     1      40.304 -10.890   7.829  1.00  0.00    -0.359 N 
HETATM   14  H   UNL     1      41.076 -10.278   7.567  1.00  0.00     0.162 HD
HETATM   15  O   UNL     1      38.967 -12.605   7.102  1.00  0.00    -0.273 OA
BRANCH  13  16
HETATM   16  C   UNL     1      40.043 -10.895   9.281  1.00  0.00     0.150 C 
BRANCH  16  17
HETATM   17  C   UNL     1      41.151 -10.553  10.318  1.00  0.00     0.254 C 
BRANCH  17  18
HETATM   18  N   UNL     1      42.399 -11.425  10.242  1.00  0.00    -0.070 N 
HETATM   19  H   UNL     1      42.052 -12.357   9.935  1.00  0.00     0.279 HD
HETATM   20  C   UNL     1      43.367 -10.939   9.208  1.00  0.00     0.235 C 
HETATM   21  C   UNL     1      44.607 -11.809   9.136  1.00  0.00     0.028 C 
HETATM   22  C   UNL     1      45.281 -11.962  10.484  1.00  0.00     0.003 C 
HETATM   23  C   UNL     1      44.280 -12.501  11.493  1.00  0.00     0.028 C 
HETATM   24  C   UNL     1      43.056 -11.594  11.599  1.00  0.00     0.235 C 
ENDBRANCH  17  18
ENDBRANCH  16  17
ENDBRANCH  13  16
ENDBRANCH  11  12
ENDBRANCH   3  11
BRANCH   1  25
HETATM   25  C   UNL     1      41.061 -15.118   1.611  1.00  0.00    -0.030 C 
HETATM   26  C   UNL     1      42.271 -15.467   0.953  1.00  0.00     0.010 C 
HETATM   27  C   UNL     1      42.800 -16.802   0.992  1.00  0.00     0.007 C 
HETATM   28  C   UNL     1      42.138 -17.827   1.669  1.00  0.00    -0.062 C 
HETATM   29  C   UNL     1      42.751 -19.182   1.935  1.00  0.00     0.048 C 
HETATM   30  C   UNL     1      40.824 -17.556   2.032  1.00  0.00     0.007 C 
HETATM   31  C   UNL     1      40.262 -16.266   1.849  1.00  0.00     0.010 C 
ENDBRANCH   1  25
BRANCH  10  32
HETATM   32  C   UNL     1      42.817 -13.846   4.059  1.00  0.00     0.294 C 
HETATM   33  O   UNL     1      43.957 -13.526   4.486  1.00  0.00    -0.259 OA
BRANCH  32  34
HETATM   34  O   UNL     1      42.103 -14.759   4.739  1.00  0.00    -0.313 OA
BRANCH  34  35
HETATM   35  C   UNL     1      42.708 -15.870   5.590  1.00  0.00     0.124 C 
HETATM   36  C   UNL     1      41.834 -16.643   6.606  1.00  0.00     0.040 C 
HETATM   37  C   UNL     1      43.544 -16.925   4.834  1.00  0.00     0.040 C 
ENDBRANCH  34  35
ENDBRANCH  32  34
ENDBRANCH  10  32
TORSDOF 9
ENDMDL
MODEL 3
REMARK VINA RESULT:      -7.7      2.959      7.390
REMARK  9 active torsions:
REMARK  status: ('A' for Active; 'I' for Inactive)
REMARK    1  A    between atoms: C_5  and  C_6 
REMARK    2  A    between atoms: C_8  and  C_9 
REMARK    3  A    between atoms: C_9  and  C_10 
REMARK       I    between atoms: C_10  and  N_11 
REMARK    4  A    between atoms: N_11  and  C_12 
REMARK    5  A    between atoms: C_12  and  C_13 
REMARK    6  A    between atoms: C_13  and  N_14 
REMARK    7  A    between atoms: C_28  and  C_29 
REMARK    8  A    between atoms: C_29  and  O_30 
REMARK    9  A    between atoms: O_30  and  C_31 
ROOT
HETATM    1  C   UNL     1      41.310 -13.114   1.687  1.00  0.00     0.166 C 
HETATM    2  N   UNL     1      41.699 -14.598   1.927  1.00  0.00    -0.319 N 
HETATM    3  C   UNL     1      41.773 -15.463   2.943  1.00  0.00     0.011 C 
HETATM    4  C   UNL     1      40.937 -15.347   0.889  1.00  0.00     0.170 C 
HETATM    5  S   UNL     1      41.418 -16.989   0.735  1.00  0.00    -0.086 SA
HETATM    6  C   UNL     1      41.358 -16.926   2.551  1.00  0.00     0.135 C 
HETATM    7  N   UNL     1      39.736 -14.952   0.684  1.00  0.00    -0.229 NA
HETATM    8  C   UNL     1      39.211 -13.851   1.469  1.00  0.00     0.048 C 
HETATM    9  C   UNL     1      37.760 -13.890   0.978  1.00  0.00     0.071 C 
HETATM   10  C   UNL     1      39.866 -13.017   2.414  1.00  0.00     0.069 C 
ENDROOT
BRANCH   3  11
HETATM   11  C   UNL     1      41.790 -15.203   4.450  1.00  0.00     0.156 C 
BRANCH  11  12
HETATM   12  C   UNL     1      42.025 -16.380   5.386  1.00  0.00     0.223 C 
HETATM   13  N   UNL     1      43.325 -16.843   5.434  1.00  0.00    -0.359 N 
HETATM   14  H   UNL     1      44.003 -16.401   4.814  1.00  0.00     0.162 HD
HETATM   15  O   UNL     1      41.117 -16.871   6.051  1.00  0.00    -0.273 OA
BRANCH  13  16
HETATM   16  C   UNL     1      43.822 -18.100   6.026  1.00  0.00     0.150 C 
BRANCH  16  17
HETATM   17  C   UNL     1      44.861 -18.998   5.296  1.00  0.00     0.254 C 
BRANCH  17  18
HETATM   18  N   UNL     1      44.271 -19.999   4.308  1.00  0.00    -0.070 N 
HETATM   19  H   UNL     1      43.314 -20.191   4.669  1.00  0.00     0.279 HD
HETATM   20  C   UNL     1      44.132 -19.423   2.934  1.00  0.00     0.235 C 
HETATM   21  C   UNL     1      43.545 -20.422   1.955  1.00  0.00     0.028 C 
HETATM   22  C   UNL     1      44.323 -21.722   1.925  1.00  0.00     0.003 C 
HETATM   23  C   UNL     1      44.401 -22.298   3.329  1.00  0.00     0.028 C 
HETATM   24  C   UNL     1      45.039 -21.307   4.301  1.00  0.00     0.235 C 
ENDBRANCH  17  18
ENDBRANCH  16  17
ENDBRANCH  13  16
ENDBRANCH  11  12
ENDBRANCH   3  11
BRANCH   1  25
HETATM   25  C   UNL     1      41.062 -12.168   0.257  1.00  0.00    -0.030 C 
HETATM   26  C   UNL     1      40.806 -10.770   0.241  1.00  0.00     0.010 C 
HETATM   27  C   UNL     1      41.732  -9.835  -0.337  1.00  0.00     0.007 C 
HETATM   28  C   UNL     1      42.923 -10.260  -0.926  1.00  0.00    -0.062 C 
HETATM   29  C   UNL     1      44.029  -9.319  -1.342  1.00  0.00     0.048 C 
HETATM   30  C   UNL     1      43.013 -11.623  -1.183  1.00  0.00     0.007 C 
HETATM   31  C   UNL     1      42.011 -12.523  -0.736  1.00  0.00     0.010 C 
ENDBRANCH   1  25
BRANCH  10  32
HETATM   32  C   UNL     1      40.653 -12.074   3.501  1.00  0.00     0.294 C 
HETATM   33  O   UNL     1      41.908 -12.138   3.551  1.00  0.00    -0.259 OA
BRANCH  32  34
HETATM   34  O   UNL     1      40.017 -11.199   4.300  1.00  0.00    -0.313 OA
BRANCH  34  35
HETATM   35  C   UNL     1      39.392 -11.553   5.645  1.00  0.00     0.124 C 
HETATM   36  C   UNL     1      39.564 -12.970   6.240  1.00  0.00     0.040 C 
HETATM   37  C   UNL     1      39.650 -10.557   6.796  1.00  0.00     0.040 C 
ENDBRANCH  34  35
ENDBRANCH  32  34
ENDBRANCH  10  32
TORSDOF 9
ENDMDL
MODEL 4
REMARK VINA RESULT:      -7.5      3.599      5.884
REMARK  9 active torsions:
REMARK  status: ('A' for Active; 'I' for Inactive)
REMARK    1  A    between atoms: C_5  and  C_6 
REMARK    2  A    between atoms: C_8  and  C_9 
REMARK    3  A    between atoms: C_9  and  C_10 
REMARK       I    between atoms: C_10  and  N_11 
REMARK    4  A    between atoms: N_11  and  C_12 
REMARK    5  A    between atoms: C_12  and  C_13 
REMARK    6  A    between atoms: C_13  and  N_14 
REMARK    7  A    between atoms: C_28  and  C_29 
REMARK    8  A    between atoms: C_29  and  O_30 
REMARK    9  A    between atoms: O_30  and  C_31 
ROOT
HETATM    1  C   UNL     1      40.561 -14.686   1.208  1.00  0.00     0.166 C 
HETATM    2  N   UNL     1      39.523 -14.647   0.054  1.00  0.00    -0.319 N 
HETATM    3  C   UNL     1      38.325 -14.111  -0.199  1.00  0.00     0.011 C 
HETATM    4  C   UNL     1      40.326 -14.283  -1.146  1.00  0.00     0.170 C 
HETATM    5  S   UNL     1      39.473 -14.464  -2.626  1.00  0.00    -0.086 SA
HETATM    6  C   UNL     1      38.153 -13.639  -1.687  1.00  0.00     0.135 C 
HETATM    7  N   UNL     1      41.223 -13.386  -0.967  1.00  0.00    -0.229 NA
HETATM    8  C   UNL     1      41.375 -12.790   0.347  1.00  0.00     0.048 C 
HETATM    9  C   UNL     1      42.408 -11.716  -0.004  1.00  0.00     0.071 C 
HETATM   10  C   UNL     1      40.730 -13.117   1.570  1.00  0.00     0.069 C 
ENDROOT
BRANCH   3  11
HETATM   11  C   UNL     1      37.294 -13.523   0.764  1.00  0.00     0.156 C 
BRANCH  11  12
HETATM   12  C   UNL     1      37.031 -12.024   0.718  1.00  0.00     0.223 C 
HETATM   13  N   UNL     1      35.699 -11.658   0.732  1.00  0.00    -0.359 N 
HETATM   14  H   UNL     1      35.009 -12.408   0.722  1.00  0.00     0.162 HD
HETATM   15  O   UNL     1      37.947 -11.207   0.678  1.00  0.00    -0.273 OA
BRANCH  13  16
HETATM   16  C   UNL     1      35.116 -10.335   0.442  1.00  0.00     0.150 C 
BRANCH  16  17
HETATM   17  C   UNL     1      34.963  -9.244   1.540  1.00  0.00     0.254 C 
BRANCH  17  18
HETATM   18  N   UNL     1      34.256  -9.700   2.811  1.00  0.00    -0.070 N 
HETATM   19  H   UNL     1      34.815 -10.512   3.147  1.00  0.00     0.279 HD
HETATM   20  C   UNL     1      34.285  -8.654   3.882  1.00  0.00     0.235 C 
HETATM   21  C   UNL     1      33.581  -9.113   5.144  1.00  0.00     0.028 C 
HETATM   22  C   UNL     1      32.164  -9.578   4.875  1.00  0.00     0.003 C 
HETATM   23  C   UNL     1      32.182 -10.671   3.819  1.00  0.00     0.028 C 
HETATM   24  C   UNL     1      32.847 -10.188   2.532  1.00  0.00     0.235 C 
ENDBRANCH  17  18
ENDBRANCH  16  17
ENDBRANCH  13  16
ENDBRANCH  11  12
ENDBRANCH   3  11
BRANCH   1  25
HETATM   25  C   UNL     1      42.191 -15.263   1.320  1.00  0.00    -0.030 C 
HETATM   26  C   UNL     1      43.032 -15.108   2.456  1.00  0.00     0.010 C 
HETATM   27  C   UNL     1      43.490 -16.234   3.221  1.00  0.00     0.007 C 
HETATM   28  C   UNL     1      43.140 -17.540   2.875  1.00  0.00    -0.062 C 
HETATM   29  C   UNL     1      43.399 -18.735   3.763  1.00  0.00     0.048 C 
HETATM   30  C   UNL     1      42.592 -17.699   1.608  1.00  0.00     0.007 C 
HETATM   31  C   UNL     1      42.282 -16.578   0.795  1.00  0.00     0.010 C 
ENDBRANCH   1  25
BRANCH  10  32
HETATM   32  C   UNL     1      39.966 -13.518   2.965  1.00  0.00     0.294 C 
HETATM   33  O   UNL     1      39.180 -12.680   3.479  1.00  0.00    -0.259 OA
BRANCH  32  34
HETATM   34  O   UNL     1      40.104 -14.721   3.550  1.00  0.00    -0.313 OA
BRANCH  34  35
HETATM   35  C   UNL     1      40.428 -14.933   5.024  1.00  0.00     0.124 C 
HETATM   36  C   UNL     1      40.743 -16.348   5.562  1.00  0.00     0.040 C 
HETATM   37  C   UNL     1      41.487 -13.985   5.629  1.00  0.00     0.040 C 
ENDBRANCH  34  35
ENDBRANCH  32  34
ENDBRANCH  10  32
TORSDOF 9
ENDMDL
MODEL 5
REMARK VINA RESULT:      -7.5      4.171      8.305
REMARK  9 active torsions:
REMARK  status: ('A' for Active; 'I' for Inactive)
REMARK    1  A    between atoms: C_5  and  C_6 
REMARK    2  A    between atoms: C_8  and  C_9 
REMARK    3  A    between atoms: C_9  and  C_10 
REMARK       I    between atoms: C_10  and  N_11 
REMARK    4  A    between atoms: N_11  and  C_12 
REMARK    5  A    between atoms: C_12  and  C_13 
REMARK    6  A    between atoms: C_13  and  N_14 
REMARK    7  A    between atoms: C_28  and  C_29 
REMARK    8  A    between atoms: C_29  and  O_30 
REMARK    9  A    between atoms: O_30  and  C_31 
ROOT
HETATM    1  C   UNL     1      39.045 -12.959  -0.220  1.00  0.00     0.166 C 
HETATM    2  N   UNL     1      38.955 -13.312   1.290  1.00  0.00    -0.319 N 
HETATM    3  C   UNL     1      39.363 -14.276   2.121  1.00  0.00     0.011 C 
HETATM    4  C   UNL     1      39.368 -12.060   1.982  1.00  0.00     0.170 C 
HETATM    5  S   UNL     1      39.068 -12.078   3.674  1.00  0.00    -0.086 SA
HETATM    6  C   UNL     1      39.780 -13.745   3.538  1.00  0.00     0.135 C 
HETATM    7  N   UNL     1      40.354 -11.431   1.459  1.00  0.00    -0.229 NA
HETATM    8  C   UNL     1      40.992 -11.978   0.276  1.00  0.00     0.048 C 
HETATM    9  C   UNL     1      42.155 -10.988   0.163  1.00  0.00     0.071 C 
HETATM   10  C   UNL     1      40.632 -13.106  -0.509  1.00  0.00     0.069 C 
ENDROOT
BRANCH   3  11
HETATM   11  C   UNL     1      39.867 -15.686   1.810  1.00  0.00     0.156 C 
BRANCH  11  12
HETATM   12  C   UNL     1      41.280 -16.060   2.237  1.00  0.00     0.223 C 
HETATM   13  N   UNL     1      41.363 -16.877   3.347  1.00  0.00    -0.359 N 
HETATM   14  H   UNL     1      40.490 -17.121   3.815  1.00  0.00     0.162 HD
HETATM   15  O   UNL     1      42.268 -15.662   1.626  1.00  0.00    -0.273 OA
BRANCH  13  16
HETATM   16  C   UNL     1      42.556 -17.200   4.152  1.00  0.00     0.150 C 
BRANCH  16  17
HETATM   17  C   UNL     1      43.798 -17.905   3.536  1.00  0.00     0.254 C 
BRANCH  17  18
HETATM   18  N   UNL     1      43.669 -19.414   3.366  1.00  0.00    -0.070 N 
HETATM   19  H   UNL     1      42.813 -19.667   3.903  1.00  0.00     0.279 HD
HETATM   20  C   UNL     1      43.443 -19.806   1.939  1.00  0.00     0.235 C 
HETATM   21  C   UNL     1      43.315 -21.309   1.776  1.00  0.00     0.028 C 
HETATM   22  C   UNL     1      44.495 -22.054   2.366  1.00  0.00     0.003 C 
HETATM   23  C   UNL     1      44.662 -21.664   3.826  1.00  0.00     0.028 C 
HETATM   24  C   UNL     1      44.841 -20.156   3.980  1.00  0.00     0.235 C 
ENDBRANCH  17  18
ENDBRANCH  16  17
ENDBRANCH  13  16
ENDBRANCH  11  12
ENDBRANCH   3  11
BRANCH   1  25
HETATM   25  C   UNL     1      38.636 -11.547  -1.135  1.00  0.00    -0.030 C 
HETATM   26  C   UNL     1      38.914 -11.366  -2.518  1.00  0.00     0.010 C 
HETATM   27  C   UNL     1      37.866 -11.254  -3.494  1.00  0.00     0.007 C 
HETATM   28  C   UNL     1      36.521 -11.304  -3.127  1.00  0.00    -0.062 C 
HETATM   29  C   UNL     1      35.389 -11.420  -4.122  1.00  0.00     0.048 C 
HETATM   30  C   UNL     1      36.263 -11.165  -1.769  1.00  0.00     0.007 C 
HETATM   31  C   UNL     1      37.319 -11.125  -0.821  1.00  0.00     0.010 C 
ENDBRANCH   1  25
BRANCH  10  32
HETATM   32  C   UNL     1      40.189 -14.415  -1.394  1.00  0.00     0.294 C 
HETATM   33  O   UNL     1      41.027 -15.340  -1.552  1.00  0.00    -0.259 OA
BRANCH  32  34
HETATM   34  O   UNL     1      38.956 -14.561  -1.909  1.00  0.00    -0.313 OA
BRANCH  34  35
HETATM   35  C   UNL     1      38.663 -14.951  -3.353  1.00  0.00     0.124 C 
HETATM   36  C   UNL     1      39.248 -16.252  -3.949  1.00  0.00     0.040 C 
HETATM   37  C   UNL     1      37.180 -14.897  -3.783  1.00  0.00     0.040 C 
ENDBRANCH  34  35
ENDBRANCH  32  34
ENDBRANCH  10  32
TORSDOF 9
ENDMDL
MODEL 6
REMARK VINA RESULT:      -7.5      1.558      2.202
REMARK  9 active torsions:
REMARK  status: ('A' for Active; 'I' for Inactive)
REMARK    1  A    between atoms: C_5  and  C_6 
REMARK    2  A    between atoms: C_8  and  C_9 
REMARK    3  A    between atoms: C_9  and  C_10 
REMARK       I    between atoms: C_10  and  N_11 
REMARK    4  A    between atoms: N_11  and  C_12 
REMARK    5  A    between atoms: C_12  and  C_13 
REMARK    6  A    between atoms: C_13  and  N_14 
REMARK    7  A    between atoms: C_28  and  C_29 
REMARK    8  A    between atoms: C_29  and  O_30 
REMARK    9  A    between atoms: O_30  and  C_31 
ROOT
HETATM    1  C   UNL     1      41.423 -15.503   3.494  1.00  0.00     0.166 C 
HETATM    2  N   UNL     1      40.268 -14.528   3.139  1.00  0.00    -0.319 N 
HETATM    3  C   UNL     1      40.082 -13.217   2.958  1.00  0.00     0.011 C 
HETATM    4  C   UNL     1      39.633 -15.137   1.937  1.00  0.00     0.170 C 
HETATM    5  S   UNL     1      38.132 -14.418   1.512  1.00  0.00    -0.086 SA
HETATM    6  C   UNL     1      39.058 -12.883   1.815  1.00  0.00     0.135 C 
HETATM    7  N   UNL     1      40.437 -15.631   1.070  1.00  0.00    -0.229 NA
HETATM    8  C   UNL     1      41.867 -15.544   1.303  1.00  0.00     0.048 C 
HETATM    9  C   UNL     1      42.352 -16.098  -0.040  1.00  0.00     0.071 C 
HETATM   10  C   UNL     1      42.573 -15.068   2.440  1.00  0.00     0.069 C 
ENDROOT
BRANCH   3  11
HETATM   11  C   UNL     1      40.965 -12.039   3.367  1.00  0.00     0.156 C 
BRANCH  11  12
HETATM   12  C   UNL     1      40.633 -11.296   4.654  1.00  0.00     0.223 C 
HETATM   13  N   UNL     1      41.449 -11.585   5.729  1.00  0.00    -0.359 N 
HETATM   14  H   UNL     1      42.166 -12.297   5.594  1.00  0.00     0.162 HD
HETATM   15  O   UNL     1      39.705 -10.494   4.717  1.00  0.00    -0.273 OA
BRANCH  13  16
HETATM   16  C   UNL     1      41.239 -11.243   7.149  1.00  0.00     0.150 C 
BRANCH  16  17
HETATM   17  C   UNL     1      41.898  -9.993   7.800  1.00  0.00     0.254 C 
BRANCH  17  18
HETATM   18  N   UNL     1      41.991 -10.029   9.321  1.00  0.00    -0.070 N 
HETATM   19  H   UNL     1      41.895  -9.035   9.615  1.00  0.00     0.279 HD
HETATM   20  C   UNL     1      40.864 -10.796   9.940  1.00  0.00     0.235 C 
HETATM   21  C   UNL     1      40.962 -10.829  11.454  1.00  0.00     0.028 C 
HETATM   22  C   UNL     1      42.302 -11.349  11.932  1.00  0.00     0.003 C 
HETATM   23  C   UNL     1      43.416 -10.516  11.319  1.00  0.00     0.028 C 
HETATM   24  C   UNL     1      43.344 -10.527   9.794  1.00  0.00     0.235 C 
ENDBRANCH  17  18
ENDBRANCH  16  17
ENDBRANCH  13  16
ENDBRANCH  11  12
ENDBRANCH   3  11
BRANCH   1  25
HETATM   25  C   UNL     1      41.563 -17.229   3.493  1.00  0.00    -0.030 C 
HETATM   26  C   UNL     1      42.630 -17.959   2.901  1.00  0.00     0.010 C 
HETATM   27  C   UNL     1      43.541 -18.743   3.687  1.00  0.00     0.007 C 
HETATM   28  C   UNL     1      43.411 -18.838   5.074  1.00  0.00    -0.062 C 
HETATM   29  C   UNL     1      44.461 -19.454   5.968  1.00  0.00     0.048 C 
HETATM   30  C   UNL     1      42.204 -18.390   5.595  1.00  0.00     0.007 C 
HETATM   31  C   UNL     1      41.242 -17.747   4.774  1.00  0.00     0.010 C 
ENDBRANCH   1  25
BRANCH  10  32
HETATM   32  C   UNL     1      43.357 -14.508   3.767  1.00  0.00     0.294 C 
HETATM   33  O   UNL     1      44.258 -13.644   3.609  1.00  0.00    -0.259 OA
BRANCH  32  34
HETATM   34  O   UNL     1      43.042 -14.895   5.016  1.00  0.00    -0.313 OA
BRANCH  34  35
HETATM   35  C   UNL     1      44.005 -14.876   6.196  1.00  0.00     0.124 C 
HETATM   36  C   UNL     1      44.280 -13.562   6.963  1.00  0.00     0.040 C 
HETATM   37  C   UNL     1      43.793 -15.973   7.262  1.00  0.00     0.040 C 
ENDBRANCH  34  35
ENDBRANCH  32  34
ENDBRANCH  10  32
TORSDOF 9
ENDMDL
MODEL 7
REMARK VINA RESULT:      -7.4      3.169      8.765
REMARK  9 active torsions:
REMARK  status: ('A' for Active; 'I' for Inactive)
REMARK    1  A    between atoms: C_5  and  C_6 
REMARK    2  A    between atoms: C_8  and  C_9 
REMARK    3  A    between atoms: C_9  and  C_10 
REMARK       I    between atoms: C_10  and  N_11 
REMARK    4  A    between atoms: N_11  and  C_12 
REMARK    5  A    between atoms: C_12  and  C_13 
REMARK    6  A    between atoms: C_13  and  N_14 
REMARK    7  A    between atoms: C_28  and  C_29 
REMARK    8  A    between atoms: C_29  and  O_30 
REMARK    9  A    between atoms: O_30  and  C_31 
ROOT
HETATM    1  C   UNL     1      41.783 -14.631   4.720  1.00  0.00     0.166 C 
HETATM    2  N   UNL     1      42.104 -16.150   4.691  1.00  0.00    -0.319 N 
HETATM    3  C   UNL     1      42.680 -17.038   3.874  1.00  0.00     0.011 C 
HETATM    4  C   UNL     1      42.762 -16.409   6.002  1.00  0.00     0.170 C 
HETATM    5  S   UNL     1      42.951 -18.079   6.358  1.00  0.00    -0.086 SA
HETATM    6  C   UNL     1      43.508 -18.138   4.629  1.00  0.00     0.135 C 
HETATM    7  N   UNL     1      43.590 -15.516   6.397  1.00  0.00    -0.229 NA
HETATM    8  C   UNL     1      43.839 -14.361   5.556  1.00  0.00     0.048 C 
HETATM    9  C   UNL     1      44.973 -13.726   6.366  1.00  0.00     0.071 C 
HETATM   10  C   UNL     1      43.213 -13.973   4.341  1.00  0.00     0.069 C 
ENDROOT
BRANCH   3  11
HETATM   11  C   UNL     1      43.002 -16.929   2.383  1.00  0.00     0.156 C 
BRANCH  11  12
HETATM   12  C   UNL     1      41.848 -16.775   1.402  1.00  0.00     0.223 C 
HETATM   13  N   UNL     1      41.986 -15.750   0.486  1.00  0.00    -0.359 N 
HETATM   14  H   UNL     1      42.810 -15.156   0.569  1.00  0.00     0.162 HD
HETATM   15  O   UNL     1      40.872 -17.519   1.428  1.00  0.00    -0.273 OA
BRANCH  13  16
HETATM   16  C   UNL     1      40.957 -15.183  -0.407  1.00  0.00     0.150 C 
BRANCH  16  17
HETATM   17  C   UNL     1      41.326 -14.487  -1.748  1.00  0.00     0.254 C 
BRANCH  17  18
HETATM   18  N   UNL     1      40.242 -14.531  -2.820  1.00  0.00    -0.070 N 
HETATM   19  H   UNL     1      40.645 -14.005  -3.623  1.00  0.00     0.279 HD
HETATM   20  C   UNL     1      39.963 -15.927  -3.286  1.00  0.00     0.235 C 
HETATM   21  C   UNL     1      38.885 -15.965  -4.352  1.00  0.00     0.028 C 
HETATM   22  C   UNL     1      37.612 -15.274  -3.907  1.00  0.00     0.003 C 
HETATM   23  C   UNL     1      37.930 -13.848  -3.487  1.00  0.00     0.028 C 
HETATM   24  C   UNL     1      38.979 -13.817  -2.378  1.00  0.00     0.235 C 
ENDBRANCH  17  18
ENDBRANCH  16  17
ENDBRANCH  13  16
ENDBRANCH  11  12
ENDBRANCH   3  11
BRANCH   1  25
HETATM   25  C   UNL     1      41.207 -13.564   5.956  1.00  0.00    -0.030 C 
HETATM   26  C   UNL     1      41.708 -12.256   6.201  1.00  0.00     0.010 C 
HETATM   27  C   UNL     1      40.900 -11.084   6.009  1.00  0.00     0.007 C 
HETATM   28  C   UNL     1      39.574 -11.176   5.586  1.00  0.00    -0.062 C 
HETATM   29  C   UNL     1      38.753  -9.984   5.152  1.00  0.00     0.048 C 
HETATM   30  C   UNL     1      39.008 -12.443   5.654  1.00  0.00     0.007 C 
HETATM   31  C   UNL     1      39.788 -13.579   5.994  1.00  0.00     0.010 C 
ENDBRANCH   1  25
BRANCH  10  32
HETATM   32  C   UNL     1      42.471 -13.554   2.939  1.00  0.00     0.294 C 
HETATM   33  O   UNL     1      43.187 -13.312   1.933  1.00  0.00    -0.259 OA
BRANCH  32  34
HETATM   34  O   UNL     1      41.134 -13.511   2.809  1.00  0.00    -0.313 OA
BRANCH  34  35
HETATM   35  C   UNL     1      40.377 -12.458   2.008  1.00  0.00     0.124 C 
HETATM   36  C   UNL     1      38.830 -12.447   1.992  1.00  0.00     0.040 C 
HETATM   37  C   UNL     1      40.826 -10.995   2.216  1.00  0.00     0.040 C 
ENDBRANCH  34  35
ENDBRANCH  32  34
ENDBRANCH  10  32
TORSDOF 9
ENDMDL
MODEL 8
REMARK VINA RESULT:      -7.4      3.360      7.462
REMARK  9 active torsions:
REMARK  status: ('A' for Active; 'I' for Inactive)
REMARK    1  A    between atoms: C_5  and  C_6 
REMARK    2  A    between atoms: C_8  and  C_9 
REMARK    3  A    between atoms: C_9  and  C_10 
REMARK       I    between atoms: C_10  and  N_11 
REMARK    4  A    between atoms: N_11  and  C_12 
REMARK    5  A    between atoms: C_12  and  C_13 
REMARK    6  A    between atoms: C_13  and  N_14 
REMARK    7  A    between atoms: C_28  and  C_29 
REMARK    8  A    between atoms: C_29  and  O_30 
REMARK    9  A    between atoms: O_30  and  C_31 
ROOT
HETATM    1  C   UNL     1      41.161 -14.086   3.997  1.00  0.00     0.166 C 
HETATM    2  N   UNL     1      40.854 -15.559   4.380  1.00  0.00    -0.319 N 
HETATM    3  C   UNL     1      41.102 -16.788   3.918  1.00  0.00     0.011 C 
HETATM    4  C   UNL     1      41.229 -15.647   5.819  1.00  0.00     0.170 C 
HETATM    5  S   UNL     1      40.706 -17.096   6.579  1.00  0.00    -0.086 SA
HETATM    6  C   UNL     1      41.352 -17.844   5.053  1.00  0.00     0.135 C 
HETATM    7  N   UNL     1      42.304 -15.036   6.154  1.00  0.00    -0.229 NA
HETATM    8  C   UNL     1      43.068 -14.340   5.135  1.00  0.00     0.048 C 
HETATM    9  C   UNL     1      44.280 -13.947   5.984  1.00  0.00     0.071 C 
HETATM   10  C   UNL     1      42.763 -14.120   3.765  1.00  0.00     0.069 C 
ENDROOT
BRANCH   3  11
HETATM   11  C   UNL     1      41.578 -17.235   2.535  1.00  0.00     0.156 C 
BRANCH  11  12
HETATM   12  C   UNL     1      42.939 -17.907   2.419  1.00  0.00     0.223 C 
HETATM   13  N   UNL     1      42.914 -19.288   2.393  1.00  0.00    -0.359 N 
HETATM   14  H   UNL     1      42.008 -19.741   2.501  1.00  0.00     0.162 HD
HETATM   15  O   UNL     1      43.978 -17.257   2.349  1.00  0.00    -0.273 OA
BRANCH  13  16
HETATM   16  C   UNL     1      44.047 -20.221   2.547  1.00  0.00     0.150 C 
BRANCH  16  17
HETATM   17  C   UNL     1      44.969 -20.196   3.798  1.00  0.00     0.254 C 
BRANCH  17  18
HETATM   18  N   UNL     1      44.348 -19.583   5.048  1.00  0.00    -0.070 N 
HETATM   19  H   UNL     1      43.420 -19.231   4.736  1.00  0.00     0.279 HD
HETATM   20  C   UNL     1      44.111 -20.601   6.120  1.00  0.00     0.235 C 
HETATM   21  C   UNL     1      43.492 -19.986   7.362  1.00  0.00     0.028 C 
HETATM   22  C   UNL     1      44.302 -18.819   7.888  1.00  0.00     0.003 C 
HETATM   23  C   UNL     1      44.480 -17.788   6.786  1.00  0.00     0.028 C 
HETATM   24  C   UNL     1      45.149 -18.399   5.557  1.00  0.00     0.235 C 
ENDBRANCH  17  18
ENDBRANCH  16  17
ENDBRANCH  13  16
ENDBRANCH  11  12
ENDBRANCH   3  11
BRANCH   1  25
HETATM   25  C   UNL     1      40.943 -12.576   4.816  1.00  0.00    -0.030 C 
HETATM   26  C   UNL     1      41.278 -11.303   4.279  1.00  0.00     0.010 C 
HETATM   27  C   UNL     1      40.278 -10.312   3.994  1.00  0.00     0.007 C 
HETATM   28  C   UNL     1      38.926 -10.548   4.246  1.00  0.00    -0.062 C 
HETATM   29  C   UNL     1      37.817  -9.643   3.761  1.00  0.00     0.048 C 
HETATM   30  C   UNL     1      38.649 -11.648   5.049  1.00  0.00     0.007 C 
HETATM   31  C   UNL     1      39.675 -12.541   5.452  1.00  0.00     0.010 C 
ENDBRANCH   1  25
BRANCH  10  32
HETATM   32  C   UNL     1      42.381 -13.886   2.187  1.00  0.00     0.294 C 
HETATM   33  O   UNL     1      42.824 -12.859   1.611  1.00  0.00    -0.259 OA
BRANCH  32  34
HETATM   34  O   UNL     1      41.663 -14.771   1.473  1.00  0.00    -0.313 OA
BRANCH  34  35
HETATM   35  C   UNL     1      41.239 -14.571   0.023  1.00  0.00     0.124 C 
HETATM   36  C   UNL     1      41.246 -15.759  -0.967  1.00  0.00     0.040 C 
HETATM   37  C   UNL     1      39.908 -13.820  -0.198  1.00  0.00     0.040 C 
ENDBRANCH  34  35
ENDBRANCH  32  34
ENDBRANCH  10  32
TORSDOF 9
ENDMDL
MODEL 9
REMARK VINA RESULT:      -7.4      3.417      6.722
REMARK  9 active torsions:
REMARK  status: ('A' for Active; 'I' for Inactive)
REMARK    1  A    between atoms: C_5  and  C_6 
REMARK    2  A    between atoms: C_8  and  C_9 
REMARK    3  A    between atoms: C_9  and  C_10 
REMARK       I    between atoms: C_10  and  N_11 
REMARK    4  A    between atoms: N_11  and  C_12 
REMARK    5  A    between atoms: C_12  and  C_13 
REMARK    6  A    between atoms: C_13  and  N_14 
REMARK    7  A    between atoms: C_28  and  C_29 
REMARK    8  A    between atoms: C_29  and  O_30 
REMARK    9  A    between atoms: O_30  and  C_31 
ROOT
HETATM    1  C   UNL     1      41.227 -12.760  -0.224  1.00  0.00     0.166 C 
HETATM    2  N   UNL     1      41.724 -13.952   0.639  1.00  0.00    -0.319 N 
HETATM    3  C   UNL     1      42.063 -14.197   1.909  1.00  0.00     0.011 C 
HETATM    4  C   UNL     1      40.782 -15.058   0.312  1.00  0.00     0.170 C 
HETATM    5  S   UNL     1      41.287 -16.589   0.904  1.00  0.00    -0.086 SA
HETATM    6  C   UNL     1      41.633 -15.624   2.405  1.00  0.00     0.135 C 
HETATM    7  N   UNL     1      39.550 -14.728   0.200  1.00  0.00    -0.229 NA
HETATM    8  C   UNL     1      39.167 -13.345   0.417  1.00  0.00     0.048 C 
HETATM    9  C   UNL     1      37.646 -13.512   0.338  1.00  0.00     0.071 C 
HETATM   10  C   UNL     1      39.981 -12.204   0.647  1.00  0.00     0.069 C 
ENDROOT
BRANCH   3  11
HETATM   11  C   UNL     1      42.405 -13.222   3.035  1.00  0.00     0.156 C 
BRANCH  11  12
HETATM   12  C   UNL     1      43.478 -13.622   4.039  1.00  0.00     0.223 C 
HETATM   13  N   UNL     1      43.027 -13.853   5.324  1.00  0.00    -0.359 N 
HETATM   14  H   UNL     1      42.038 -13.692   5.507  1.00  0.00     0.162 HD
HETATM   15  O   UNL     1      44.658 -13.735   3.716  1.00  0.00    -0.273 OA
BRANCH  13  16
HETATM   16  C   UNL     1      43.825 -13.997   6.556  1.00  0.00     0.150 C 
BRANCH  16  17
HETATM   17  C   UNL     1      44.131 -15.389   7.179  1.00  0.00     0.254 C 
BRANCH  17  18
HETATM   18  N   UNL     1      44.008 -16.569   6.221  1.00  0.00    -0.070 N 
HETATM   19  H   UNL     1      44.214 -16.168   5.283  1.00  0.00     0.279 HD
HETATM   20  C   UNL     1      45.027 -17.630   6.497  1.00  0.00     0.235 C 
HETATM   21  C   UNL     1      44.900 -18.802   5.541  1.00  0.00     0.028 C 
HETATM   22  C   UNL     1      43.500 -19.381   5.524  1.00  0.00     0.003 C 
HETATM   23  C   UNL     1      42.502 -18.283   5.195  1.00  0.00     0.028 C 
HETATM   24  C   UNL     1      42.598 -17.129   6.190  1.00  0.00     0.235 C 
ENDBRANCH  17  18
ENDBRANCH  16  17
ENDBRANCH  13  16
ENDBRANCH  11  12
ENDBRANCH   3  11
BRANCH   1  25
HETATM   25  C   UNL     1      40.623 -12.638  -1.843  1.00  0.00    -0.030 C 
HETATM   26  C   UNL     1      39.960 -11.501  -2.380  1.00  0.00     0.010 C 
HETATM   27  C   UNL     1      40.528 -10.726  -3.448  1.00  0.00     0.007 C 
HETATM   28  C   UNL     1      41.755 -11.063  -4.020  1.00  0.00    -0.062 C 
HETATM   29  C   UNL     1      42.502 -10.165  -4.979  1.00  0.00     0.048 C 
HETATM   30  C   UNL     1      42.233 -12.331  -3.712  1.00  0.00     0.007 C 
HETATM   31  C   UNL     1      41.575 -13.153  -2.761  1.00  0.00     0.010 C 
ENDBRANCH   1  25
BRANCH  10  32
HETATM   32  C   UNL     1      40.950 -10.907   0.913  1.00  0.00     0.294 C 
HETATM   33  O   UNL     1      40.537 -10.000   1.681  1.00  0.00    -0.259 OA
BRANCH  32  34
HETATM   34  O   UNL     1      42.183 -10.801   0.389  1.00  0.00    -0.313 OA
BRANCH  34  35
HETATM   35  C   UNL     1      42.725  -9.555  -0.301  1.00  0.00     0.124 C 
HETATM   36  C   UNL     1      43.815  -9.674  -1.392  1.00  0.00     0.040 C 
HETATM   37  C   UNL     1      41.669  -8.565  -0.840  1.00  0.00     0.040 C 
ENDBRANCH  34  35
ENDBRANCH  32  34
ENDBRANCH  10  32
TORSDOF 9
ENDMDL
MODEL 10
REMARK VINA RESULT:      -7.4      3.389      5.512
REMARK  9 active torsions:
REMARK  status: ('A' for Active; 'I' for Inactive)
REMARK    1  A    between atoms: C_5  and  C_6 
REMARK    2  A    between atoms: C_8  and  C_9 
REMARK    3  A    between atoms: C_9  and  C_10 
REMARK       I    between atoms: C_10  and  N_11 
REMARK    4  A    between atoms: N_11  and  C_12 
REMARK    5  A    between atoms: C_12  and  C_13 
REMARK    6  A    between atoms: C_13  and  N_14 
REMARK    7  A    between atoms: C_28  and  C_29 
REMARK    8  A    between atoms: C_29  and  O_30 
REMARK    9  A    between atoms: O_30  and  C_31 
ROOT
HETATM    1  C   UNL     1      40.508 -12.975   0.598  1.00  0.00     0.166 C 
HETATM    2  N   UNL     1      39.448 -12.435   1.597  1.00  0.00    -0.319 N 
HETATM    3  C   UNL     1      39.311 -12.256   2.914  1.00  0.00     0.011 C 
HETATM    4  C   UNL     1      39.046 -11.120   1.025  1.00  0.00     0.170 C 
HETATM    5  S   UNL     1      37.658 -10.439   1.774  1.00  0.00    -0.086 SA
HETATM    6  C   UNL     1      38.524 -10.950   3.289  1.00  0.00     0.135 C 
HETATM    7  N   UNL     1      39.994 -10.407   0.541  1.00  0.00    -0.229 NA
HETATM    8  C   UNL     1      41.355 -10.906   0.602  1.00  0.00     0.048 C 
HETATM    9  C   UNL     1      42.080  -9.665   0.074  1.00  0.00     0.071 C 
HETATM   10  C   UNL     1      41.839 -12.167   1.042  1.00  0.00     0.069 C 
ENDROOT
BRANCH   3  11
HETATM   11  C   UNL     1      40.113 -12.854   4.070  1.00  0.00     0.156 C 
BRANCH  11  12
HETATM   12  C   UNL     1      40.004 -14.350   4.330  1.00  0.00     0.223 C 
HETATM   13  N   UNL     1      40.418 -14.763   5.581  1.00  0.00    -0.359 N 
HETATM   14  H   UNL     1      40.803 -14.054   6.204  1.00  0.00     0.162 HD
HETATM   15  O   UNL     1      39.572 -15.125   3.480  1.00  0.00    -0.273 OA
BRANCH  13  16
HETATM   16  C   UNL     1      40.680 -16.139   6.045  1.00  0.00     0.150 C 
BRANCH  16  17
HETATM   17  C   UNL     1      42.070 -16.573   6.591  1.00  0.00     0.254 C 
BRANCH  17  18
HETATM   18  N   UNL     1      42.601 -17.890   6.036  1.00  0.00    -0.070 N 
HETATM   19  H   UNL     1      41.748 -18.432   5.784  1.00  0.00     0.279 HD
HETATM   20  C   UNL     1      43.403 -17.697   4.787  1.00  0.00     0.235 C 
HETATM   21  C   UNL     1      43.928 -19.011   4.240  1.00  0.00     0.028 C 
HETATM   22  C   UNL     1      44.711 -19.792   5.275  1.00  0.00     0.003 C 
HETATM   23  C   UNL     1      43.848 -20.008   6.507  1.00  0.00     0.028 C 
HETATM   24  C   UNL     1      43.363 -18.680   7.084  1.00  0.00     0.235 C 
ENDBRANCH  17  18
ENDBRANCH  16  17
ENDBRANCH  13  16
ENDBRANCH  11  12
ENDBRANCH   3  11
BRANCH   1  25
HETATM   25  C   UNL     1      40.629 -12.956  -1.129  1.00  0.00    -0.030 C 
HETATM   26  C   UNL     1      41.595 -13.676  -1.885  1.00  0.00     0.010 C 
HETATM   27  C   UNL     1      41.222 -14.736  -2.780  1.00  0.00     0.007 C 
HETATM   28  C   UNL     1      39.888 -15.100  -2.961  1.00  0.00    -0.062 C 
HETATM   29  C   UNL     1      39.457 -16.343  -3.706  1.00  0.00     0.048 C 
HETATM   30  C   UNL     1      38.948 -14.201  -2.472  1.00  0.00     0.007 C 
HETATM   31  C   UNL     1      39.341 -13.069  -1.713  1.00  0.00     0.010 C 
ENDBRANCH   1  25
BRANCH  10  32
HETATM   32  C   UNL     1      42.365 -13.633   1.559  1.00  0.00     0.294 C 
HETATM   33  O   UNL     1      43.116 -13.676   2.568  1.00  0.00    -0.259 OA
BRANCH  32  34
HETATM   34  O   UNL     1      41.984 -14.787   0.984  1.00  0.00    -0.313 OA
BRANCH  34  35
HETATM   35  C   UNL     1      42.242 -16.170   1.569  1.00  0.00     0.124 C 
HETATM   36  C   UNL     1      41.175 -17.283   1.449  1.00  0.00     0.040 C 
HETATM   37  C   UNL     1      43.597 -16.818   1.208  1.00  0.00     0.040 C 
ENDBRANCH  34  35
ENDBRANCH  32  34
ENDBRANCH  10  32
TORSDOF 9
ENDMDL
