MODEL 1
REMARK VINA RESULT:      -8.0      0.000      0.000
REMARK  7 active torsions:
REMARK  status: ('A' for Active; 'I' for Inactive)
REMARK    1  A    between atoms: C_7  and  C_8 
REMARK       I    between atoms: C_8  and  N_9 
REMARK    2  A    between atoms: N_9  and  C_10 
REMARK    3  A    between atoms: C_10  and  C_11 
REMARK    4  A    between atoms: C_11  and  O_12 
REMARK    5  A    between atoms: C_11  and  C_13 
REMARK    6  A    between atoms: C_15  and  O_16 
REMARK    7  A    between atoms: O_16  and  C_17 
ROOT
HETATM    1  C   UNL     1      43.378 -17.493   5.213  1.00  0.00     0.253 C 
HETATM    2  N   UNL     1      42.064 -17.160   5.412  1.00  0.00    -0.354 N 
HETATM    3  O   UNL     1      44.312 -16.976   5.818  1.00  0.00    -0.268 OA
HETATM    4  H   UNL     1      41.326 -17.762   5.072  1.00  0.00     0.162 HD
ENDROOT
BRANCH   2   5
HETATM    5  C   UNL     1      41.663 -16.185   6.417  1.00  0.00     0.159 C 
BRANCH   5   6
HETATM    6  C   UNL     1      40.929 -14.977   5.805  1.00  0.00     0.169 C 
BRANCH   6   7
HETATM    7  O   UNL     1      39.520 -15.238   5.777  1.00  0.00    -0.389 OA
HETATM    8  H   UNL     1      39.095 -14.415   5.478  1.00  0.00     0.210 HD
ENDBRANCH   6   7
BRANCH   6   9
HETATM    9  C   UNL     1      41.437 -14.615   4.421  1.00  0.00    -0.025 A 
HETATM   10  C   UNL     1      40.815 -15.167   3.286  1.00  0.00     0.046 A 
HETATM   11  C   UNL     1      41.239 -14.824   1.999  1.00  0.00     0.075 A 
HETATM   12  C   UNL     1      42.277 -13.903   1.845  1.00  0.00     0.037 A 
HETATM   13  C   UNL     1      42.902 -13.345   2.959  1.00  0.00     0.003 A 
HETATM   14  C   UNL     1      42.484 -13.699   4.241  1.00  0.00     0.010 A 
BRANCH  11  15
HETATM   15  O   UNL     1      40.705 -15.283   0.829  1.00  0.00    -0.290 OA
BRANCH  15  16
HETATM   16  C   UNL     1      41.414 -16.320   0.174  1.00  0.00     0.505 C 
HETATM   17  F   UNL     1      40.963 -17.521   0.614  1.00  0.00    -0.184 F 
HETATM   18  F   UNL     1      41.110 -16.251  -1.146  1.00  0.00    -0.184 F 
ENDBRANCH  15  16
ENDBRANCH  11  15
ENDBRANCH   6   9
ENDBRANCH   5   6
ENDBRANCH   2   5
BRANCH   1  19
HETATM   19  C   UNL     1      43.614 -18.602   4.236  1.00  0.00     0.048 A 
HETATM   20  C   UNL     1      43.276 -18.406   2.824  1.00  0.00     0.022 A 
HETATM   21  C   UNL     1      43.451 -19.378   1.910  1.00  0.00     0.054 A 
HETATM   22  C   UNL     1      43.972 -20.634   2.317  1.00  0.00     0.157 A 
HETATM   23  N   UNL     1      44.257 -20.806   3.665  1.00  0.00    -0.291 N 
HETATM   24  N   UNL     1      44.252 -21.738   1.664  1.00  0.00    -0.130 NA
HETATM   25  C   UNL     1      44.731 -22.097   3.764  1.00  0.00     0.130 A 
HETATM   26  C   UNL     1      44.075 -19.810   4.623  1.00  0.00     0.117 A 
HETATM   27  C   UNL     1      45.166 -22.740   5.024  1.00  0.00     0.094 C 
HETATM   28  N   UNL     1      44.728 -22.656   2.570  1.00  0.00    -0.135 NA
ENDBRANCH   1  19
TORSDOF 7
ENDMDL
MODEL 2
REMARK VINA RESULT:      -7.9      5.431      9.074
REMARK  7 active torsions:
REMARK  status: ('A' for Active; 'I' for Inactive)
REMARK    1  A    between atoms: C_7  and  C_8 
REMARK       I    between atoms: C_8  and  N_9 
REMARK    2  A    between atoms: N_9  and  C_10 
REMARK    3  A    between atoms: C_10  and  C_11 
REMARK    4  A    between atoms: C_11  and  O_12 
REMARK    5  A    between atoms: C_11  and  C_13 
REMARK    6  A    between atoms: C_15  and  O_16 
REMARK    7  A    between atoms: O_16  and  C_17 
ROOT
HETATM    1  C   UNL     1      45.056 -12.572   8.467  1.00  0.00     0.253 C 
HETATM    2  N   UNL     1      44.252 -13.516   7.883  1.00  0.00    -0.354 N 
HETATM    3  O   UNL     1      46.259 -12.473   8.251  1.00  0.00    -0.268 OA
HETATM    4  H   UNL     1      43.246 -13.416   7.906  1.00  0.00     0.162 HD
ENDROOT
BRANCH   2   5
HETATM    5  C   UNL     1      44.766 -14.459   6.899  1.00  0.00     0.159 C 
BRANCH   5   6
HETATM    6  C   UNL     1      43.652 -15.052   6.017  1.00  0.00     0.169 C 
BRANCH   6   7
HETATM    7  O   UNL     1      42.378 -14.803   6.624  1.00  0.00    -0.389 OA
HETATM    8  H   UNL     1      41.790 -14.495   5.911  1.00  0.00     0.210 HD
ENDBRANCH   6   7
BRANCH   6   9
HETATM    9  C   UNL     1      43.837 -16.534   5.745  1.00  0.00    -0.025 A 
HETATM   10  C   UNL     1      43.290 -17.101   4.580  1.00  0.00     0.046 A 
HETATM   11  C   UNL     1      43.474 -18.456   4.287  1.00  0.00     0.075 A 
HETATM   12  C   UNL     1      44.234 -19.244   5.154  1.00  0.00     0.037 A 
HETATM   13  C   UNL     1      44.786 -18.697   6.311  1.00  0.00     0.003 A 
HETATM   14  C   UNL     1      44.589 -17.349   6.605  1.00  0.00     0.010 A 
BRANCH  11  15
HETATM   15  O   UNL     1      43.004 -19.111   3.185  1.00  0.00    -0.290 OA
BRANCH  15  16
HETATM   16  C   UNL     1      43.950 -19.405   2.172  1.00  0.00     0.505 C 
HETATM   17  F   UNL     1      43.532 -20.483   1.465  1.00  0.00    -0.184 F 
HETATM   18  F   UNL     1      43.963 -18.356   1.311  1.00  0.00    -0.184 F 
ENDBRANCH  15  16
ENDBRANCH  11  15
ENDBRANCH   6   9
ENDBRANCH   5   6
ENDBRANCH   2   5
BRANCH   1  19
HETATM   19  C   UNL     1      44.350 -11.597   9.358  1.00  0.00     0.048 A 
HETATM   20  C   UNL     1      44.857 -11.357  10.711  1.00  0.00     0.022 A 
HETATM   21  C   UNL     1      44.249 -10.505  11.557  1.00  0.00     0.054 A 
HETATM   22  C   UNL     1      43.078  -9.820  11.136  1.00  0.00     0.157 A 
HETATM   23  N   UNL     1      42.602 -10.086   9.860  1.00  0.00    -0.291 N 
HETATM   24  N   UNL     1      42.297  -8.945  11.725  1.00  0.00    -0.130 NA
HETATM   25  C   UNL     1      41.475  -9.300   9.733  1.00  0.00     0.130 A 
HETATM   26  C   UNL     1      43.218 -10.970   8.976  1.00  0.00     0.117 A 
HETATM   27  C   UNL     1      40.617  -9.247   8.528  1.00  0.00     0.094 C 
HETATM   28  N   UNL     1      41.291  -8.619  10.846  1.00  0.00    -0.135 NA
ENDBRANCH   1  19
TORSDOF 7
ENDMDL
MODEL 3
REMARK VINA RESULT:      -7.9      2.655      3.989
REMARK  7 active torsions:
REMARK  status: ('A' for Active; 'I' for Inactive)
REMARK    1  A    between atoms: C_7  and  C_8 
REMARK       I    between atoms: C_8  and  N_9 
REMARK    2  A    between atoms: N_9  and  C_10 
REMARK    3  A    between atoms: C_10  and  C_11 
REMARK    4  A    between atoms: C_11  and  O_12 
REMARK    5  A    between atoms: C_11  and  C_13 
REMARK    6  A    between atoms: C_15  and  O_16 
REMARK    7  A    between atoms: O_16  and  C_17 
ROOT
HETATM    1  C   UNL     1      43.258 -16.857   3.565  1.00  0.00     0.253 C 
HETATM    2  N   UNL     1      42.650 -16.798   2.338  1.00  0.00    -0.354 N 
HETATM    3  O   UNL     1      43.401 -15.887   4.302  1.00  0.00    -0.268 OA
HETATM    4  H   UNL     1      42.349 -17.646   1.875  1.00  0.00     0.162 HD
ENDROOT
BRANCH   2   5
HETATM    5  C   UNL     1      42.065 -15.565   1.830  1.00  0.00     0.159 C 
BRANCH   5   6
HETATM    6  C   UNL     1      40.962 -15.825   0.786  1.00  0.00     0.169 C 
BRANCH   6   7
HETATM    7  O   UNL     1      40.838 -17.235   0.563  1.00  0.00    -0.389 OA
HETATM    8  H   UNL     1      40.928 -17.369  -0.398  1.00  0.00     0.210 HD
ENDBRANCH   6   7
BRANCH   6   9
HETATM    9  C   UNL     1      41.199 -15.092  -0.522  1.00  0.00    -0.025 A 
HETATM   10  C   UNL     1      40.654 -15.603  -1.714  1.00  0.00     0.046 A 
HETATM   11  C   UNL     1      40.828 -14.930  -2.927  1.00  0.00     0.075 A 
HETATM   12  C   UNL     1      41.531 -13.724  -2.944  1.00  0.00     0.037 A 
HETATM   13  C   UNL     1      42.075 -13.202  -1.772  1.00  0.00     0.003 A 
HETATM   14  C   UNL     1      41.910 -13.883  -0.566  1.00  0.00     0.010 A 
BRANCH  11  15
HETATM   15  O   UNL     1      40.337 -15.321  -4.140  1.00  0.00    -0.290 OA
BRANCH  15  16
HETATM   16  C   UNL     1      39.050 -15.916  -4.138  1.00  0.00     0.505 C 
HETATM   17  F   UNL     1      38.107 -14.948  -4.234  1.00  0.00    -0.184 F 
HETATM   18  F   UNL     1      38.950 -16.670  -5.263  1.00  0.00    -0.184 F 
ENDBRANCH  15  16
ENDBRANCH  11  15
ENDBRANCH   6   9
ENDBRANCH   5   6
ENDBRANCH   2   5
BRANCH   1  19
HETATM   19  C   UNL     1      43.692 -18.223   3.996  1.00  0.00     0.048 A 
HETATM   20  C   UNL     1      44.104 -18.446   5.384  1.00  0.00     0.022 A 
HETATM   21  C   UNL     1      44.521 -19.651   5.817  1.00  0.00     0.054 A 
HETATM   22  C   UNL     1      44.571 -20.740   4.907  1.00  0.00     0.157 A 
HETATM   23  N   UNL     1      44.203 -20.497   3.592  1.00  0.00    -0.291 N 
HETATM   24  N   UNL     1      44.917 -22.000   5.043  1.00  0.00    -0.130 NA
HETATM   25  C   UNL     1      44.355 -21.709   2.952  1.00  0.00     0.130 A 
HETATM   26  C   UNL     1      43.776 -19.254   3.129  1.00  0.00     0.117 A 
HETATM   27  C   UNL     1      44.080 -21.945   1.517  1.00  0.00     0.094 C 
HETATM   28  N   UNL     1      44.782 -22.608   3.818  1.00  0.00    -0.135 NA
ENDBRANCH   1  19
TORSDOF 7
ENDMDL
MODEL 4
REMARK VINA RESULT:      -7.8      2.579      3.988
REMARK  7 active torsions:
REMARK  status: ('A' for Active; 'I' for Inactive)
REMARK    1  A    between atoms: C_7  and  C_8 
REMARK       I    between atoms: C_8  and  N_9 
REMARK    2  A    between atoms: N_9  and  C_10 
REMARK    3  A    between atoms: C_10  and  C_11 
REMARK    4  A    between atoms: C_11  and  O_12 
REMARK    5  A    between atoms: C_11  and  C_13 
REMARK    6  A    between atoms: C_15  and  O_16 
REMARK    7  A    between atoms: O_16  and  C_17 
ROOT
HETATM    1  C   UNL     1      43.307 -18.081   1.532  1.00  0.00     0.253 C 
HETATM    2  N   UNL     1      41.961 -17.993   1.287  1.00  0.00    -0.354 N 
HETATM    3  O   UNL     1      44.118 -17.226   1.194  1.00  0.00    -0.268 OA
HETATM    4  H   UNL     1      41.311 -18.592   1.779  1.00  0.00     0.162 HD
ENDROOT
BRANCH   2   5
HETATM    5  C   UNL     1      41.373 -16.827   0.643  1.00  0.00     0.159 C 
BRANCH   5   6
HETATM    6  C   UNL     1      40.517 -15.990   1.612  1.00  0.00     0.169 C 
BRANCH   6   7
HETATM    7  O   UNL     1      39.641 -15.138   0.862  1.00  0.00    -0.389 OA
HETATM    8  H   UNL     1      39.192 -15.710   0.214  1.00  0.00     0.210 HD
ENDBRANCH   6   7
BRANCH   6   9
HETATM    9  C   UNL     1      41.350 -15.179   2.588  1.00  0.00    -0.025 A 
HETATM   10  C   UNL     1      41.449 -15.593   3.929  1.00  0.00     0.046 A 
HETATM   11  C   UNL     1      42.236 -14.885   4.841  1.00  0.00     0.075 A 
HETATM   12  C   UNL     1      42.950 -13.767   4.404  1.00  0.00     0.037 A 
HETATM   13  C   UNL     1      42.865 -13.345   3.079  1.00  0.00     0.003 A 
HETATM   14  C   UNL     1      42.068 -14.047   2.175  1.00  0.00     0.010 A 
BRANCH  11  15
HETATM   15  O   UNL     1      42.419 -15.199   6.158  1.00  0.00    -0.290 OA
BRANCH  15  16
HETATM   16  C   UNL     1      43.736 -15.544   6.549  1.00  0.00     0.505 C 
HETATM   17  F   UNL     1      43.720 -16.014   7.820  1.00  0.00    -0.184 F 
HETATM   18  F   UNL     1      44.137 -16.573   5.759  1.00  0.00    -0.184 F 
ENDBRANCH  15  16
ENDBRANCH  11  15
ENDBRANCH   6   9
ENDBRANCH   5   6
ENDBRANCH   2   5
BRANCH   1  19
HETATM   19  C   UNL     1      43.735 -19.282   2.316  1.00  0.00     0.048 A 
HETATM   20  C   UNL     1      44.031 -20.534   1.615  1.00  0.00     0.022 A 
HETATM   21  C   UNL     1      44.401 -21.647   2.275  1.00  0.00     0.054 A 
HETATM   22  C   UNL     1      44.505 -21.617   3.691  1.00  0.00     0.157 A 
HETATM   23  N   UNL     1      44.192 -20.428   4.334  1.00  0.00    -0.291 N 
HETATM   24  N   UNL     1      44.844 -22.523   4.580  1.00  0.00    -0.130 NA
HETATM   25  C   UNL     1      44.372 -20.693   5.675  1.00  0.00     0.130 A 
HETATM   26  C   UNL     1      43.801 -19.270   3.663  1.00  0.00     0.117 A 
HETATM   27  C   UNL     1      44.153 -19.714   6.764  1.00  0.00     0.094 C 
HETATM   28  N   UNL     1      44.760 -21.944   5.824  1.00  0.00    -0.135 NA
ENDBRANCH   1  19
TORSDOF 7
ENDMDL
MODEL 5
REMARK VINA RESULT:      -7.7      2.895      4.212
REMARK  7 active torsions:
REMARK  status: ('A' for Active; 'I' for Inactive)
REMARK    1  A    between atoms: C_7  and  C_8 
REMARK       I    between atoms: C_8  and  N_9 
REMARK    2  A    between atoms: N_9  and  C_10 
REMARK    3  A    between atoms: C_10  and  C_11 
REMARK    4  A    between atoms: C_11  and  O_12 
REMARK    5  A    between atoms: C_11  and  C_13 
REMARK    6  A    between atoms: C_15  and  O_16 
REMARK    7  A    between atoms: O_16  and  C_17 
ROOT
HETATM    1  C   UNL     1      41.438 -17.083   1.903  1.00  0.00     0.253 C 
HETATM    2  N   UNL     1      40.420 -16.489   2.603  1.00  0.00    -0.354 N 
HETATM    3  O   UNL     1      41.644 -16.896   0.709  1.00  0.00    -0.268 OA
HETATM    4  H   UNL     1      40.428 -16.486   3.614  1.00  0.00     0.162 HD
ENDROOT
BRANCH   2   5
HETATM    5  C   UNL     1      39.522 -15.526   1.981  1.00  0.00     0.159 C 
BRANCH   5   6
HETATM    6  C   UNL     1      40.048 -14.082   2.079  1.00  0.00     0.169 C 
BRANCH   6   7
HETATM    7  O   UNL     1      40.956 -13.830   0.998  1.00  0.00    -0.389 OA
HETATM    8  H   UNL     1      40.791 -12.914   0.711  1.00  0.00     0.210 HD
ENDBRANCH   6   7
BRANCH   6   9
HETATM    9  C   UNL     1      40.705 -13.780   3.414  1.00  0.00    -0.025 A 
HETATM   10  C   UNL     1      42.103 -13.874   3.538  1.00  0.00     0.046 A 
HETATM   11  C   UNL     1      42.737 -13.568   4.746  1.00  0.00     0.075 A 
HETATM   12  C   UNL     1      41.969 -13.142   5.831  1.00  0.00     0.037 A 
HETATM   13  C   UNL     1      40.584 -13.041   5.725  1.00  0.00     0.003 A 
HETATM   14  C   UNL     1      39.954 -13.359   4.522  1.00  0.00     0.010 A 
BRANCH  11  15
HETATM   15  O   UNL     1      44.083 -13.609   4.980  1.00  0.00    -0.290 OA
BRANCH  15  16
HETATM   16  C   UNL     1      44.487 -14.014   6.276  1.00  0.00     0.505 C 
HETATM   17  F   UNL     1      44.463 -15.367   6.353  1.00  0.00    -0.184 F 
HETATM   18  F   UNL     1      45.782 -13.639   6.433  1.00  0.00    -0.184 F 
ENDBRANCH  15  16
ENDBRANCH  11  15
ENDBRANCH   6   9
ENDBRANCH   5   6
ENDBRANCH   2   5
BRANCH   1  19
HETATM   19  C   UNL     1      42.350 -17.948   2.716  1.00  0.00     0.048 A 
HETATM   20  C   UNL     1      42.778 -17.499   4.043  1.00  0.00     0.022 A 
HETATM   21  C   UNL     1      43.613 -18.231   4.805  1.00  0.00     0.054 A 
HETATM   22  C   UNL     1      44.100 -19.471   4.314  1.00  0.00     0.157 A 
HETATM   23  N   UNL     1      43.703 -19.860   3.043  1.00  0.00    -0.291 N 
HETATM   24  N   UNL     1      44.898 -20.380   4.825  1.00  0.00    -0.130 NA
HETATM   25  C   UNL     1      44.324 -21.074   2.835  1.00  0.00     0.130 A 
HETATM   26  C   UNL     1      42.845 -19.110   2.241  1.00  0.00     0.117 A 
HETATM   27  C   UNL     1      44.200 -21.883   1.602  1.00  0.00     0.094 C 
HETATM   28  N   UNL     1      45.040 -21.386   3.898  1.00  0.00    -0.135 NA
ENDBRANCH   1  19
TORSDOF 7
ENDMDL
MODEL 6
REMARK VINA RESULT:      -7.7      2.643      3.956
REMARK  7 active torsions:
REMARK  status: ('A' for Active; 'I' for Inactive)
REMARK    1  A    between atoms: C_7  and  C_8 
REMARK       I    between atoms: C_8  and  N_9 
REMARK    2  A    between atoms: N_9  and  C_10 
REMARK    3  A    between atoms: C_10  and  C_11 
REMARK    4  A    between atoms: C_11  and  O_12 
REMARK    5  A    between atoms: C_11  and  C_13 
REMARK    6  A    between atoms: C_15  and  O_16 
REMARK    7  A    between atoms: O_16  and  C_17 
ROOT
HETATM    1  C   UNL     1      43.317 -16.607   2.407  1.00  0.00     0.253 C 
HETATM    2  N   UNL     1      42.376 -16.772   1.424  1.00  0.00    -0.354 N 
HETATM    3  O   UNL     1      43.786 -15.520   2.726  1.00  0.00    -0.268 OA
HETATM    4  H   UNL     1      41.854 -17.636   1.356  1.00  0.00     0.162 HD
ENDROOT
BRANCH   2   5
HETATM    5  C   UNL     1      41.810 -15.639   0.705  1.00  0.00     0.159 C 
BRANCH   5   6
HETATM    6  C   UNL     1      40.331 -15.399   1.059  1.00  0.00     0.169 C 
BRANCH   6   7
HETATM    7  O   UNL     1      39.675 -14.755  -0.041  1.00  0.00    -0.389 OA
HETATM    8  H   UNL     1      40.306 -14.770  -0.783  1.00  0.00     0.210 HD
ENDBRANCH   6   7
BRANCH   6   9
HETATM    9  C   UNL     1      40.149 -14.598   2.336  1.00  0.00    -0.025 A 
HETATM   10  C   UNL     1      40.322 -15.228   3.582  1.00  0.00     0.046 A 
HETATM   11  C   UNL     1      40.195 -14.507   4.773  1.00  0.00     0.075 A 
HETATM   12  C   UNL     1      39.916 -13.140   4.717  1.00  0.00     0.037 A 
HETATM   13  C   UNL     1      39.745 -12.500   3.491  1.00  0.00     0.003 A 
HETATM   14  C   UNL     1      39.860 -13.225   2.306  1.00  0.00     0.010 A 
BRANCH  11  15
HETATM   15  O   UNL     1      40.353 -15.006   6.035  1.00  0.00    -0.290 OA
BRANCH  15  16
HETATM   16  C   UNL     1      40.904 -16.307   6.135  1.00  0.00     0.505 C 
HETATM   17  F   UNL     1      41.995 -16.274   6.939  1.00  0.00    -0.184 F 
HETATM   18  F   UNL     1      39.986 -17.090   6.757  1.00  0.00    -0.184 F 
ENDBRANCH  15  16
ENDBRANCH  11  15
ENDBRANCH   6   9
ENDBRANCH   5   6
ENDBRANCH   2   5
BRANCH   1  19
HETATM   19  C   UNL     1      43.702 -17.856   3.137  1.00  0.00     0.048 A 
HETATM   20  C   UNL     1      44.006 -17.792   4.568  1.00  0.00     0.022 A 
HETATM   21  C   UNL     1      44.375 -18.882   5.266  1.00  0.00     0.054 A 
HETATM   22  C   UNL     1      44.480 -20.133   4.602  1.00  0.00     0.157 A 
HETATM   23  N   UNL     1      44.214 -20.163   3.240  1.00  0.00    -0.291 N 
HETATM   24  N   UNL     1      44.800 -21.338   5.015  1.00  0.00    -0.130 NA
HETATM   25  C   UNL     1      44.398 -21.479   2.873  1.00  0.00     0.130 A 
HETATM   26  C   UNL     1      43.837 -19.041   2.505  1.00  0.00     0.117 A 
HETATM   27  C   UNL     1      44.229 -22.002   1.498  1.00  0.00     0.094 C 
HETATM   28  N   UNL     1      44.749 -22.183   3.931  1.00  0.00    -0.135 NA
ENDBRANCH   1  19
TORSDOF 7
ENDMDL
MODEL 7
REMARK VINA RESULT:      -7.6      3.856      7.502
REMARK  7 active torsions:
REMARK  status: ('A' for Active; 'I' for Inactive)
REMARK    1  A    between atoms: C_7  and  C_8 
REMARK       I    between atoms: C_8  and  N_9 
REMARK    2  A    between atoms: N_9  and  C_10 
REMARK    3  A    between atoms: C_10  and  C_11 
REMARK    4  A    between atoms: C_11  and  O_12 
REMARK    5  A    between atoms: C_11  and  C_13 
REMARK    6  A    between atoms: C_15  and  O_16 
REMARK    7  A    between atoms: O_16  and  C_17 
ROOT
HETATM    1  C   UNL     1      42.182 -14.424   4.369  1.00  0.00     0.253 C 
HETATM    2  N   UNL     1      42.836 -15.212   3.458  1.00  0.00    -0.354 N 
HETATM    3  O   UNL     1      41.001 -14.108   4.273  1.00  0.00    -0.268 OA
HETATM    4  H   UNL     1      43.725 -15.634   3.691  1.00  0.00     0.162 HD
ENDROOT
BRANCH   2   5
HETATM    5  C   UNL     1      42.149 -15.792   2.312  1.00  0.00     0.159 C 
BRANCH   5   6
HETATM    6  C   UNL     1      41.595 -17.199   2.610  1.00  0.00     0.169 C 
BRANCH   6   7
HETATM    7  O   UNL     1      40.561 -17.106   3.598  1.00  0.00    -0.389 OA
HETATM    8  H   UNL     1      40.898 -17.560   4.391  1.00  0.00     0.210 HD
ENDBRANCH   6   7
BRANCH   6   9
HETATM    9  C   UNL     1      42.670 -18.178   3.046  1.00  0.00    -0.025 A 
HETATM   10  C   UNL     1      42.976 -18.311   4.413  1.00  0.00     0.046 A 
HETATM   11  C   UNL     1      43.936 -19.230   4.847  1.00  0.00     0.075 A 
HETATM   12  C   UNL     1      44.578 -20.040   3.908  1.00  0.00     0.037 A 
HETATM   13  C   UNL     1      44.284 -19.924   2.551  1.00  0.00     0.003 A 
HETATM   14  C   UNL     1      43.335 -18.997   2.122  1.00  0.00     0.010 A 
BRANCH  11  15
HETATM   15  O   UNL     1      44.305 -19.455   6.142  1.00  0.00    -0.290 OA
BRANCH  15  16
HETATM   16  C   UNL     1      44.641 -18.313   6.911  1.00  0.00     0.505 C 
HETATM   17  F   UNL     1      44.716 -18.658   8.220  1.00  0.00    -0.184 F 
HETATM   18  F   UNL     1      45.887 -17.925   6.539  1.00  0.00    -0.184 F 
ENDBRANCH  15  16
ENDBRANCH  11  15
ENDBRANCH   6   9
ENDBRANCH   5   6
ENDBRANCH   2   5
BRANCH   1  19
HETATM   19  C   UNL     1      42.996 -14.013   5.556  1.00  0.00     0.048 A 
HETATM   20  C   UNL     1      44.166 -14.805   5.939  1.00  0.00     0.022 A 
HETATM   21  C   UNL     1      44.920 -14.488   7.009  1.00  0.00     0.054 A 
HETATM   22  C   UNL     1      44.573 -13.359   7.797  1.00  0.00     0.157 A 
HETATM   23  N   UNL     1      43.444 -12.640   7.430  1.00  0.00    -0.291 N 
HETATM   24  N   UNL     1      45.114 -12.816   8.863  1.00  0.00    -0.130 NA
HETATM   25  C   UNL     1      43.352 -11.626   8.360  1.00  0.00     0.130 A 
HETATM   26  C   UNL     1      42.652 -12.961   6.329  1.00  0.00     0.117 A 
HETATM   27  C   UNL     1      42.292 -10.594   8.379  1.00  0.00     0.094 C 
HETATM   28  N   UNL     1      44.348 -11.730   9.217  1.00  0.00    -0.135 NA
ENDBRANCH   1  19
TORSDOF 7
ENDMDL
MODEL 8
REMARK VINA RESULT:      -7.6      2.331      3.380
REMARK  7 active torsions:
REMARK  status: ('A' for Active; 'I' for Inactive)
REMARK    1  A    between atoms: C_7  and  C_8 
REMARK       I    between atoms: C_8  and  N_9 
REMARK    2  A    between atoms: N_9  and  C_10 
REMARK    3  A    between atoms: C_10  and  C_11 
REMARK    4  A    between atoms: C_11  and  O_12 
REMARK    5  A    between atoms: C_11  and  C_13 
REMARK    6  A    between atoms: C_15  and  O_16 
REMARK    7  A    between atoms: O_16  and  C_17 
ROOT
HETATM    1  C   UNL     1      43.043 -16.702   3.104  1.00  0.00     0.253 C 
HETATM    2  N   UNL     1      41.707 -16.481   3.314  1.00  0.00    -0.354 N 
HETATM    3  O   UNL     1      43.791 -15.896   2.563  1.00  0.00    -0.268 OA
HETATM    4  H   UNL     1      41.188 -17.060   3.961  1.00  0.00     0.162 HD
ENDROOT
BRANCH   2   5
HETATM    5  C   UNL     1      41.072 -15.221   2.952  1.00  0.00     0.159 C 
BRANCH   5   6
HETATM    6  C   UNL     1      39.668 -15.422   2.353  1.00  0.00     0.169 C 
BRANCH   6   7
HETATM    7  O   UNL     1      39.418 -16.823   2.180  1.00  0.00    -0.389 OA
HETATM    8  H   UNL     1      39.460 -16.993   1.222  1.00  0.00     0.210 HD
ENDBRANCH   6   7
BRANCH   6   9
HETATM    9  C   UNL     1      39.468 -14.676   1.046  1.00  0.00    -0.025 A 
HETATM   10  C   UNL     1      40.512 -14.631   0.104  1.00  0.00     0.046 A 
HETATM   11  C   UNL     1      40.344 -13.980  -1.122  1.00  0.00     0.075 A 
HETATM   12  C   UNL     1      39.114 -13.390  -1.418  1.00  0.00     0.037 A 
HETATM   13  C   UNL     1      38.068 -13.428  -0.498  1.00  0.00     0.003 A 
HETATM   14  C   UNL     1      38.244 -14.067   0.729  1.00  0.00     0.010 A 
BRANCH  11  15
HETATM   15  O   UNL     1      41.277 -13.884  -2.114  1.00  0.00    -0.290 OA
BRANCH  15  16
HETATM   16  C   UNL     1      41.234 -14.880  -3.121  1.00  0.00     0.505 C 
HETATM   17  F   UNL     1      40.786 -16.042  -2.585  1.00  0.00    -0.184 F 
HETATM   18  F   UNL     1      40.311 -14.493  -4.037  1.00  0.00    -0.184 F 
ENDBRANCH  15  16
ENDBRANCH  11  15
ENDBRANCH   6   9
ENDBRANCH   5   6
ENDBRANCH   2   5
BRANCH   1  19
HETATM   19  C   UNL     1      43.568 -17.995   3.649  1.00  0.00     0.048 A 
HETATM   20  C   UNL     1      44.048 -18.054   5.031  1.00  0.00     0.022 A 
HETATM   21  C   UNL     1      44.547 -19.187   5.562  1.00  0.00     0.054 A 
HETATM   22  C   UNL     1      44.618 -20.359   4.764  1.00  0.00     0.157 A 
HETATM   23  N   UNL     1      44.183 -20.270   3.449  1.00  0.00    -0.291 N 
HETATM   24  N   UNL     1      45.036 -21.580   5.008  1.00  0.00    -0.130 NA
HETATM   25  C   UNL     1      44.374 -21.532   2.927  1.00  0.00     0.130 A 
HETATM   26  C   UNL     1      43.671 -19.103   2.885  1.00  0.00     0.117 A 
HETATM   27  C   UNL     1      44.054 -21.926   1.537  1.00  0.00     0.094 C 
HETATM   28  N   UNL     1      44.884 -22.316   3.857  1.00  0.00    -0.135 NA
ENDBRANCH   1  19
TORSDOF 7
ENDMDL
MODEL 9
REMARK VINA RESULT:      -7.6      4.213      7.366
REMARK  7 active torsions:
REMARK  status: ('A' for Active; 'I' for Inactive)
REMARK    1  A    between atoms: C_7  and  C_8 
REMARK       I    between atoms: C_8  and  N_9 
REMARK    2  A    between atoms: N_9  and  C_10 
REMARK    3  A    between atoms: C_10  and  C_11 
REMARK    4  A    between atoms: C_11  and  O_12 
REMARK    5  A    between atoms: C_11  and  C_13 
REMARK    6  A    between atoms: C_15  and  O_16 
REMARK    7  A    between atoms: O_16  and  C_17 
ROOT
HETATM    1  C   UNL     1      41.315 -15.293   1.865  1.00  0.00     0.253 C 
HETATM    2  N   UNL     1      40.874 -15.278   3.163  1.00  0.00    -0.354 N 
HETATM    3  O   UNL     1      42.393 -15.764   1.517  1.00  0.00    -0.268 OA
HETATM    4  H   UNL     1      39.900 -15.099   3.370  1.00  0.00     0.162 HD
ENDROOT
BRANCH   2   5
HETATM    5  C   UNL     1      41.643 -15.882   4.242  1.00  0.00     0.159 C 
BRANCH   5   6
HETATM    6  C   UNL     1      41.312 -17.373   4.436  1.00  0.00     0.169 C 
BRANCH   6   7
HETATM    7  O   UNL     1      40.458 -17.528   5.577  1.00  0.00    -0.389 OA
HETATM    8  H   UNL     1      40.387 -18.486   5.739  1.00  0.00     0.210 HD
ENDBRANCH   6   7
BRANCH   6   9
HETATM    9  C   UNL     1      42.549 -18.243   4.569  1.00  0.00    -0.025 A 
HETATM   10  C   UNL     1      43.008 -18.973   3.457  1.00  0.00     0.046 A 
HETATM   11  C   UNL     1      44.164 -19.755   3.541  1.00  0.00     0.075 A 
HETATM   12  C   UNL     1      44.880 -19.787   4.739  1.00  0.00     0.037 A 
HETATM   13  C   UNL     1      44.441 -19.068   5.849  1.00  0.00     0.003 A 
HETATM   14  C   UNL     1      43.281 -18.299   5.764  1.00  0.00     0.010 A 
BRANCH  11  15
HETATM   15  O   UNL     1      44.710 -20.492   2.529  1.00  0.00    -0.290 OA
BRANCH  15  16
HETATM   16  C   UNL     1      44.052 -21.705   2.205  1.00  0.00     0.505 C 
HETATM   17  F   UNL     1      44.372 -22.066   0.938  1.00  0.00    -0.184 F 
HETATM   18  F   UNL     1      44.550 -22.668   3.022  1.00  0.00    -0.184 F 
ENDBRANCH  15  16
ENDBRANCH  11  15
ENDBRANCH   6   9
ENDBRANCH   5   6
ENDBRANCH   2   5
BRANCH   1  19
HETATM   19  C   UNL     1      40.351 -14.747   0.858  1.00  0.00     0.048 A 
HETATM   20  C   UNL     1      38.971 -14.465   1.258  1.00  0.00     0.022 A 
HETATM   21  C   UNL     1      38.061 -13.991   0.386  1.00  0.00     0.054 A 
HETATM   22  C   UNL     1      38.440 -13.762  -0.963  1.00  0.00     0.157 A 
HETATM   23  N   UNL     1      39.746 -14.064  -1.324  1.00  0.00    -0.291 N 
HETATM   24  N   UNL     1      37.788 -13.307  -2.008  1.00  0.00    -0.130 NA
HETATM   25  C   UNL     1      39.823 -13.754  -2.666  1.00  0.00     0.130 A 
HETATM   26  C   UNL     1      40.696 -14.561  -0.433  1.00  0.00     0.117 A 
HETATM   27  C   UNL     1      41.035 -13.914  -3.499  1.00  0.00     0.094 C 
HETATM   28  N   UNL     1      38.654 -13.303  -3.076  1.00  0.00    -0.135 NA
ENDBRANCH   1  19
TORSDOF 7
ENDMDL
MODEL 10
REMARK VINA RESULT:      -7.6      2.023      2.231
REMARK  7 active torsions:
REMARK  status: ('A' for Active; 'I' for Inactive)
REMARK    1  A    between atoms: C_7  and  C_8 
REMARK       I    between atoms: C_8  and  N_9 
REMARK    2  A    between atoms: N_9  and  C_10 
REMARK    3  A    between atoms: C_10  and  C_11 
REMARK    4  A    between atoms: C_11  and  O_12 
REMARK    5  A    between atoms: C_11  and  C_13 
REMARK    6  A    between atoms: C_15  and  O_16 
REMARK    7  A    between atoms: O_16  and  C_17 
ROOT
HETATM    1  C   UNL     1      43.559 -17.169   5.040  1.00  0.00     0.253 C 
HETATM    2  N   UNL     1      42.609 -16.254   4.667  1.00  0.00    -0.354 N 
HETATM    3  O   UNL     1      44.219 -17.087   6.070  1.00  0.00    -0.268 OA
HETATM    4  H   UNL     1      41.937 -16.478   3.945  1.00  0.00     0.162 HD
ENDROOT
BRANCH   2   5
HETATM    5  C   UNL     1      42.265 -15.119   5.512  1.00  0.00     0.159 C 
BRANCH   5   6
HETATM    6  C   UNL     1      40.751 -15.023   5.779  1.00  0.00     0.169 C 
BRANCH   6   7
HETATM    7  O   UNL     1      40.132 -16.279   5.476  1.00  0.00    -0.389 OA
HETATM    8  H   UNL     1      39.490 -16.448   6.189  1.00  0.00     0.210 HD
ENDBRANCH   6   7
BRANCH   6   9
HETATM    9  C   UNL     1      40.085 -13.895   5.012  1.00  0.00    -0.025 A 
HETATM   10  C   UNL     1      39.876 -14.026   3.626  1.00  0.00     0.046 A 
HETATM   11  C   UNL     1      39.233 -13.018   2.901  1.00  0.00     0.075 A 
HETATM   12  C   UNL     1      38.774 -11.882   3.570  1.00  0.00     0.037 A 
HETATM   13  C   UNL     1      38.970 -11.739   4.942  1.00  0.00     0.003 A 
HETATM   14  C   UNL     1      39.622 -12.740   5.660  1.00  0.00     0.010 A 
BRANCH  11  15
HETATM   15  O   UNL     1      38.965 -13.040   1.562  1.00  0.00    -0.290 OA
BRANCH  15  16
HETATM   16  C   UNL     1      38.476 -14.261   1.035  1.00  0.00     0.505 C 
HETATM   17  F   UNL     1      37.121 -14.254   1.067  1.00  0.00    -0.184 F 
HETATM   18  F   UNL     1      38.834 -14.311  -0.274  1.00  0.00    -0.184 F 
ENDBRANCH  15  16
ENDBRANCH  11  15
ENDBRANCH   6   9
ENDBRANCH   5   6
ENDBRANCH   2   5
BRANCH   1  19
HETATM   19  C   UNL     1      43.703 -18.345   4.124  1.00  0.00     0.048 A 
HETATM   20  C   UNL     1      43.290 -18.226   2.724  1.00  0.00     0.022 A 
HETATM   21  C   UNL     1      43.382 -19.260   1.866  1.00  0.00     0.054 A 
HETATM   22  C   UNL     1      43.887 -20.505   2.324  1.00  0.00     0.157 A 
HETATM   23  N   UNL     1      44.246 -20.601   3.661  1.00  0.00    -0.291 N 
HETATM   24  N   UNL     1      44.096 -21.656   1.728  1.00  0.00    -0.130 NA
HETATM   25  C   UNL     1      44.685 -21.898   3.818  1.00  0.00     0.130 A 
HETATM   26  C   UNL     1      44.150 -19.541   4.562  1.00  0.00     0.117 A 
HETATM   27  C   UNL     1      45.173 -22.475   5.090  1.00  0.00     0.094 C 
HETATM   28  N   UNL     1      44.595 -22.531   2.664  1.00  0.00    -0.135 NA
ENDBRANCH   1  19
TORSDOF 7
ENDMDL
