MODEL 1
REMARK VINA RESULT:      -8.7      0.000      0.000
REMARK  5 active torsions:
REMARK  status: ('A' for Active; 'I' for Inactive)
REMARK    1  A    between atoms: O_2  and  C_3 
REMARK    2  A    between atoms: C_6  and  C_7 
REMARK    3  A    between atoms: C_11  and  N_12 
REMARK       I    between atoms: N_15  and  C_16 
REMARK    4  A    between atoms: C_16  and  C_17 
REMARK    5  A    between atoms: C_17  and  C_18 
ROOT
HETATM    1  N   UNL     1      41.953 -13.047   3.332  1.00  0.00    -0.363 N 
HETATM    2  C   UNL     1      43.258 -13.742   3.219  1.00  0.00     0.144 C 
HETATM    3  C   UNL     1      43.159 -15.213   3.686  1.00  0.00     0.145 C 
HETATM    4  N   UNL     1      42.049 -15.902   3.008  1.00  0.00    -0.349 N 
HETATM    5  C   UNL     1      42.194 -16.697   1.878  1.00  0.00     0.224 C 
HETATM    6  O   UNL     1      41.253 -16.897   1.103  1.00  0.00    -0.273 OA
HETATM    7  C   UNL     1      40.761 -15.223   3.202  1.00  0.00     0.145 C 
HETATM    8  C   UNL     1      40.837 -13.776   2.672  1.00  0.00     0.144 C 
ENDROOT
BRANCH   1   9
HETATM    9  C   UNL     1      41.694 -12.256   4.414  1.00  0.00     0.122 A 
HETATM   10  N   UNL     1      41.571 -10.895   4.302  1.00  0.00    -0.262 N 
HETATM   11  N   UNL     1      41.373 -10.257   5.466  1.00  0.00    -0.173 NA
HETATM   12  H   UNL     1      41.659 -10.341   3.460  1.00  0.00     0.191 HD
HETATM   13  C   UNL     1      41.377 -11.236   6.383  1.00  0.00     0.090 A 
HETATM   14  C   UNL     1      41.585 -12.503   5.763  1.00  0.00     0.084 A 
BRANCH  13  15
HETATM   15  C   UNL     1      41.217 -10.954   7.806  1.00  0.00    -0.005 A 
HETATM   16  C   UNL     1      39.958 -11.006   8.414  1.00  0.00     0.016 A 
HETATM   17  C   UNL     1      39.828 -10.760   9.785  1.00  0.00     0.037 A 
HETATM   18  C   UNL     1      40.947 -10.475  10.570  1.00  0.00     0.068 A 
HETATM   19  C   UNL     1      42.202 -10.401   9.966  1.00  0.00     0.037 A 
HETATM   20  C   UNL     1      42.334 -10.636   8.591  1.00  0.00     0.016 A 
BRANCH  18  21
HETATM   21  O   UNL     1      40.684 -10.277  11.897  1.00  0.00    -0.356 OA
HETATM   22  C   UNL     1      40.282 -11.421  12.642  1.00  0.00     0.210 C 
ENDBRANCH  18  21
ENDBRANCH  13  15
ENDBRANCH   1   9
BRANCH   5  23
HETATM   23  C   UNL     1      43.545 -17.341   1.606  1.00  0.00     0.141 C 
BRANCH  23  24
HETATM   24  C   UNL     1      43.851 -18.577   2.425  1.00  0.00    -0.049 A 
HETATM   25  C   UNL     1      44.227 -18.509   3.776  1.00  0.00     0.009 A 
HETATM   26  C   UNL     1      44.537 -19.669   4.490  1.00  0.00     0.019 A 
HETATM   27  C   UNL     1      44.499 -20.905   3.852  1.00  0.00     0.011 A 
HETATM   28 BR   UNL     1      44.931 -22.473   4.816  1.00  0.00    -0.051 Br
HETATM   29  C   UNL     1      44.157 -20.992   2.506  1.00  0.00     0.019 A 
HETATM   30  C   UNL     1      43.838 -19.832   1.796  1.00  0.00     0.009 A 
ENDBRANCH  23  24
ENDBRANCH   5  23
TORSDOF 5
ENDMDL
MODEL 2
REMARK VINA RESULT:      -8.3      1.714      2.288
REMARK  5 active torsions:
REMARK  status: ('A' for Active; 'I' for Inactive)
REMARK    1  A    between atoms: O_2  and  C_3 
REMARK    2  A    between atoms: C_6  and  C_7 
REMARK    3  A    between atoms: C_11  and  N_12 
REMARK       I    between atoms: N_15  and  C_16 
REMARK    4  A    between atoms: C_16  and  C_17 
REMARK    5  A    between atoms: C_17  and  C_18 
ROOT
HETATM    1  N   UNL     1      41.528 -12.483   5.170  1.00  0.00    -0.363 N 
HETATM    2  C   UNL     1      42.799 -12.919   4.544  1.00  0.00     0.144 C 
HETATM    3  C   UNL     1      43.155 -14.372   4.938  1.00  0.00     0.145 C 
HETATM    4  N   UNL     1      42.019 -15.274   4.688  1.00  0.00    -0.349 N 
HETATM    5  C   UNL     1      41.873 -16.050   3.545  1.00  0.00     0.224 C 
HETATM    6  O   UNL     1      40.764 -16.442   3.167  1.00  0.00    -0.273 OA
HETATM    7  C   UNL     1      40.797 -14.847   5.382  1.00  0.00     0.145 C 
HETATM    8  C   UNL     1      40.401 -13.424   4.937  1.00  0.00     0.144 C 
ENDROOT
BRANCH   1   9
HETATM    9  C   UNL     1      41.554 -11.732   6.311  1.00  0.00     0.122 A 
HETATM   10  N   UNL     1      40.833 -10.571   6.429  1.00  0.00    -0.262 N 
HETATM   11  N   UNL     1      41.010  -9.922   7.590  1.00  0.00    -0.173 NA
HETATM   12  H   UNL     1      40.236 -10.149   5.729  1.00  0.00     0.191 HD
HETATM   13  C   UNL     1      41.892 -10.680   8.259  1.00  0.00     0.090 A 
HETATM   14  C   UNL     1      42.264 -11.818   7.486  1.00  0.00     0.084 A 
BRANCH  13  15
HETATM   15  C   UNL     1      42.380 -10.301   9.582  1.00  0.00    -0.005 A 
HETATM   16  C   UNL     1      41.730  -9.315  10.333  1.00  0.00     0.016 A 
HETATM   17  C   UNL     1      42.195  -8.984  11.611  1.00  0.00     0.037 A 
HETATM   18  C   UNL     1      43.298  -9.638  12.162  1.00  0.00     0.068 A 
HETATM   19  C   UNL     1      43.962 -10.607  11.411  1.00  0.00     0.037 A 
HETATM   20  C   UNL     1      43.506 -10.932  10.126  1.00  0.00     0.016 A 
BRANCH  18  21
HETATM   21  O   UNL     1      43.634  -9.235  13.426  1.00  0.00    -0.356 OA
HETATM   22  C   UNL     1      42.733  -9.594  14.466  1.00  0.00     0.210 C 
ENDBRANCH  18  21
ENDBRANCH  13  15
ENDBRANCH   1   9
BRANCH   5  23
HETATM   23  C   UNL     1      43.116 -16.433   2.757  1.00  0.00     0.141 C 
BRANCH  23  24
HETATM   24  C   UNL     1      43.518 -17.890   2.846  1.00  0.00    -0.049 A 
HETATM   25  C   UNL     1      43.336 -18.786   1.780  1.00  0.00     0.009 A 
HETATM   26  C   UNL     1      43.687 -20.132   1.912  1.00  0.00     0.019 A 
HETATM   27  C   UNL     1      44.198 -20.599   3.119  1.00  0.00     0.011 A 
HETATM   28 BR   UNL     1      44.659 -22.423   3.301  1.00  0.00    -0.051 Br
HETATM   29  C   UNL     1      44.359 -19.733   4.197  1.00  0.00     0.019 A 
HETATM   30  C   UNL     1      44.017 -18.386   4.061  1.00  0.00     0.009 A 
ENDBRANCH  23  24
ENDBRANCH   5  23
TORSDOF 5
ENDMDL
MODEL 3
REMARK VINA RESULT:      -8.3      4.688      8.516
REMARK  5 active torsions:
REMARK  status: ('A' for Active; 'I' for Inactive)
REMARK    1  A    between atoms: O_2  and  C_3 
REMARK    2  A    between atoms: C_6  and  C_7 
REMARK    3  A    between atoms: C_11  and  N_12 
REMARK       I    between atoms: N_15  and  C_16 
REMARK    4  A    between atoms: C_16  and  C_17 
REMARK    5  A    between atoms: C_17  and  C_18 
ROOT
HETATM    1  N   UNL     1      41.428 -16.244   0.736  1.00  0.00    -0.363 N 
HETATM    2  C   UNL     1      42.773 -16.412   1.336  1.00  0.00     0.144 C 
HETATM    3  C   UNL     1      43.024 -15.381   2.461  1.00  0.00     0.145 C 
HETATM    4  N   UNL     1      41.922 -15.396   3.438  1.00  0.00    -0.349 N 
HETATM    5  C   UNL     1      41.947 -16.101   4.634  1.00  0.00     0.224 C 
HETATM    6  O   UNL     1      40.906 -16.444   5.204  1.00  0.00    -0.273 OA
HETATM    7  C   UNL     1      40.614 -15.156   2.815  1.00  0.00     0.145 C 
HETATM    8  C   UNL     1      40.331 -16.225   1.740  1.00  0.00     0.144 C 
ENDROOT
BRANCH   1   9
HETATM    9  C   UNL     1      41.284 -15.549  -0.431  1.00  0.00     0.122 A 
HETATM   10  N   UNL     1      41.067 -16.182  -1.627  1.00  0.00    -0.262 N 
HETATM   11  N   UNL     1      41.004 -15.361  -2.687  1.00  0.00    -0.173 NA
HETATM   12  H   UNL     1      40.997 -17.179  -1.788  1.00  0.00     0.191 HD
HETATM   13  C   UNL     1      41.200 -14.139  -2.169  1.00  0.00     0.090 A 
HETATM   14  C   UNL     1      41.389 -14.217  -0.759  1.00  0.00     0.084 A 
BRANCH  13  15
HETATM   15  C   UNL     1      41.235 -12.947  -3.011  1.00  0.00    -0.005 A 
HETATM   16  C   UNL     1      40.058 -12.404  -3.540  1.00  0.00     0.016 A 
HETATM   17  C   UNL     1      40.108 -11.245  -4.321  1.00  0.00     0.037 A 
HETATM   18  C   UNL     1      41.322 -10.603  -4.573  1.00  0.00     0.068 A 
HETATM   19  C   UNL     1      42.500 -11.150  -4.065  1.00  0.00     0.037 A 
HETATM   20  C   UNL     1      42.455 -12.318  -3.292  1.00  0.00     0.016 A 
BRANCH  18  21
HETATM   21  O   UNL     1      41.227  -9.468  -5.331  1.00  0.00    -0.356 OA
HETATM   22  C   UNL     1      42.432  -8.741  -5.538  1.00  0.00     0.210 C 
ENDBRANCH  18  21
ENDBRANCH  13  15
ENDBRANCH   1   9
BRANCH   5  23
HETATM   23  C   UNL     1      43.293 -16.441   5.256  1.00  0.00     0.141 C 
BRANCH  23  24
HETATM   24  C   UNL     1      43.661 -17.909   5.245  1.00  0.00    -0.049 A 
HETATM   25  C   UNL     1      43.618 -18.703   6.402  1.00  0.00     0.009 A 
HETATM   26  C   UNL     1      43.999 -20.047   6.360  1.00  0.00     0.019 A 
HETATM   27  C   UNL     1      44.453 -20.600   5.167  1.00  0.00     0.011 A 
HETATM   28 BR   UNL     1      44.982 -22.414   5.114  1.00  0.00    -0.051 Br
HETATM   29  C   UNL     1      44.531 -19.823   4.015  1.00  0.00     0.019 A 
HETATM   30  C   UNL     1      44.140 -18.482   4.056  1.00  0.00     0.009 A 
ENDBRANCH  23  24
ENDBRANCH   5  23
TORSDOF 5
ENDMDL
MODEL 4
REMARK VINA RESULT:      -8.3      3.405      9.565
REMARK  5 active torsions:
REMARK  status: ('A' for Active; 'I' for Inactive)
REMARK    1  A    between atoms: O_2  and  C_3 
REMARK    2  A    between atoms: C_6  and  C_7 
REMARK    3  A    between atoms: C_11  and  N_12 
REMARK       I    between atoms: N_15  and  C_16 
REMARK    4  A    between atoms: C_16  and  C_17 
REMARK    5  A    between atoms: C_17  and  C_18 
ROOT
HETATM    1  N   UNL     1      40.666 -14.172   3.437  1.00  0.00    -0.363 N 
HETATM    2  C   UNL     1      39.825 -14.066   4.653  1.00  0.00     0.144 C 
HETATM    3  C   UNL     1      40.641 -13.554   5.863  1.00  0.00     0.145 C 
HETATM    4  N   UNL     1      41.363 -12.318   5.519  1.00  0.00    -0.349 N 
HETATM    5  C   UNL     1      40.903 -11.038   5.805  1.00  0.00     0.224 C 
HETATM    6  O   UNL     1      41.279 -10.056   5.156  1.00  0.00    -0.273 OA
HETATM    7  C   UNL     1      42.239 -12.482   4.352  1.00  0.00     0.145 C 
HETATM    8  C   UNL     1      41.414 -12.926   3.126  1.00  0.00     0.144 C 
ENDROOT
BRANCH   1   9
HETATM    9  C   UNL     1      41.188 -15.381   3.073  1.00  0.00     0.122 A 
HETATM   10  N   UNL     1      40.780 -16.033   1.939  1.00  0.00    -0.262 N 
HETATM   11  N   UNL     1      41.349 -17.234   1.752  1.00  0.00    -0.173 NA
HETATM   12  H   UNL     1      40.081 -15.726   1.275  1.00  0.00     0.191 HD
HETATM   13  C   UNL     1      42.156 -17.384   2.814  1.00  0.00     0.090 A 
HETATM   14  C   UNL     1      42.075 -16.247   3.669  1.00  0.00     0.084 A 
BRANCH  13  15
HETATM   15  C   UNL     1      42.949 -18.594   3.008  1.00  0.00    -0.005 A 
HETATM   16  C   UNL     1      43.616 -18.832   4.216  1.00  0.00     0.016 A 
HETATM   17  C   UNL     1      44.348 -20.011   4.395  1.00  0.00     0.037 A 
HETATM   18  C   UNL     1      44.414 -20.972   3.384  1.00  0.00     0.068 A 
HETATM   19  C   UNL     1      43.768 -20.732   2.172  1.00  0.00     0.037 A 
HETATM   20  C   UNL     1      43.044 -19.547   1.985  1.00  0.00     0.016 A 
BRANCH  18  21
HETATM   21  O   UNL     1      45.143 -22.086   3.697  1.00  0.00    -0.356 OA
HETATM   22  C   UNL     1      45.145 -22.480   5.064  1.00  0.00     0.210 C 
ENDBRANCH  18  21
ENDBRANCH  13  15
ENDBRANCH   1   9
BRANCH   5  23
HETATM   23  C   UNL     1      39.925 -10.851   6.954  1.00  0.00     0.141 C 
BRANCH  23  24
HETATM   24  C   UNL     1      40.546 -10.804   8.334  1.00  0.00    -0.049 A 
HETATM   25  C   UNL     1      41.917 -10.579   8.533  1.00  0.00     0.009 A 
HETATM   26  C   UNL     1      42.460 -10.577   9.821  1.00  0.00     0.019 A 
HETATM   27  C   UNL     1      41.642 -10.828  10.917  1.00  0.00     0.011 A 
HETATM   28 BR   UNL     1      42.381 -10.839  12.657  1.00  0.00    -0.051 Br
HETATM   29  C   UNL     1      40.285 -11.082  10.740  1.00  0.00     0.019 A 
HETATM   30  C   UNL     1      39.742 -11.074   9.453  1.00  0.00     0.009 A 
ENDBRANCH  23  24
ENDBRANCH   5  23
TORSDOF 5
ENDMDL
MODEL 5
REMARK VINA RESULT:      -8.1      7.107     10.227
REMARK  5 active torsions:
REMARK  status: ('A' for Active; 'I' for Inactive)
REMARK    1  A    between atoms: O_2  and  C_3 
REMARK    2  A    between atoms: C_6  and  C_7 
REMARK    3  A    between atoms: C_11  and  N_12 
REMARK       I    between atoms: N_15  and  C_16 
REMARK    4  A    between atoms: C_16  and  C_17 
REMARK    5  A    between atoms: C_17  and  C_18 
ROOT
HETATM    1  N   UNL     1      41.563 -14.758  -0.351  1.00  0.00    -0.363 N 
HETATM    2  C   UNL     1      41.284 -14.792  -1.807  1.00  0.00     0.144 C 
HETATM    3  C   UNL     1      39.771 -14.658  -2.097  1.00  0.00     0.145 C 
HETATM    4  N   UNL     1      39.209 -13.488  -1.403  1.00  0.00    -0.349 N 
HETATM    5  C   UNL     1      39.018 -12.245  -1.993  1.00  0.00     0.224 C 
HETATM    6  O   UNL     1      38.964 -11.211  -1.319  1.00  0.00    -0.273 OA
HETATM    7  C   UNL     1      39.444 -13.525   0.046  1.00  0.00     0.145 C 
HETATM    8  C   UNL     1      40.957 -13.588   0.338  1.00  0.00     0.144 C 
ENDROOT
BRANCH   1   9
HETATM    9  C   UNL     1      41.746 -15.924   0.335  1.00  0.00     0.122 A 
HETATM   10  N   UNL     1      40.709 -16.782   0.593  1.00  0.00    -0.262 N 
HETATM   11  N   UNL     1      41.043 -17.856   1.325  1.00  0.00    -0.173 NA
HETATM   12  H   UNL     1      39.738 -16.664   0.331  1.00  0.00     0.191 HD
HETATM   13  C   UNL     1      42.352 -17.692   1.570  1.00  0.00     0.090 A 
HETATM   14  C   UNL     1      42.827 -16.488   0.974  1.00  0.00     0.084 A 
BRANCH  13  15
HETATM   15  C   UNL     1      43.106 -18.647   2.376  1.00  0.00    -0.005 A 
HETATM   16  C   UNL     1      43.518 -19.873   1.843  1.00  0.00     0.016 A 
HETATM   17  C   UNL     1      44.265 -20.764   2.621  1.00  0.00     0.037 A 
HETATM   18  C   UNL     1      44.623 -20.442   3.932  1.00  0.00     0.068 A 
HETATM   19  C   UNL     1      44.198 -19.231   4.476  1.00  0.00     0.037 A 
HETATM   20  C   UNL     1      43.440 -18.341   3.702  1.00  0.00     0.016 A 
BRANCH  18  21
HETATM   21  O   UNL     1      45.371 -21.390   4.573  1.00  0.00    -0.356 OA
HETATM   22  C   UNL     1      44.680 -22.232   5.488  1.00  0.00     0.210 C 
ENDBRANCH  18  21
ENDBRANCH  13  15
ENDBRANCH   1   9
BRANCH   5  23
HETATM   23  C   UNL     1      38.860 -12.168  -3.504  1.00  0.00     0.141 C 
BRANCH  23  24
HETATM   24  C   UNL     1      39.877 -11.306  -4.220  1.00  0.00    -0.049 A 
HETATM   25  C   UNL     1      41.259 -11.529  -4.114  1.00  0.00     0.009 A 
HETATM   26  C   UNL     1      42.169 -10.689  -4.762  1.00  0.00     0.019 A 
HETATM   27  C   UNL     1      41.706  -9.604  -5.499  1.00  0.00     0.011 A 
HETATM   28 BR   UNL     1      42.939  -8.460  -6.363  1.00  0.00    -0.051 Br
HETATM   29  C   UNL     1      40.341  -9.347  -5.592  1.00  0.00     0.019 A 
HETATM   30  C   UNL     1      39.432 -10.193  -4.952  1.00  0.00     0.009 A 
ENDBRANCH  23  24
ENDBRANCH   5  23
TORSDOF 5
ENDMDL
MODEL 6
REMARK VINA RESULT:      -8.0      3.670      9.869
REMARK  5 active torsions:
REMARK  status: ('A' for Active; 'I' for Inactive)
REMARK    1  A    between atoms: O_2  and  C_3 
REMARK    2  A    between atoms: C_6  and  C_7 
REMARK    3  A    between atoms: C_11  and  N_12 
REMARK       I    between atoms: N_15  and  C_16 
REMARK    4  A    between atoms: C_16  and  C_17 
REMARK    5  A    between atoms: C_17  and  C_18 
ROOT
HETATM    1  N   UNL     1      40.865 -14.021   5.693  1.00  0.00    -0.363 N 
HETATM    2  C   UNL     1      41.892 -12.990   5.979  1.00  0.00     0.144 C 
HETATM    3  C   UNL     1      41.740 -11.766   5.047  1.00  0.00     0.145 C 
HETATM    4  N   UNL     1      40.357 -11.261   5.069  1.00  0.00    -0.349 N 
HETATM    5  C   UNL     1      39.923 -10.204   5.858  1.00  0.00     0.224 C 
HETATM    6  O   UNL     1      38.737 -10.084   6.182  1.00  0.00    -0.273 OA
HETATM    7  C   UNL     1      39.375 -12.293   4.712  1.00  0.00     0.145 C 
HETATM    8  C   UNL     1      39.478 -13.486   5.684  1.00  0.00     0.144 C 
ENDROOT
BRANCH   1   9
HETATM    9  C   UNL     1      41.178 -15.095   4.909  1.00  0.00     0.122 A 
HETATM   10  N   UNL     1      40.375 -15.492   3.872  1.00  0.00    -0.262 N 
HETATM   11  N   UNL     1      40.792 -16.597   3.235  1.00  0.00    -0.173 NA
HETATM   12  H   UNL     1      39.502 -15.071   3.579  1.00  0.00     0.191 HD
HETATM   13  C   UNL     1      41.911 -16.949   3.888  1.00  0.00     0.090 A 
HETATM   14  C   UNL     1      42.180 -16.038   4.950  1.00  0.00     0.084 A 
BRANCH  13  15
HETATM   15  C   UNL     1      42.671 -18.139   3.518  1.00  0.00    -0.005 A 
HETATM   16  C   UNL     1      42.505 -18.739   2.265  1.00  0.00     0.016 A 
HETATM   17  C   UNL     1      43.263 -19.863   1.917  1.00  0.00     0.037 A 
HETATM   18  C   UNL     1      44.203 -20.394   2.802  1.00  0.00     0.068 A 
HETATM   19  C   UNL     1      44.358 -19.813   4.061  1.00  0.00     0.037 A 
HETATM   20  C   UNL     1      43.592 -18.694   4.417  1.00  0.00     0.016 A 
BRANCH  18  21
HETATM   21  O   UNL     1      44.891 -21.477   2.330  1.00  0.00    -0.356 OA
HETATM   22  C   UNL     1      44.736 -22.692   3.053  1.00  0.00     0.210 C 
ENDBRANCH  18  21
ENDBRANCH  13  15
ENDBRANCH   1   9
BRANCH   5  23
HETATM   23  C   UNL     1      40.937  -9.168   6.317  1.00  0.00     0.141 C 
BRANCH  23  24
HETATM   24  C   UNL     1      41.283  -9.206   7.790  1.00  0.00    -0.049 A 
HETATM   25  C   UNL     1      42.093 -10.209   8.346  1.00  0.00     0.009 A 
HETATM   26  C   UNL     1      42.361 -10.231   9.718  1.00  0.00     0.019 A 
HETATM   27  C   UNL     1      41.800  -9.266  10.548  1.00  0.00     0.011 A 
HETATM   28 BR   UNL     1      42.153  -9.306  12.405  1.00  0.00    -0.051 Br
HETATM   29  C   UNL     1      40.971  -8.280  10.021  1.00  0.00     0.019 A 
HETATM   30  C   UNL     1      40.712  -8.253   8.649  1.00  0.00     0.009 A 
ENDBRANCH  23  24
ENDBRANCH   5  23
TORSDOF 5
ENDMDL
MODEL 7
REMARK VINA RESULT:      -7.8      4.758      8.324
REMARK  5 active torsions:
REMARK  status: ('A' for Active; 'I' for Inactive)
REMARK    1  A    between atoms: O_2  and  C_3 
REMARK    2  A    between atoms: C_6  and  C_7 
REMARK    3  A    between atoms: C_11  and  N_12 
REMARK       I    between atoms: N_15  and  C_16 
REMARK    4  A    between atoms: C_16  and  C_17 
REMARK    5  A    between atoms: C_17  and  C_18 
ROOT
HETATM    1  N   UNL     1      40.791 -15.460   0.776  1.00  0.00    -0.363 N 
HETATM    2  C   UNL     1      42.199 -15.800   1.089  1.00  0.00     0.144 C 
HETATM    3  C   UNL     1      42.690 -15.067   2.359  1.00  0.00     0.145 C 
HETATM    4  N   UNL     1      41.756 -15.278   3.478  1.00  0.00    -0.349 N 
HETATM    5  C   UNL     1      41.920 -16.242   4.464  1.00  0.00     0.224 C 
HETATM    6  O   UNL     1      40.960 -16.680   5.107  1.00  0.00    -0.273 OA
HETATM    7  C   UNL     1      40.385 -14.863   3.153  1.00  0.00     0.145 C 
HETATM    8  C   UNL     1      39.868 -15.645   1.928  1.00  0.00     0.144 C 
ENDROOT
BRANCH   1   9
HETATM    9  C   UNL     1      40.513 -14.509  -0.164  1.00  0.00     0.122 A 
HETATM   10  N   UNL     1      39.283 -14.423  -0.764  1.00  0.00    -0.262 N 
HETATM   11  N   UNL     1      39.189 -13.471  -1.705  1.00  0.00    -0.173 NA
HETATM   12  H   UNL     1      38.481 -15.019  -0.602  1.00  0.00     0.191 HD
HETATM   13  C   UNL     1      40.410 -12.915  -1.734  1.00  0.00     0.090 A 
HETATM   14  C   UNL     1      41.270 -13.545  -0.789  1.00  0.00     0.084 A 
BRANCH  13  15
HETATM   15  C   UNL     1      40.739 -11.838  -2.663  1.00  0.00    -0.005 A 
HETATM   16  C   UNL     1      40.158 -10.572  -2.533  1.00  0.00     0.016 A 
HETATM   17  C   UNL     1      40.507  -9.543  -3.415  1.00  0.00     0.037 A 
HETATM   18  C   UNL     1      41.447  -9.756  -4.425  1.00  0.00     0.068 A 
HETATM   19  C   UNL     1      42.015 -11.021  -4.573  1.00  0.00     0.037 A 
HETATM   20  C   UNL     1      41.658 -12.057  -3.698  1.00  0.00     0.016 A 
BRANCH  18  21
HETATM   21  O   UNL     1      41.714  -8.663  -5.202  1.00  0.00    -0.356 OA
HETATM   22  C   UNL     1      42.742  -8.811  -6.175  1.00  0.00     0.210 C 
ENDBRANCH  18  21
ENDBRANCH  13  15
ENDBRANCH   1   9
BRANCH   5  23
HETATM   23  C   UNL     1      43.322 -16.755   4.759  1.00  0.00     0.141 C 
BRANCH  23  24
HETATM   24  C   UNL     1      43.671 -18.088   4.132  1.00  0.00    -0.049 A 
HETATM   25  C   UNL     1      43.145 -18.497   2.897  1.00  0.00     0.009 A 
HETATM   26  C   UNL     1      43.463 -19.751   2.366  1.00  0.00     0.019 A 
HETATM   27  C   UNL     1      44.288 -20.615   3.079  1.00  0.00     0.011 A 
HETATM   28 BR   UNL     1      44.706 -22.315   2.367  1.00  0.00    -0.051 Br
HETATM   29  C   UNL     1      44.796 -20.240   4.319  1.00  0.00     0.019 A 
HETATM   30  C   UNL     1      44.485 -18.983   4.844  1.00  0.00     0.009 A 
ENDBRANCH  23  24
ENDBRANCH   5  23
TORSDOF 5
ENDMDL
MODEL 8
REMARK VINA RESULT:      -7.8      7.167     10.440
REMARK  5 active torsions:
REMARK  status: ('A' for Active; 'I' for Inactive)
REMARK    1  A    between atoms: O_2  and  C_3 
REMARK    2  A    between atoms: C_6  and  C_7 
REMARK    3  A    between atoms: C_11  and  N_12 
REMARK       I    between atoms: N_15  and  C_16 
REMARK    4  A    between atoms: C_16  and  C_17 
REMARK    5  A    between atoms: C_17  and  C_18 
ROOT
HETATM    1  N   UNL     1      41.445 -14.648  -0.497  1.00  0.00    -0.363 N 
HETATM    2  C   UNL     1      40.897 -14.731  -1.872  1.00  0.00     0.144 C 
HETATM    3  C   UNL     1      39.380 -14.433  -1.896  1.00  0.00     0.145 C 
HETATM    4  N   UNL     1      39.085 -13.167  -1.205  1.00  0.00    -0.349 N 
HETATM    5  C   UNL     1      38.923 -11.945  -1.846  1.00  0.00     0.224 C 
HETATM    6  O   UNL     1      39.106 -10.876  -1.255  1.00  0.00    -0.273 OA
HETATM    7  C   UNL     1      39.582 -13.150   0.177  1.00  0.00     0.145 C 
HETATM    8  C   UNL     1      41.107 -13.378   0.198  1.00  0.00     0.144 C 
ENDROOT
BRANCH   1   9
HETATM    9  C   UNL     1      41.627 -15.788   0.234  1.00  0.00     0.122 A 
HETATM   10  N   UNL     1      40.579 -16.601   0.578  1.00  0.00    -0.262 N 
HETATM   11  N   UNL     1      40.916 -17.650   1.344  1.00  0.00    -0.173 NA
HETATM   12  H   UNL     1      39.601 -16.466   0.355  1.00  0.00     0.191 HD
HETATM   13  C   UNL     1      42.240 -17.516   1.520  1.00  0.00     0.090 A 
HETATM   14  C   UNL     1      42.720 -16.355   0.848  1.00  0.00     0.084 A 
BRANCH  13  15
HETATM   15  C   UNL     1      43.003 -18.456   2.335  1.00  0.00    -0.005 A 
HETATM   16  C   UNL     1      43.496 -19.647   1.790  1.00  0.00     0.016 A 
HETATM   17  C   UNL     1      44.251 -20.523   2.578  1.00  0.00     0.037 A 
HETATM   18  C   UNL     1      44.536 -20.220   3.910  1.00  0.00     0.068 A 
HETATM   19  C   UNL     1      44.031 -19.045   4.466  1.00  0.00     0.037 A 
HETATM   20  C   UNL     1      43.265 -18.171   3.682  1.00  0.00     0.016 A 
BRANCH  18  21
HETATM   21  O   UNL     1      45.301 -21.149   4.560  1.00  0.00    -0.356 OA
HETATM   22  C   UNL     1      44.637 -21.952   5.529  1.00  0.00     0.210 C 
ENDBRANCH  18  21
ENDBRANCH  13  15
ENDBRANCH   1   9
BRANCH   5  23
HETATM   23  C   UNL     1      38.494 -11.936  -3.305  1.00  0.00     0.141 C 
BRANCH  23  24
HETATM   24  C   UNL     1      37.000 -11.993  -3.544  1.00  0.00    -0.049 A 
HETATM   25  C   UNL     1      36.419 -12.882  -4.462  1.00  0.00     0.009 A 
HETATM   26  C   UNL     1      35.039 -12.880  -4.681  1.00  0.00     0.019 A 
HETATM   27  C   UNL     1      34.232 -11.971  -4.005  1.00  0.00     0.011 A 
HETATM   28 BR   UNL     1      32.367 -11.961  -4.312  1.00  0.00    -0.051 Br
HETATM   29  C   UNL     1      34.792 -11.062  -3.112  1.00  0.00     0.019 A 
HETATM   30  C   UNL     1      36.170 -11.071  -2.886  1.00  0.00     0.009 A 
ENDBRANCH  23  24
ENDBRANCH   5  23
TORSDOF 5
ENDMDL
MODEL 9
REMARK VINA RESULT:      -7.6      6.640      9.501
REMARK  5 active torsions:
REMARK  status: ('A' for Active; 'I' for Inactive)
REMARK    1  A    between atoms: O_2  and  C_3 
REMARK    2  A    between atoms: C_6  and  C_7 
REMARK    3  A    between atoms: C_11  and  N_12 
REMARK       I    between atoms: N_15  and  C_16 
REMARK    4  A    between atoms: C_16  and  C_17 
REMARK    5  A    between atoms: C_17  and  C_18 
ROOT
HETATM    1  N   UNL     1      41.145 -13.988  -0.442  1.00  0.00    -0.363 N 
HETATM    2  C   UNL     1      42.162 -12.920  -0.595  1.00  0.00     0.144 C 
HETATM    3  C   UNL     1      42.786 -12.931  -2.009  1.00  0.00     0.145 C 
HETATM    4  N   UNL     1      41.738 -12.918  -3.043  1.00  0.00    -0.349 N 
HETATM    5  C   UNL     1      41.292 -11.773  -3.691  1.00  0.00     0.224 C 
HETATM    6  O   UNL     1      40.170 -11.716  -4.205  1.00  0.00    -0.273 OA
HETATM    7  C   UNL     1      40.791 -14.032  -2.900  1.00  0.00     0.145 C 
HETATM    8  C   UNL     1      40.115 -13.981  -1.514  1.00  0.00     0.144 C 
ENDROOT
BRANCH   1   9
HETATM    9  C   UNL     1      41.480 -15.166   0.163  1.00  0.00     0.122 A 
HETATM   10  N   UNL     1      40.838 -16.340  -0.134  1.00  0.00    -0.262 N 
HETATM   11  N   UNL     1      41.247 -17.396   0.586  1.00  0.00    -0.173 NA
HETATM   12  H   UNL     1      40.080 -16.472  -0.791  1.00  0.00     0.191 HD
HETATM   13  C   UNL     1      42.189 -16.894   1.399  1.00  0.00     0.090 A 
HETATM   14  C   UNL     1      42.357 -15.498   1.171  1.00  0.00     0.084 A 
BRANCH  13  15
HETATM   15  C   UNL     1      42.877 -17.727   2.381  1.00  0.00    -0.005 A 
HETATM   16  C   UNL     1      43.017 -17.309   3.709  1.00  0.00     0.016 A 
HETATM   17  C   UNL     1      43.654 -18.133   4.643  1.00  0.00     0.037 A 
HETATM   18  C   UNL     1      44.144 -19.387   4.274  1.00  0.00     0.068 A 
HETATM   19  C   UNL     1      44.025 -19.802   2.947  1.00  0.00     0.037 A 
HETATM   20  C   UNL     1      43.398 -18.973   2.007  1.00  0.00     0.016 A 
BRANCH  18  21
HETATM   21  O   UNL     1      44.723 -20.100   5.287  1.00  0.00    -0.356 OA
HETATM   22  C   UNL     1      43.926 -20.318   6.445  1.00  0.00     0.210 C 
ENDBRANCH  18  21
ENDBRANCH  13  15
ENDBRANCH   1   9
BRANCH   5  23
HETATM   23  C   UNL     1      42.221 -10.572  -3.776  1.00  0.00     0.141 C 
BRANCH  23  24
HETATM   24  C   UNL     1      42.317  -9.735  -2.518  1.00  0.00    -0.049 A 
HETATM   25  C   UNL     1      43.548  -9.331  -1.977  1.00  0.00     0.009 A 
HETATM   26  C   UNL     1      43.598  -8.589  -0.794  1.00  0.00     0.019 A 
HETATM   27  C   UNL     1      42.420  -8.268  -0.128  1.00  0.00     0.011 A 
HETATM   28 BR   UNL     1      42.490  -7.276   1.480  1.00  0.00    -0.051 Br
HETATM   29  C   UNL     1      41.191  -8.684  -0.632  1.00  0.00     0.019 A 
HETATM   30  C   UNL     1      41.142  -9.417  -1.820  1.00  0.00     0.009 A 
ENDBRANCH  23  24
ENDBRANCH   5  23
TORSDOF 5
ENDMDL
MODEL 10
REMARK VINA RESULT:      -7.5      4.230      9.826
REMARK  5 active torsions:
REMARK  status: ('A' for Active; 'I' for Inactive)
REMARK    1  A    between atoms: O_2  and  C_3 
REMARK    2  A    between atoms: C_6  and  C_7 
REMARK    3  A    between atoms: C_11  and  N_12 
REMARK       I    between atoms: N_15  and  C_16 
REMARK    4  A    between atoms: C_16  and  C_17 
REMARK    5  A    between atoms: C_17  and  C_18 
ROOT
HETATM    1  N   UNL     1      41.032 -13.788   5.864  1.00  0.00    -0.363 N 
HETATM    2  C   UNL     1      41.652 -12.446   5.977  1.00  0.00     0.144 C 
HETATM    3  C   UNL     1      41.642 -11.702   4.622  1.00  0.00     0.145 C 
HETATM    4  N   UNL     1      40.289 -11.694   4.041  1.00  0.00    -0.349 N 
HETATM    5  C   UNL     1      39.391 -10.641   4.164  1.00  0.00     0.224 C 
HETATM    6  O   UNL     1      38.172 -10.816   4.059  1.00  0.00    -0.273 OA
HETATM    7  C   UNL     1      39.737 -13.045   3.879  1.00  0.00     0.145 C 
HETATM    8  C   UNL     1      39.682 -13.765   5.242  1.00  0.00     0.144 C 
ENDROOT
BRANCH   1   9
HETATM    9  C   UNL     1      41.822 -14.893   5.718  1.00  0.00     0.122 A 
HETATM   10  N   UNL     1      42.878 -15.143   6.555  1.00  0.00    -0.262 N 
HETATM   11  N   UNL     1      43.588 -16.239   6.244  1.00  0.00    -0.173 NA
HETATM   12  H   UNL     1      43.191 -14.574   7.331  1.00  0.00     0.191 HD
HETATM   13  C   UNL     1      42.980 -16.724   5.150  1.00  0.00     0.090 A 
HETATM   14  C   UNL     1      41.875 -15.903   4.784  1.00  0.00     0.084 A 
BRANCH  13  15
HETATM   15  C   UNL     1      43.471 -17.918   4.467  1.00  0.00    -0.005 A 
HETATM   16  C   UNL     1      43.119 -18.184   3.139  1.00  0.00     0.016 A 
HETATM   17  C   UNL     1      43.621 -19.318   2.492  1.00  0.00     0.037 A 
HETATM   18  C   UNL     1      44.489 -20.191   3.150  1.00  0.00     0.068 A 
HETATM   19  C   UNL     1      44.828 -19.942   4.480  1.00  0.00     0.037 A 
HETATM   20  C   UNL     1      44.317 -18.814   5.135  1.00  0.00     0.016 A 
BRANCH  18  21
HETATM   21  O   UNL     1      44.924 -21.247   2.397  1.00  0.00    -0.356 OA
HETATM   22  C   UNL     1      43.945 -21.906   1.603  1.00  0.00     0.210 C 
ENDBRANCH  18  21
ENDBRANCH  13  15
ENDBRANCH   1   9
BRANCH   5  23
HETATM   23  C   UNL     1      39.932  -9.244   4.421  1.00  0.00     0.141 C 
BRANCH  23  24
HETATM   24  C   UNL     1      39.941  -8.807   5.871  1.00  0.00    -0.049 A 
HETATM   25  C   UNL     1      41.118  -8.765   6.635  1.00  0.00     0.009 A 
HETATM   26  C   UNL     1      41.081  -8.390   7.981  1.00  0.00     0.019 A 
HETATM   27  C   UNL     1      39.864  -8.082   8.581  1.00  0.00     0.011 A 
HETATM   28 BR   UNL     1      39.814  -7.589  10.405  1.00  0.00    -0.051 Br
HETATM   29  C   UNL     1      38.682  -8.146   7.848  1.00  0.00     0.019 A 
HETATM   30  C   UNL     1      38.722  -8.511   6.500  1.00  0.00     0.009 A 
ENDBRANCH  23  24
ENDBRANCH   5  23
TORSDOF 5
ENDMDL
