MODEL 1
REMARK VINA RESULT:      -8.2      0.000      0.000
REMARK  7 active torsions:
REMARK  status: ('A' for Active; 'I' for Inactive)
REMARK    1  A    between atoms: C_2  and  C_3 
REMARK    2  A    between atoms: C_6  and  C_7 
REMARK    3  A    between atoms: N_8  and  C_9 
REMARK    4  A    between atoms: C_14  and  S_15 
REMARK    5  A    between atoms: S_15  and  C_16 
REMARK    6  A    between atoms: C_16  and  C_17 
REMARK       I    between atoms: C_17  and  N_18 
REMARK    7  A    between atoms: N_18  and  C_19 
ROOT
HETATM    1  C   UNL     1      40.035 -12.199   3.881  1.00  0.00     0.164 C 
HETATM    2  N   UNL     1      40.861 -13.086   3.206  1.00  0.00    -0.302 N 
HETATM    3  C   UNL     1      40.468 -12.992   1.897  1.00  0.00     0.192 C 
HETATM    4  N   UNL     1      39.324 -12.355   1.827  1.00  0.00    -0.122 NA
HETATM    5  N   UNL     1      39.056 -11.847   3.064  1.00  0.00    -0.128 NA
ENDROOT
BRANCH   3   6
HETATM    6  S   UNL     1      41.379 -13.517   0.527  1.00  0.00    -0.081 SA
BRANCH   6   7
HETATM    7  C   UNL     1      40.599 -15.119   0.158  1.00  0.00     0.185 C 
BRANCH   7   8
HETATM    8  C   UNL     1      40.892 -16.180   1.215  1.00  0.00     0.231 C 
HETATM    9  N   UNL     1      42.202 -16.624   1.200  1.00  0.00    -0.326 N 
HETATM   10  H   UNL     1      42.865 -16.047   0.680  1.00  0.00     0.169 HD
HETATM   11  O   UNL     1      40.004 -16.594   1.958  1.00  0.00    -0.272 OA
BRANCH   9  12
HETATM   12  C   UNL     1      42.767 -17.710   1.896  1.00  0.00     0.037 A 
HETATM   13  C   UNL     1      42.793 -19.017   1.400  1.00  0.00     0.061 A 
HETATM   14  C   UNL     1      43.443 -19.960   2.165  1.00  0.00     0.065 A 
HETATM   15  C   UNL     1      44.042 -19.652   3.385  1.00  0.00     0.063 A 
HETATM   16  N   UNL     1      43.660 -21.312   1.916  1.00  0.00    -0.306 N 
HETATM   17  N   UNL     1      44.621 -20.812   3.887  1.00  0.00    -0.307 N 
HETATM   18  C   UNL     1      44.022 -18.384   3.909  1.00  0.00     0.034 A 
HETATM   19  C   UNL     1      44.398 -21.856   2.978  1.00  0.00     0.325 A 
HETATM   20  H   UNL     1      45.137 -20.916   4.744  1.00  0.00     0.170 HD
HETATM   21  O   UNL     1      44.777 -23.008   3.088  1.00  0.00    -0.247 OA
HETATM   22  C   UNL     1      43.378 -17.406   3.142  1.00  0.00     0.032 A 
HETATM   23  H   UNL     1      43.364 -21.836   1.109  1.00  0.00     0.170 HD
ENDBRANCH   9  12
ENDBRANCH   7   8
ENDBRANCH   6   7
ENDBRANCH   3   6
BRANCH   2  24
HETATM   24  C   UNL     1      41.782 -14.019   3.817  1.00  0.00     0.094 C 
HETATM   25  C   UNL     1      43.017 -13.377   4.471  1.00  0.00     0.026 C 
HETATM   26  C   UNL     1      43.481 -14.434   5.459  1.00  0.00     0.002 C 
HETATM   27  C   UNL     1      42.178 -14.960   6.041  1.00  0.00     0.002 C 
HETATM   28  C   UNL     1      41.192 -14.969   4.873  1.00  0.00     0.026 C 
ENDBRANCH   2  24
BRANCH   1  29
HETATM   29  C   UNL     1      40.188 -11.694   5.245  1.00  0.00     0.012 A 
HETATM   30  C   UNL     1      39.465 -12.229   6.315  1.00  0.00     0.016 A 
HETATM   31  C   UNL     1      39.700 -11.801   7.629  1.00  0.00     0.009 A 
HETATM   32  C   UNL     1      40.680 -10.838   7.919  1.00  0.00    -0.051 A 
HETATM   33  C   UNL     1      41.390 -10.298   6.831  1.00  0.00     0.009 A 
HETATM   34  C   UNL     1      41.156 -10.725   5.519  1.00  0.00     0.016 A 
BRANCH  32  35
HETATM   35  C   UNL     1      40.995 -10.381   9.354  1.00  0.00    -0.024 C 
HETATM   36  C   UNL     1      40.133 -11.077  10.432  1.00  0.00     0.019 C 
HETATM   37  C   UNL     1      40.748  -8.863   9.466  1.00  0.00     0.019 C 
HETATM   38  C   UNL     1      42.471 -10.682   9.703  1.00  0.00     0.019 C 
ENDBRANCH  32  35
ENDBRANCH   1  29
TORSDOF 7
ENDMDL
MODEL 2
REMARK VINA RESULT:      -8.1      2.881      6.516
REMARK  7 active torsions:
REMARK  status: ('A' for Active; 'I' for Inactive)
REMARK    1  A    between atoms: C_2  and  C_3 
REMARK    2  A    between atoms: C_6  and  C_7 
REMARK    3  A    between atoms: N_8  and  C_9 
REMARK    4  A    between atoms: C_14  and  S_15 
REMARK    5  A    between atoms: S_15  and  C_16 
REMARK    6  A    between atoms: C_16  and  C_17 
REMARK       I    between atoms: C_17  and  N_18 
REMARK    7  A    between atoms: N_18  and  C_19 
ROOT
HETATM    1  C   UNL     1      39.979 -13.996   2.866  1.00  0.00     0.164 C 
HETATM    2  N   UNL     1      40.535 -12.885   3.484  1.00  0.00    -0.302 N 
HETATM    3  C   UNL     1      40.865 -13.321   4.741  1.00  0.00     0.192 C 
HETATM    4  N   UNL     1      40.290 -14.478   4.968  1.00  0.00    -0.122 NA
HETATM    5  N   UNL     1      39.747 -14.909   3.795  1.00  0.00    -0.128 NA
ENDROOT
BRANCH   3   6
HETATM    6  S   UNL     1      41.960 -12.544   5.827  1.00  0.00    -0.081 SA
BRANCH   6   7
HETATM    7  C   UNL     1      43.263 -13.802   5.999  1.00  0.00     0.185 C 
BRANCH   7   8
HETATM    8  C   UNL     1      43.399 -14.688   4.763  1.00  0.00     0.231 C 
HETATM    9  N   UNL     1      42.964 -15.985   4.967  1.00  0.00    -0.326 N 
HETATM   10  H   UNL     1      42.393 -16.142   5.799  1.00  0.00     0.169 HD
HETATM   11  O   UNL     1      43.891 -14.252   3.724  1.00  0.00    -0.272 OA
BRANCH   9  12
HETATM   12  C   UNL     1      43.112 -17.102   4.122  1.00  0.00     0.037 A 
HETATM   13  C   UNL     1      43.953 -18.182   4.408  1.00  0.00     0.061 A 
HETATM   14  C   UNL     1      43.938 -19.234   3.519  1.00  0.00     0.065 A 
HETATM   15  C   UNL     1      43.143 -19.237   2.374  1.00  0.00     0.063 A 
HETATM   16  N   UNL     1      44.629 -20.442   3.558  1.00  0.00    -0.306 N 
HETATM   17  N   UNL     1      43.347 -20.441   1.710  1.00  0.00    -0.307 N 
HETATM   18  C   UNL     1      42.319 -18.188   2.054  1.00  0.00     0.034 A 
HETATM   19  C   UNL     1      44.267 -21.207   2.440  1.00  0.00     0.325 A 
HETATM   20  H   UNL     1      42.912 -20.751   0.857  1.00  0.00     0.170 HD
HETATM   21  O   UNL     1      44.668 -22.323   2.159  1.00  0.00    -0.247 OA
HETATM   22  C   UNL     1      42.306 -17.113   2.951  1.00  0.00     0.032 A 
HETATM   23  H   UNL     1      45.274 -20.749   4.267  1.00  0.00     0.170 HD
ENDBRANCH   9  12
ENDBRANCH   7   8
ENDBRANCH   6   7
ENDBRANCH   3   6
BRANCH   2  24
HETATM   24  C   UNL     1      40.560 -11.541   2.950  1.00  0.00     0.094 C 
HETATM   25  C   UNL     1      41.361 -11.377   1.648  1.00  0.00     0.026 C 
HETATM   26  C   UNL     1      40.790 -10.106   1.043  1.00  0.00     0.002 C 
HETATM   27  C   UNL     1      39.298 -10.234   1.311  1.00  0.00     0.002 C 
HETATM   28  C   UNL     1      39.194 -10.883   2.691  1.00  0.00     0.026 C 
ENDBRANCH   2  24
BRANCH   1  29
HETATM   29  C   UNL     1      39.703 -14.182   1.442  1.00  0.00     0.012 A 
HETATM   30  C   UNL     1      38.466 -13.851   0.881  1.00  0.00     0.016 A 
HETATM   31  C   UNL     1      38.255 -13.943  -0.501  1.00  0.00     0.009 A 
HETATM   32  C   UNL     1      39.279 -14.348  -1.372  1.00  0.00    -0.051 A 
HETATM   33  C   UNL     1      40.513 -14.692  -0.792  1.00  0.00     0.009 A 
HETATM   34  C   UNL     1      40.726 -14.602   0.588  1.00  0.00     0.016 A 
BRANCH  32  35
HETATM   35  C   UNL     1      39.093 -14.413  -2.898  1.00  0.00    -0.024 C 
HETATM   36  C   UNL     1      37.625 -14.614  -3.338  1.00  0.00     0.019 C 
HETATM   37  C   UNL     1      39.916 -15.593  -3.456  1.00  0.00     0.019 C 
HETATM   38  C   UNL     1      39.578 -13.100  -3.556  1.00  0.00     0.019 C 
ENDBRANCH  32  35
ENDBRANCH   1  29
TORSDOF 7
ENDMDL
MODEL 3
REMARK VINA RESULT:      -8.1      4.190      8.635
REMARK  7 active torsions:
REMARK  status: ('A' for Active; 'I' for Inactive)
REMARK    1  A    between atoms: C_2  and  C_3 
REMARK    2  A    between atoms: C_6  and  C_7 
REMARK    3  A    between atoms: N_8  and  C_9 
REMARK    4  A    between atoms: C_14  and  S_15 
REMARK    5  A    between atoms: S_15  and  C_16 
REMARK    6  A    between atoms: C_16  and  C_17 
REMARK       I    between atoms: C_17  and  N_18 
REMARK    7  A    between atoms: N_18  and  C_19 
ROOT
HETATM    1  C   UNL     1      40.151 -14.049   5.259  1.00  0.00     0.164 C 
HETATM    2  N   UNL     1      39.885 -13.420   4.051  1.00  0.00    -0.302 N 
HETATM    3  C   UNL     1      39.177 -12.299   4.397  1.00  0.00     0.192 C 
HETATM    4  N   UNL     1      38.786 -12.395   5.645  1.00  0.00    -0.122 NA
HETATM    5  N   UNL     1      39.402 -13.481   6.190  1.00  0.00    -0.128 NA
ENDROOT
BRANCH   3   6
HETATM    6  S   UNL     1      38.929 -10.911   3.399  1.00  0.00    -0.081 SA
BRANCH   6   7
HETATM    7  C   UNL     1      40.007  -9.684   4.201  1.00  0.00     0.185 C 
BRANCH   7   8
HETATM    8  C   UNL     1      39.640  -9.436   5.662  1.00  0.00     0.231 C 
HETATM    9  N   UNL     1      40.652  -9.763   6.546  1.00  0.00    -0.326 N 
HETATM   10  H   UNL     1      41.580  -9.891   6.138  1.00  0.00     0.169 HD
HETATM   11  O   UNL     1      38.525  -9.022   5.971  1.00  0.00    -0.272 OA
BRANCH   9  12
HETATM   12  C   UNL     1      40.598  -9.837   7.951  1.00  0.00     0.037 A 
HETATM   13  C   UNL     1      40.185 -10.976   8.649  1.00  0.00     0.061 A 
HETATM   14  C   UNL     1      40.253 -10.921  10.024  1.00  0.00     0.065 A 
HETATM   15  C   UNL     1      40.695  -9.791  10.708  1.00  0.00     0.063 A 
HETATM   16  N   UNL     1      39.949 -11.896  10.969  1.00  0.00    -0.306 N 
HETATM   17  N   UNL     1      40.659 -10.068  12.070  1.00  0.00    -0.307 N 
HETATM   18  C   UNL     1      41.092  -8.651  10.056  1.00  0.00     0.034 A 
HETATM   19  C   UNL     1      40.202 -11.382  12.249  1.00  0.00     0.325 A 
HETATM   20  H   UNL     1      40.926  -9.460  12.825  1.00  0.00     0.170 HD
HETATM   21  O   UNL     1      40.060 -11.962  13.311  1.00  0.00    -0.247 OA
HETATM   22  C   UNL     1      41.046  -8.688   8.657  1.00  0.00     0.032 A 
HETATM   23  H   UNL     1      39.618 -12.830  10.793  1.00  0.00     0.170 HD
ENDBRANCH   9  12
ENDBRANCH   7   8
ENDBRANCH   6   7
ENDBRANCH   3   6
BRANCH   2  24
HETATM   24  C   UNL     1      40.147 -13.964   2.736  1.00  0.00     0.094 C 
HETATM   25  C   UNL     1      41.634 -14.058   2.359  1.00  0.00     0.026 C 
HETATM   26  C   UNL     1      41.652 -15.110   1.263  1.00  0.00     0.002 C 
HETATM   27  C   UNL     1      40.662 -16.150   1.765  1.00  0.00     0.002 C 
HETATM   28  C   UNL     1      39.548 -15.349   2.438  1.00  0.00     0.026 C 
ENDBRANCH   2  24
BRANCH   1  29
HETATM   29  C   UNL     1      41.098 -15.134   5.514  1.00  0.00     0.012 A 
HETATM   30  C   UNL     1      40.690 -16.469   5.575  1.00  0.00     0.016 A 
HETATM   31  C   UNL     1      41.627 -17.502   5.720  1.00  0.00     0.009 A 
HETATM   32  C   UNL     1      43.004 -17.236   5.787  1.00  0.00    -0.051 A 
HETATM   33  C   UNL     1      43.398 -15.887   5.738  1.00  0.00     0.009 A 
HETATM   34  C   UNL     1      42.464 -14.854   5.594  1.00  0.00     0.016 A 
BRANCH  32  35
HETATM   35  C   UNL     1      44.060 -18.350   5.897  1.00  0.00    -0.024 C 
HETATM   36  C   UNL     1      44.383 -19.035   4.550  1.00  0.00     0.019 C 
HETATM   37  C   UNL     1      43.548 -19.436   6.864  1.00  0.00     0.019 C 
HETATM   38  C   UNL     1      45.392 -17.778   6.434  1.00  0.00     0.019 C 
ENDBRANCH  32  35
ENDBRANCH   1  29
TORSDOF 7
ENDMDL
MODEL 4
REMARK VINA RESULT:      -8.0      3.326      6.691
REMARK  7 active torsions:
REMARK  status: ('A' for Active; 'I' for Inactive)
REMARK    1  A    between atoms: C_2  and  C_3 
REMARK    2  A    between atoms: C_6  and  C_7 
REMARK    3  A    between atoms: N_8  and  C_9 
REMARK    4  A    between atoms: C_14  and  S_15 
REMARK    5  A    between atoms: S_15  and  C_16 
REMARK    6  A    between atoms: C_16  and  C_17 
REMARK       I    between atoms: C_17  and  N_18 
REMARK    7  A    between atoms: N_18  and  C_19 
ROOT
HETATM    1  C   UNL     1      41.790 -12.957   1.365  1.00  0.00     0.164 C 
HETATM    2  N   UNL     1      40.654 -13.444   1.996  1.00  0.00    -0.302 N 
HETATM    3  C   UNL     1      41.077 -13.770   3.259  1.00  0.00     0.192 C 
HETATM    4  N   UNL     1      42.388 -13.774   3.294  1.00  0.00    -0.122 NA
HETATM    5  N   UNL     1      42.837 -13.255   2.117  1.00  0.00    -0.128 NA
ENDROOT
BRANCH   3   6
HETATM    6  S   UNL     1      40.062 -14.021   4.633  1.00  0.00    -0.081 SA
BRANCH   6   7
HETATM    7  C   UNL     1      41.264 -14.562   5.885  1.00  0.00     0.185 C 
BRANCH   7   8
HETATM    8  C   UNL     1      41.581 -16.054   5.800  1.00  0.00     0.231 C 
HETATM    9  N   UNL     1      42.714 -16.334   5.060  1.00  0.00    -0.326 N 
HETATM   10  H   UNL     1      43.332 -15.543   4.868  1.00  0.00     0.169 HD
HETATM   11  O   UNL     1      40.844 -16.886   6.325  1.00  0.00    -0.272 OA
BRANCH   9  12
HETATM   12  C   UNL     1      43.189 -17.586   4.624  1.00  0.00     0.037 A 
HETATM   13  C   UNL     1      42.773 -18.201   3.439  1.00  0.00     0.061 A 
HETATM   14  C   UNL     1      43.380 -19.394   3.111  1.00  0.00     0.065 A 
HETATM   15  C   UNL     1      44.353 -19.985   3.914  1.00  0.00     0.063 A 
HETATM   16  N   UNL     1      43.203 -20.204   1.994  1.00  0.00    -0.306 N 
HETATM   17  N   UNL     1      44.770 -21.158   3.295  1.00  0.00    -0.307 N 
HETATM   18  C   UNL     1      44.773 -19.418   5.091  1.00  0.00     0.034 A 
HETATM   19  C   UNL     1      44.066 -21.305   2.091  1.00  0.00     0.325 A 
HETATM   20  H   UNL     1      45.469 -21.805   3.618  1.00  0.00     0.170 HD
HETATM   21  O   UNL     1      44.187 -22.212   1.286  1.00  0.00    -0.247 OA
HETATM   22  C   UNL     1      44.181 -18.198   5.438  1.00  0.00     0.032 A 
HETATM   23  H   UNL     1      42.578 -20.044   1.221  1.00  0.00     0.170 HD
ENDBRANCH   9  12
ENDBRANCH   7   8
ENDBRANCH   6   7
ENDBRANCH   3   6
BRANCH   2  24
HETATM   24  C   UNL     1      39.381 -13.710   1.364  1.00  0.00     0.094 C 
HETATM   25  C   UNL     1      38.414 -12.515   1.327  1.00  0.00     0.026 C 
HETATM   26  C   UNL     1      37.466 -12.866   0.193  1.00  0.00     0.002 C 
HETATM   27  C   UNL     1      38.390 -13.460  -0.859  1.00  0.00     0.002 C 
HETATM   28  C   UNL     1      39.432 -14.256  -0.072  1.00  0.00     0.026 C 
ENDBRANCH   2  24
BRANCH   1  29
HETATM   29  C   UNL     1      41.866 -12.219   0.105  1.00  0.00     0.012 A 
HETATM   30  C   UNL     1      42.351 -12.807  -1.067  1.00  0.00     0.016 A 
HETATM   31  C   UNL     1      42.321 -12.116  -2.285  1.00  0.00     0.009 A 
HETATM   32  C   UNL     1      41.787 -10.820  -2.378  1.00  0.00    -0.051 A 
HETATM   33  C   UNL     1      41.316 -10.236  -1.189  1.00  0.00     0.009 A 
HETATM   34  C   UNL     1      41.345 -10.925   0.029  1.00  0.00     0.016 A 
BRANCH  32  35
HETATM   35  C   UNL     1      41.696 -10.053  -3.709  1.00  0.00    -0.024 C 
HETATM   36  C   UNL     1      42.384 -10.775  -4.890  1.00  0.00     0.019 C 
HETATM   37  C   UNL     1      42.372  -8.677  -3.544  1.00  0.00     0.019 C 
HETATM   38  C   UNL     1      40.218  -9.849  -4.113  1.00  0.00     0.019 C 
ENDBRANCH  32  35
ENDBRANCH   1  29
TORSDOF 7
ENDMDL
MODEL 5
REMARK VINA RESULT:      -7.9      1.411      2.197
REMARK  7 active torsions:
REMARK  status: ('A' for Active; 'I' for Inactive)
REMARK    1  A    between atoms: C_2  and  C_3 
REMARK    2  A    between atoms: C_6  and  C_7 
REMARK    3  A    between atoms: N_8  and  C_9 
REMARK    4  A    between atoms: C_14  and  S_15 
REMARK    5  A    between atoms: S_15  and  C_16 
REMARK    6  A    between atoms: C_16  and  C_17 
REMARK       I    between atoms: C_17  and  N_18 
REMARK    7  A    between atoms: N_18  and  C_19 
ROOT
HETATM    1  C   UNL     1      40.813 -11.774   5.654  1.00  0.00     0.164 C 
HETATM    2  N   UNL     1      41.574 -12.871   5.277  1.00  0.00    -0.302 N 
HETATM    3  C   UNL     1      41.582 -12.829   3.907  1.00  0.00     0.192 C 
HETATM    4  N   UNL     1      40.672 -11.983   3.490  1.00  0.00    -0.122 NA
HETATM    5  N   UNL     1      40.198 -11.313   4.577  1.00  0.00    -0.128 NA
ENDROOT
BRANCH   3   6
HETATM    6  S   UNL     1      42.691 -13.660   2.876  1.00  0.00    -0.081 SA
BRANCH   6   7
HETATM    7  C   UNL     1      41.572 -14.711   1.902  1.00  0.00     0.185 C 
BRANCH   7   8
HETATM    8  C   UNL     1      41.663 -16.188   2.280  1.00  0.00     0.231 C 
HETATM    9  N   UNL     1      42.947 -16.597   2.588  1.00  0.00    -0.326 N 
HETATM   10  H   UNL     1      43.625 -15.854   2.767  1.00  0.00     0.169 HD
HETATM   11  O   UNL     1      40.667 -16.908   2.258  1.00  0.00    -0.272 OA
BRANCH   9  12
HETATM   12  C   UNL     1      43.424 -17.906   2.795  1.00  0.00     0.037 A 
HETATM   13  C   UNL     1      43.903 -18.369   4.024  1.00  0.00     0.061 A 
HETATM   14  C   UNL     1      44.270 -19.696   4.089  1.00  0.00     0.065 A 
HETATM   15  C   UNL     1      44.189 -20.550   2.991  1.00  0.00     0.063 A 
HETATM   16  N   UNL     1      44.741 -20.437   5.169  1.00  0.00    -0.306 N 
HETATM   17  N   UNL     1      44.612 -21.811   3.394  1.00  0.00    -0.307 N 
HETATM   18  C   UNL     1      43.738 -20.126   1.767  1.00  0.00     0.034 A 
HETATM   19  C   UNL     1      44.953 -21.759   4.753  1.00  0.00     0.325 A 
HETATM   20  H   UNL     1      44.661 -22.647   2.836  1.00  0.00     0.170 HD
HETATM   21  O   UNL     1      45.352 -22.684   5.438  1.00  0.00    -0.247 OA
HETATM   22  C   UNL     1      43.347 -18.785   1.681  1.00  0.00     0.032 A 
HETATM   23  H   UNL     1      44.896 -20.109   6.108  1.00  0.00     0.170 HD
ENDBRANCH   9  12
ENDBRANCH   7   8
ENDBRANCH   6   7
ENDBRANCH   3   6
BRANCH   2  24
HETATM   24  C   UNL     1      42.063 -13.908   6.161  1.00  0.00     0.094 C 
HETATM   25  C   UNL     1      41.538 -15.320   5.854  1.00  0.00     0.026 C 
HETATM   26  C   UNL     1      42.569 -16.226   6.504  1.00  0.00     0.002 C 
HETATM   27  C   UNL     1      43.887 -15.539   6.183  1.00  0.00     0.002 C 
HETATM   28  C   UNL     1      43.590 -14.042   6.277  1.00  0.00     0.026 C 
ENDBRANCH   2  24
BRANCH   1  29
HETATM   29  C   UNL     1      40.698 -11.179   6.985  1.00  0.00     0.012 A 
HETATM   30  C   UNL     1      39.613 -11.453   7.824  1.00  0.00     0.016 A 
HETATM   31  C   UNL     1      39.572 -10.954   9.132  1.00  0.00     0.009 A 
HETATM   32  C   UNL     1      40.622 -10.181   9.654  1.00  0.00    -0.051 A 
HETATM   33  C   UNL     1      41.700  -9.903   8.794  1.00  0.00     0.009 A 
HETATM   34  C   UNL     1      41.743 -10.400   7.487  1.00  0.00     0.016 A 
BRANCH  32  35
HETATM   35  C   UNL     1      40.629  -9.659  11.101  1.00  0.00    -0.024 C 
HETATM   36  C   UNL     1      39.663  -8.476  11.340  1.00  0.00     0.019 C 
HETATM   37  C   UNL     1      42.052  -9.182  11.458  1.00  0.00     0.019 C 
HETATM   38  C   UNL     1      40.210 -10.780  12.081  1.00  0.00     0.019 C 
ENDBRANCH  32  35
ENDBRANCH   1  29
TORSDOF 7
ENDMDL
MODEL 6
REMARK VINA RESULT:      -7.9      3.088      6.443
REMARK  7 active torsions:
REMARK  status: ('A' for Active; 'I' for Inactive)
REMARK    1  A    between atoms: C_2  and  C_3 
REMARK    2  A    between atoms: C_6  and  C_7 
REMARK    3  A    between atoms: N_8  and  C_9 
REMARK    4  A    between atoms: C_14  and  S_15 
REMARK    5  A    between atoms: S_15  and  C_16 
REMARK    6  A    between atoms: C_16  and  C_17 
REMARK       I    between atoms: C_17  and  N_18 
REMARK    7  A    between atoms: N_18  and  C_19 
ROOT
HETATM    1  C   UNL     1      40.737 -13.035   2.405  1.00  0.00     0.164 C 
HETATM    2  N   UNL     1      40.986 -14.083   3.279  1.00  0.00    -0.302 N 
HETATM    3  C   UNL     1      41.072 -13.490   4.512  1.00  0.00     0.192 C 
HETATM    4  N   UNL     1      41.174 -12.190   4.366  1.00  0.00    -0.122 NA
HETATM    5  N   UNL     1      40.953 -11.902   3.053  1.00  0.00    -0.128 NA
ENDROOT
BRANCH   3   6
HETATM    6  S   UNL     1      40.945 -14.295   6.034  1.00  0.00    -0.081 SA
BRANCH   6   7
HETATM    7  C   UNL     1      42.632 -14.937   6.253  1.00  0.00     0.185 C 
BRANCH   7   8
HETATM    8  C   UNL     1      42.714 -16.455   6.112  1.00  0.00     0.231 C 
HETATM    9  N   UNL     1      43.680 -16.872   5.215  1.00  0.00    -0.326 N 
HETATM   10  H   UNL     1      44.373 -16.173   4.943  1.00  0.00     0.169 HD
HETATM   11  O   UNL     1      41.945 -17.189   6.730  1.00  0.00    -0.272 OA
BRANCH   9  12
HETATM   12  C   UNL     1      43.903 -18.167   4.706  1.00  0.00     0.037 A 
HETATM   13  C   UNL     1      43.517 -18.570   3.424  1.00  0.00     0.061 A 
HETATM   14  C   UNL     1      43.866 -19.848   3.043  1.00  0.00     0.065 A 
HETATM   15  C   UNL     1      44.558 -20.717   3.883  1.00  0.00     0.063 A 
HETATM   16  N   UNL     1      43.655 -20.504   1.835  1.00  0.00    -0.306 N 
HETATM   17  N   UNL     1      44.768 -21.907   3.195  1.00  0.00    -0.307 N 
HETATM   18  C   UNL     1      44.938 -20.360   5.152  1.00  0.00     0.034 A 
HETATM   19  C   UNL     1      44.216 -21.787   1.911  1.00  0.00     0.325 A 
HETATM   20  H   UNL     1      45.246 -22.728   3.525  1.00  0.00     0.170 HD
HETATM   21  O   UNL     1      44.228 -22.633   1.034  1.00  0.00    -0.247 OA
HETATM   22  C   UNL     1      44.606 -19.062   5.557  1.00  0.00     0.032 A 
HETATM   23  H   UNL     1      43.194 -20.138   1.018  1.00  0.00     0.170 HD
ENDBRANCH   9  12
ENDBRANCH   7   8
ENDBRANCH   6   7
ENDBRANCH   3   6
BRANCH   2  24
HETATM   24  C   UNL     1      41.277 -15.450   2.903  1.00  0.00     0.094 C 
HETATM   25  C   UNL     1      40.066 -16.256   2.405  1.00  0.00     0.026 C 
HETATM   26  C   UNL     1      40.699 -17.375   1.596  1.00  0.00     0.002 C 
HETATM   27  C   UNL     1      41.827 -16.674   0.857  1.00  0.00     0.002 C 
HETATM   28  C   UNL     1      42.378 -15.649   1.849  1.00  0.00     0.026 C 
ENDBRANCH   2  24
BRANCH   1  29
HETATM   29  C   UNL     1      40.290 -13.116   1.015  1.00  0.00     0.012 A 
HETATM   30  C   UNL     1      41.174 -12.949  -0.055  1.00  0.00     0.016 A 
HETATM   31  C   UNL     1      40.746 -13.130  -1.377  1.00  0.00     0.009 A 
HETATM   32  C   UNL     1      39.425 -13.505  -1.674  1.00  0.00    -0.051 A 
HETATM   33  C   UNL     1      38.544 -13.655  -0.588  1.00  0.00     0.009 A 
HETATM   34  C   UNL     1      38.969 -13.474   0.733  1.00  0.00     0.016 A 
BRANCH  32  35
HETATM   35  C   UNL     1      38.937 -13.758  -3.110  1.00  0.00    -0.024 C 
HETATM   36  C   UNL     1      39.787 -14.793  -3.882  1.00  0.00     0.019 C 
HETATM   37  C   UNL     1      38.982 -12.433  -3.899  1.00  0.00     0.019 C 
HETATM   38  C   UNL     1      37.487 -14.294  -3.100  1.00  0.00     0.019 C 
ENDBRANCH  32  35
ENDBRANCH   1  29
TORSDOF 7
ENDMDL
MODEL 7
REMARK VINA RESULT:      -7.8      4.262      7.821
REMARK  7 active torsions:
REMARK  status: ('A' for Active; 'I' for Inactive)
REMARK    1  A    between atoms: C_2  and  C_3 
REMARK    2  A    between atoms: C_6  and  C_7 
REMARK    3  A    between atoms: N_8  and  C_9 
REMARK    4  A    between atoms: C_14  and  S_15 
REMARK    5  A    between atoms: S_15  and  C_16 
REMARK    6  A    between atoms: C_16  and  C_17 
REMARK       I    between atoms: C_17  and  N_18 
REMARK    7  A    between atoms: N_18  and  C_19 
ROOT
HETATM    1  C   UNL     1      41.896 -12.022  -0.737  1.00  0.00     0.164 C 
HETATM    2  N   UNL     1      41.079 -13.055  -0.304  1.00  0.00    -0.302 N 
HETATM    3  C   UNL     1      41.374 -13.191   1.028  1.00  0.00     0.192 C 
HETATM    4  N   UNL     1      42.471 -12.526   1.303  1.00  0.00    -0.122 NA
HETATM    5  N   UNL     1      42.793 -11.784   0.206  1.00  0.00    -0.128 NA
ENDROOT
BRANCH   3   6
HETATM    6  S   UNL     1      40.403 -14.003   2.202  1.00  0.00    -0.081 SA
BRANCH   6   7
HETATM    7  C   UNL     1      41.576 -14.197   3.579  1.00  0.00     0.185 C 
BRANCH   7   8
HETATM    8  C   UNL     1      41.836 -15.659   3.937  1.00  0.00     0.231 C 
HETATM    9  N   UNL     1      43.050 -16.130   3.472  1.00  0.00    -0.326 N 
HETATM   10  H   UNL     1      43.722 -15.422   3.172  1.00  0.00     0.169 HD
HETATM   11  O   UNL     1      40.998 -16.318   4.548  1.00  0.00    -0.272 OA
BRANCH   9  12
HETATM   12  C   UNL     1      43.527 -17.455   3.456  1.00  0.00     0.037 A 
HETATM   13  C   UNL     1      43.934 -18.144   4.603  1.00  0.00     0.061 A 
HETATM   14  C   UNL     1      44.311 -19.459   4.437  1.00  0.00     0.065 A 
HETATM   15  C   UNL     1      44.309 -20.088   3.194  1.00  0.00     0.063 A 
HETATM   16  N   UNL     1      44.721 -20.393   5.384  1.00  0.00    -0.306 N 
HETATM   17  N   UNL     1      44.721 -21.404   3.375  1.00  0.00    -0.307 N 
HETATM   18  C   UNL     1      43.932 -19.438   2.047  1.00  0.00     0.034 A 
HETATM   19  C   UNL     1      44.975 -21.612   4.739  1.00  0.00     0.325 A 
HETATM   20  H   UNL     1      44.814 -22.118   2.673  1.00  0.00     0.170 HD
HETATM   21  O   UNL     1      45.340 -22.651   5.259  1.00  0.00    -0.247 OA
HETATM   22  C   UNL     1      43.531 -18.105   2.192  1.00  0.00     0.032 A 
HETATM   23  H   UNL     1      44.813 -20.250   6.376  1.00  0.00     0.170 HD
ENDBRANCH   9  12
ENDBRANCH   7   8
ENDBRANCH   6   7
ENDBRANCH   3   6
BRANCH   2  24
HETATM   24  C   UNL     1      40.260 -13.899  -1.146  1.00  0.00     0.094 C 
HETATM   25  C   UNL     1      39.104 -13.177  -1.857  1.00  0.00     0.026 C 
HETATM   26  C   UNL     1      38.787 -14.091  -3.029  1.00  0.00     0.002 C 
HETATM   27  C   UNL     1      40.162 -14.527  -3.509  1.00  0.00     0.002 C 
HETATM   28  C   UNL     1      40.996 -14.694  -2.238  1.00  0.00     0.026 C 
ENDBRANCH   2  24
BRANCH   1  29
HETATM   29  C   UNL     1      41.809 -11.278  -1.994  1.00  0.00     0.012 A 
HETATM   30  C   UNL     1      42.496 -11.685  -3.141  1.00  0.00     0.016 A 
HETATM   31  C   UNL     1      42.319 -11.017  -4.360  1.00  0.00     0.009 A 
HETATM   32  C   UNL     1      41.434  -9.934  -4.479  1.00  0.00    -0.051 A 
HETATM   33  C   UNL     1      40.760  -9.527  -3.313  1.00  0.00     0.009 A 
HETATM   34  C   UNL     1      40.936 -10.192  -2.094  1.00  0.00     0.016 A 
BRANCH  32  35
HETATM   35  C   UNL     1      41.181  -9.210  -5.814  1.00  0.00    -0.024 C 
HETATM   36  C   UNL     1      42.474  -8.776  -6.540  1.00  0.00     0.019 C 
HETATM   37  C   UNL     1      40.344  -7.943  -5.549  1.00  0.00     0.019 C 
HETATM   38  C   UNL     1      40.412 -10.132  -6.789  1.00  0.00     0.019 C 
ENDBRANCH  32  35
ENDBRANCH   1  29
TORSDOF 7
ENDMDL
MODEL 8
REMARK VINA RESULT:      -7.8      4.247      7.151
REMARK  7 active torsions:
REMARK  status: ('A' for Active; 'I' for Inactive)
REMARK    1  A    between atoms: C_2  and  C_3 
REMARK    2  A    between atoms: C_6  and  C_7 
REMARK    3  A    between atoms: N_8  and  C_9 
REMARK    4  A    between atoms: C_14  and  S_15 
REMARK    5  A    between atoms: S_15  and  C_16 
REMARK    6  A    between atoms: C_16  and  C_17 
REMARK       I    between atoms: C_17  and  N_18 
REMARK    7  A    between atoms: N_18  and  C_19 
ROOT
HETATM    1  C   UNL     1      40.375 -14.042   5.179  1.00  0.00     0.164 C 
HETATM    2  N   UNL     1      40.066 -13.524   3.930  1.00  0.00    -0.302 N 
HETATM    3  C   UNL     1      39.441 -12.334   4.197  1.00  0.00     0.192 C 
HETATM    4  N   UNL     1      39.126 -12.280   5.469  1.00  0.00    -0.122 NA
HETATM    5  N   UNL     1      39.719 -13.339   6.088  1.00  0.00    -0.128 NA
ENDROOT
BRANCH   3   6
HETATM    6  S   UNL     1      39.203 -11.042   3.076  1.00  0.00    -0.081 SA
BRANCH   6   7
HETATM    7  C   UNL     1      40.842 -10.924   2.297  1.00  0.00     0.185 C 
BRANCH   7   8
HETATM    8  C   UNL     1      40.857 -11.445   0.862  1.00  0.00     0.231 C 
HETATM    9  N   UNL     1      39.598 -11.722   0.365  1.00  0.00    -0.326 N 
HETATM   10  H   UNL     1      38.812 -11.333   0.889  1.00  0.00     0.169 HD
HETATM   11  O   UNL     1      41.918 -11.620   0.265  1.00  0.00    -0.272 OA
BRANCH   9  12
HETATM   12  C   UNL     1      39.253 -12.381  -0.832  1.00  0.00     0.037 A 
HETATM   13  C   UNL     1      39.697 -13.665  -1.163  1.00  0.00     0.061 A 
HETATM   14  C   UNL     1      39.218 -14.205  -2.337  1.00  0.00     0.065 A 
HETATM   15  C   UNL     1      38.344 -13.517  -3.176  1.00  0.00     0.063 A 
HETATM   16  N   UNL     1      39.450 -15.456  -2.899  1.00  0.00    -0.306 N 
HETATM   17  N   UNL     1      38.043 -14.342  -4.254  1.00  0.00    -0.307 N 
HETATM   18  C   UNL     1      37.901 -12.251  -2.890  1.00  0.00     0.034 A 
HETATM   19  C   UNL     1      38.720 -15.559  -4.092  1.00  0.00     0.325 A 
HETATM   20  H   UNL     1      37.432 -14.139  -5.027  1.00  0.00     0.170 HD
HETATM   21  O   UNL     1      38.676 -16.519  -4.841  1.00  0.00    -0.247 OA
HETATM   22  C   UNL     1      38.363 -11.687  -1.695  1.00  0.00     0.032 A 
HETATM   23  H   UNL     1      40.027 -16.192  -2.526  1.00  0.00     0.170 HD
ENDBRANCH   9  12
ENDBRANCH   7   8
ENDBRANCH   6   7
ENDBRANCH   3   6
BRANCH   2  24
HETATM   24  C   UNL     1      40.213 -14.213   2.666  1.00  0.00     0.094 C 
HETATM   25  C   UNL     1      41.649 -14.646   2.329  1.00  0.00     0.026 C 
HETATM   26  C   UNL     1      41.450 -15.762   1.317  1.00  0.00     0.002 C 
HETATM   27  C   UNL     1      40.261 -16.528   1.875  1.00  0.00     0.002 C 
HETATM   28  C   UNL     1      39.337 -15.460   2.462  1.00  0.00     0.026 C 
ENDBRANCH   2  24
BRANCH   1  29
HETATM   29  C   UNL     1      41.278 -15.149   5.490  1.00  0.00     0.012 A 
HETATM   30  C   UNL     1      40.831 -16.473   5.546  1.00  0.00     0.016 A 
HETATM   31  C   UNL     1      41.730 -17.529   5.745  1.00  0.00     0.009 A 
HETATM   32  C   UNL     1      43.109 -17.300   5.876  1.00  0.00    -0.051 A 
HETATM   33  C   UNL     1      43.543 -15.963   5.832  1.00  0.00     0.009 A 
HETATM   34  C   UNL     1      42.646 -14.906   5.633  1.00  0.00     0.016 A 
BRANCH  32  35
HETATM   35  C   UNL     1      44.127 -18.441   6.048  1.00  0.00    -0.024 C 
HETATM   36  C   UNL     1      45.549 -17.955   6.410  1.00  0.00     0.019 C 
HETATM   37  C   UNL     1      44.225 -19.232   4.728  1.00  0.00     0.019 C 
HETATM   38  C   UNL     1      43.682 -19.395   7.180  1.00  0.00     0.019 C 
ENDBRANCH  32  35
ENDBRANCH   1  29
TORSDOF 7
ENDMDL
MODEL 9
REMARK VINA RESULT:      -7.8      4.372      9.932
REMARK  7 active torsions:
REMARK  status: ('A' for Active; 'I' for Inactive)
REMARK    1  A    between atoms: C_2  and  C_3 
REMARK    2  A    between atoms: C_6  and  C_7 
REMARK    3  A    between atoms: N_8  and  C_9 
REMARK    4  A    between atoms: C_14  and  S_15 
REMARK    5  A    between atoms: S_15  and  C_16 
REMARK    6  A    between atoms: C_16  and  C_17 
REMARK       I    between atoms: C_17  and  N_18 
REMARK    7  A    between atoms: N_18  and  C_19 
ROOT
HETATM    1  C   UNL     1      42.644 -15.438   4.775  1.00  0.00     0.164 C 
HETATM    2  N   UNL     1      41.880 -14.443   4.182  1.00  0.00    -0.302 N 
HETATM    3  C   UNL     1      42.111 -13.330   4.948  1.00  0.00     0.192 C 
HETATM    4  N   UNL     1      42.702 -13.682   6.065  1.00  0.00    -0.122 NA
HETATM    5  N   UNL     1      43.048 -14.996   5.955  1.00  0.00    -0.128 NA
ENDROOT
BRANCH   3   6
HETATM    6  S   UNL     1      41.791 -11.698   4.484  1.00  0.00    -0.081 SA
BRANCH   6   7
HETATM    7  C   UNL     1      40.727 -11.130   5.845  1.00  0.00     0.185 C 
BRANCH   7   8
HETATM    8  C   UNL     1      41.502 -10.411   6.947  1.00  0.00     0.231 C 
HETATM    9  N   UNL     1      41.728 -11.197   8.062  1.00  0.00    -0.326 N 
HETATM   10  H   UNL     1      41.583 -12.201   7.941  1.00  0.00     0.169 HD
HETATM   11  O   UNL     1      41.836  -9.235   6.820  1.00  0.00    -0.272 OA
BRANCH   9  12
HETATM   12  C   UNL     1      42.238 -10.812   9.317  1.00  0.00     0.037 A 
HETATM   13  C   UNL     1      41.431 -10.494  10.414  1.00  0.00     0.061 A 
HETATM   14  C   UNL     1      42.076 -10.203  11.596  1.00  0.00     0.065 A 
HETATM   15  C   UNL     1      43.465 -10.204  11.712  1.00  0.00     0.063 A 
HETATM   16  N   UNL     1      41.547  -9.892  12.845  1.00  0.00    -0.306 N 
HETATM   17  N   UNL     1      43.788  -9.890  13.028  1.00  0.00    -0.307 N 
HETATM   18  C   UNL     1      44.286 -10.495  10.653  1.00  0.00     0.034 A 
HETATM   19  C   UNL     1      42.601  -9.700  13.750  1.00  0.00     0.325 A 
HETATM   20  H   UNL     1      44.707  -9.822  13.432  1.00  0.00     0.170 HD
HETATM   21  O   UNL     1      42.507  -9.426  14.933  1.00  0.00    -0.247 OA
HETATM   22  C   UNL     1      43.653 -10.808   9.445  1.00  0.00     0.032 A 
HETATM   23  H   UNL     1      40.573  -9.825  13.092  1.00  0.00     0.170 HD
ENDBRANCH   9  12
ENDBRANCH   7   8
ENDBRANCH   6   7
ENDBRANCH   3   6
BRANCH   2  24
HETATM   24  C   UNL     1      40.921 -14.633   3.116  1.00  0.00     0.094 C 
HETATM   25  C   UNL     1      41.475 -14.411   1.699  1.00  0.00     0.026 C 
HETATM   26  C   UNL     1      40.503 -15.176   0.818  1.00  0.00     0.002 C 
HETATM   27  C   UNL     1      40.231 -16.440   1.618  1.00  0.00     0.002 C 
HETATM   28  C   UNL     1      40.200 -15.990   3.079  1.00  0.00     0.026 C 
ENDBRANCH   2  24
BRANCH   1  29
HETATM   29  C   UNL     1      42.990 -16.748   4.225  1.00  0.00     0.012 A 
HETATM   30  C   UNL     1      43.651 -16.883   3.000  1.00  0.00     0.016 A 
HETATM   31  C   UNL     1      44.063 -18.140   2.540  1.00  0.00     0.009 A 
HETATM   32  C   UNL     1      43.847 -19.303   3.296  1.00  0.00    -0.051 A 
HETATM   33  C   UNL     1      43.168 -19.154   4.519  1.00  0.00     0.009 A 
HETATM   34  C   UNL     1      42.755 -17.899   4.981  1.00  0.00     0.016 A 
BRANCH  32  35
HETATM   35  C   UNL     1      44.329 -20.692   2.841  1.00  0.00    -0.024 C 
HETATM   36  C   UNL     1      44.558 -21.682   4.005  1.00  0.00     0.019 C 
HETATM   37  C   UNL     1      45.666 -20.538   2.087  1.00  0.00     0.019 C 
HETATM   38  C   UNL     1      43.288 -21.343   1.901  1.00  0.00     0.019 C 
ENDBRANCH  32  35
ENDBRANCH   1  29
TORSDOF 7
ENDMDL
MODEL 10
REMARK VINA RESULT:      -7.5      3.518      8.715
REMARK  7 active torsions:
REMARK  status: ('A' for Active; 'I' for Inactive)
REMARK    1  A    between atoms: C_2  and  C_3 
REMARK    2  A    between atoms: C_6  and  C_7 
REMARK    3  A    between atoms: N_8  and  C_9 
REMARK    4  A    between atoms: C_14  and  S_15 
REMARK    5  A    between atoms: S_15  and  C_16 
REMARK    6  A    between atoms: C_16  and  C_17 
REMARK       I    between atoms: C_17  and  N_18 
REMARK    7  A    between atoms: N_18  and  C_19 
ROOT
HETATM    1  C   UNL     1      40.885 -15.575   2.718  1.00  0.00     0.164 C 
HETATM    2  N   UNL     1      40.753 -14.258   3.133  1.00  0.00    -0.302 N 
HETATM    3  C   UNL     1      39.652 -13.795   2.461  1.00  0.00     0.192 C 
HETATM    4  N   UNL     1      39.333 -14.639   1.509  1.00  0.00    -0.122 NA
HETATM    5  N   UNL     1      40.093 -15.758   1.674  1.00  0.00    -0.128 NA
ENDROOT
BRANCH   3   6
HETATM    6  S   UNL     1      38.738 -12.387   2.865  1.00  0.00    -0.081 SA
BRANCH   6   7
HETATM    7  C   UNL     1      40.016 -11.094   2.823  1.00  0.00     0.185 C 
BRANCH   7   8
HETATM    8  C   UNL     1      40.381 -10.572   4.211  1.00  0.00     0.231 C 
HETATM    9  N   UNL     1      39.517 -10.999   5.202  1.00  0.00    -0.326 N 
HETATM   10  H   UNL     1      38.905 -11.780   4.959  1.00  0.00     0.169 HD
HETATM   11  O   UNL     1      41.338  -9.817   4.370  1.00  0.00    -0.272 OA
BRANCH   9  12
HETATM   12  C   UNL     1      39.441 -10.571   6.542  1.00  0.00     0.037 A 
HETATM   13  C   UNL     1      39.674 -11.410   7.636  1.00  0.00     0.061 A 
HETATM   14  C   UNL     1      39.631 -10.830   8.885  1.00  0.00     0.065 A 
HETATM   15  C   UNL     1      39.356  -9.478   9.074  1.00  0.00     0.063 A 
HETATM   16  N   UNL     1      39.856 -11.396  10.136  1.00  0.00    -0.306 N 
HETATM   17  N   UNL     1      39.407  -9.213  10.438  1.00  0.00    -0.307 N 
HETATM   18  C   UNL     1      39.106  -8.629   8.025  1.00  0.00     0.034 A 
HETATM   19  C   UNL     1      39.725 -10.399  11.114  1.00  0.00     0.325 A 
HETATM   20  H   UNL     1      39.263  -8.328  10.895  1.00  0.00     0.170 HD
HETATM   21  O   UNL     1      39.865 -10.534  12.317  1.00  0.00    -0.247 OA
HETATM   22  C   UNL     1      39.158  -9.193   6.745  1.00  0.00     0.032 A 
HETATM   23  H   UNL     1      40.092 -12.354  10.336  1.00  0.00     0.170 HD
ENDBRANCH   9  12
ENDBRANCH   7   8
ENDBRANCH   6   7
ENDBRANCH   3   6
BRANCH   2  24
HETATM   24  C   UNL     1      41.703 -13.524   3.941  1.00  0.00     0.094 C 
HETATM   25  C   UNL     1      41.629 -13.814   5.449  1.00  0.00     0.026 C 
HETATM   26  C   UNL     1      42.999 -13.393   5.954  1.00  0.00     0.002 C 
HETATM   27  C   UNL     1      43.938 -13.892   4.867  1.00  0.00     0.002 C 
HETATM   28  C   UNL     1      43.184 -13.670   3.555  1.00  0.00     0.026 C 
ENDBRANCH   2  24
BRANCH   1  29
HETATM   29  C   UNL     1      41.717 -16.621   3.312  1.00  0.00     0.012 A 
HETATM   30  C   UNL     1      42.884 -17.075   2.691  1.00  0.00     0.016 A 
HETATM   31  C   UNL     1      43.721 -18.005   3.323  1.00  0.00     0.009 A 
HETATM   32  C   UNL     1      43.430 -18.497   4.606  1.00  0.00    -0.051 A 
HETATM   33  C   UNL     1      42.245 -18.042   5.212  1.00  0.00     0.009 A 
HETATM   34  C   UNL     1      41.408 -17.114   4.582  1.00  0.00     0.016 A 
BRANCH  32  35
HETATM   35  C   UNL     1      44.352 -19.481   5.347  1.00  0.00    -0.024 C 
HETATM   36  C   UNL     1      43.613 -20.378   6.365  1.00  0.00     0.019 C 
HETATM   37  C   UNL     1      45.425 -18.684   6.117  1.00  0.00     0.019 C 
HETATM   38  C   UNL     1      45.048 -20.428   4.342  1.00  0.00     0.019 C 
ENDBRANCH  32  35
ENDBRANCH   1  29
TORSDOF 7
ENDMDL
