MODEL 1
REMARK VINA RESULT:      -8.2      0.000      0.000
REMARK  10 active torsions:
REMARK  status: ('A' for Active; 'I' for Inactive)
REMARK    1  A    between atoms: C_3  and  C_4 
REMARK    2  A    between atoms: C_4  and  C_5 
REMARK       I    between atoms: C_5  and  N_6 
REMARK    3  A    between atoms: N_6  and  C_7 
REMARK    4  A    between atoms: C_7  and  C_8 
REMARK    5  A    between atoms: C_18  and  N_19 
REMARK    6  A    between atoms: N_19  and  C_20 
REMARK    7  A    between atoms: C_20  and  C_21 
REMARK    8  A    between atoms: C_26  and  C_27 
REMARK    9  A    between atoms: C_27  and  O_28 
REMARK   10  A    between atoms: C_30  and  O_31 
ROOT
HETATM    1  C   UNL     1      44.090 -14.393   3.230  1.00  0.00     0.016 C 
HETATM    2  C   UNL     1      42.834 -15.316   3.048  1.00  0.00    -0.030 C 
HETATM    3  C   UNL     1      42.249 -15.508   4.536  1.00  0.00     0.056 C 
HETATM    4  C   UNL     1      41.248 -14.426   4.858  1.00  0.00     0.056 A 
HETATM    5  C   UNL     1      40.817 -13.463   3.979  1.00  0.00     0.012 A 
HETATM    6  S   UNL     1      39.697 -12.424   4.731  1.00  0.00    -0.055 SA
HETATM    7  C   UNL     1      39.914 -13.279   6.212  1.00  0.00     0.167 A 
HETATM    8  N   UNL     1      40.739 -14.297   6.136  1.00  0.00    -0.228 NA
HETATM    9  C   UNL     1      41.265 -13.275   2.580  1.00  0.00     0.055 C 
HETATM   10  C   UNL     1      41.873 -14.580   2.003  1.00  0.00     0.012 C 
HETATM   11  C   UNL     1      40.835 -15.475   1.208  1.00  0.00     0.008 C 
HETATM   12  C   UNL     1      40.342 -14.696  -0.051  1.00  0.00     0.020 C 
HETATM   13  C   UNL     1      41.563 -16.745   0.675  1.00  0.00     0.128 C 
HETATM   14  C   UNL     1      42.338 -17.501   1.745  1.00  0.00     0.033 C 
HETATM   15  C   UNL     1      43.384 -16.617   2.408  1.00  0.00     0.013 C 
ENDROOT
BRANCH   3  16
HETATM   16  C   UNL     1      41.746 -16.917   4.905  1.00  0.00     0.114 C 
BRANCH  16  17
HETATM   17  C   UNL     1      42.443 -17.530   6.107  1.00  0.00     0.218 C 
HETATM   18  N   UNL     1      43.613 -18.213   5.937  1.00  0.00    -0.357 N 
HETATM   19  H   UNL     1      44.047 -18.464   6.814  1.00  0.00     0.162 HD
HETATM   20  O   UNL     1      42.007 -17.361   7.247  1.00  0.00    -0.274 OA
BRANCH  18  21
HETATM   21  C   UNL     1      44.287 -18.518   4.691  1.00  0.00     0.162 C 
BRANCH  21  22
HETATM   22  C   UNL     1      44.435 -19.975   4.354  1.00  0.00    -0.023 A 
HETATM   23  C   UNL     1      44.640 -20.987   5.285  1.00  0.00     0.125 A 
HETATM   24  N   UNL     1      44.752 -22.303   4.979  1.00  0.00    -0.273 NA
HETATM   25  C   UNL     1      44.641 -22.635   3.677  1.00  0.00     0.116 A 
HETATM   26  C   UNL     1      44.433 -21.715   2.666  1.00  0.00     0.020 A 
HETATM   27  C   UNL     1      44.333 -20.371   3.013  1.00  0.00     0.012 A 
ENDBRANCH  21  22
ENDBRANCH  18  21
ENDBRANCH  16  17
ENDBRANCH   3  16
BRANCH  11  28
HETATM   28  C   UNL     1      39.568 -15.824   2.031  1.00  0.00     0.176 C 
BRANCH  28  29
HETATM   29  O   UNL     1      38.390 -15.185   1.547  1.00  0.00    -0.400 OA
HETATM   30  H   UNL     1      37.765 -15.148   2.304  1.00  0.00     0.209 HD
ENDBRANCH  28  29
ENDBRANCH  11  28
BRANCH   7  31
HETATM   31  N   UNL     1      39.253 -12.877   7.316  1.00  0.00    -0.366 N 
HETATM   32  H   UNL     1      38.394 -13.348   7.564  1.00  0.00     0.162 HD
BRANCH  31  33
HETATM   33  C   UNL     1      39.372 -11.520   7.796  1.00  0.00     0.148 C 
BRANCH  33  34
HETATM   34  C   UNL     1      39.398 -11.464   9.301  1.00  0.00    -0.018 C 
HETATM   35  C   UNL     1      40.216 -10.767  10.102  1.00  0.00     0.008 C 
ENDBRANCH  33  34
ENDBRANCH  31  33
ENDBRANCH   7  31
BRANCH  13  36
HETATM   36  O   UNL     1      40.631 -17.652   0.080  1.00  0.00    -0.395 OA
HETATM   37  H   UNL     1      39.866 -17.126  -0.220  1.00  0.00     0.210 HD
ENDBRANCH  13  36
TORSDOF 10
ENDMDL
MODEL 2
REMARK VINA RESULT:      -8.0      3.176      7.768
REMARK  10 active torsions:
REMARK  status: ('A' for Active; 'I' for Inactive)
REMARK    1  A    between atoms: C_3  and  C_4 
REMARK    2  A    between atoms: C_4  and  C_5 
REMARK       I    between atoms: C_5  and  N_6 
REMARK    3  A    between atoms: N_6  and  C_7 
REMARK    4  A    between atoms: C_7  and  C_8 
REMARK    5  A    between atoms: C_18  and  N_19 
REMARK    6  A    between atoms: N_19  and  C_20 
REMARK    7  A    between atoms: C_20  and  C_21 
REMARK    8  A    between atoms: C_26  and  C_27 
REMARK    9  A    between atoms: C_27  and  O_28 
REMARK   10  A    between atoms: C_30  and  O_31 
ROOT
HETATM    1  C   UNL     1      39.914 -15.216   5.829  1.00  0.00     0.016 C 
HETATM    2  C   UNL     1      40.957 -14.307   5.090  1.00  0.00    -0.030 C 
HETATM    3  C   UNL     1      42.340 -15.128   5.165  1.00  0.00     0.056 C 
HETATM    4  C   UNL     1      42.482 -16.041   3.972  1.00  0.00     0.056 A 
HETATM    5  C   UNL     1      41.606 -16.101   2.915  1.00  0.00     0.012 A 
HETATM    6  S   UNL     1      42.115 -17.264   1.781  1.00  0.00    -0.055 SA
HETATM    7  C   UNL     1      43.437 -17.674   2.809  1.00  0.00     0.167 A 
HETATM    8  N   UNL     1      43.512 -16.959   3.908  1.00  0.00    -0.228 NA
HETATM    9  C   UNL     1      40.355 -15.324   2.755  1.00  0.00     0.055 C 
HETATM   10  C   UNL     1      40.375 -14.040   3.625  1.00  0.00     0.012 C 
HETATM   11  C   UNL     1      40.889 -12.752   2.857  1.00  0.00     0.008 C 
HETATM   12  C   UNL     1      39.898 -12.414   1.700  1.00  0.00     0.020 C 
HETATM   13  C   UNL     1      40.855 -11.534   3.828  1.00  0.00     0.128 C 
HETATM   14  C   UNL     1      41.562 -11.788   5.152  1.00  0.00     0.033 C 
HETATM   15  C   UNL     1      40.963 -12.977   5.887  1.00  0.00     0.013 C 
ENDROOT
BRANCH   3  16
HETATM   16  C   UNL     1      43.616 -14.311   5.448  1.00  0.00     0.114 C 
BRANCH  16  17
HETATM   17  C   UNL     1      44.315 -14.680   6.745  1.00  0.00     0.218 C 
HETATM   18  N   UNL     1      44.439 -13.750   7.736  1.00  0.00    -0.357 N 
HETATM   19  H   UNL     1      44.805 -14.141   8.592  1.00  0.00     0.162 HD
HETATM   20  O   UNL     1      44.710 -15.830   6.947  1.00  0.00    -0.274 OA
BRANCH  18  21
HETATM   21  C   UNL     1      44.043 -12.356   7.697  1.00  0.00     0.162 C 
BRANCH  21  22
HETATM   22  C   UNL     1      44.033 -11.629   9.013  1.00  0.00    -0.023 A 
HETATM   23  C   UNL     1      42.972 -10.866   9.488  1.00  0.00     0.125 A 
HETATM   24  N   UNL     1      42.958 -10.230  10.685  1.00  0.00    -0.273 NA
HETATM   25  C   UNL     1      44.053 -10.370  11.460  1.00  0.00     0.116 A 
HETATM   26  C   UNL     1      45.163 -11.108  11.092  1.00  0.00     0.020 A 
HETATM   27  C   UNL     1      45.150 -11.740   9.852  1.00  0.00     0.012 A 
ENDBRANCH  21  22
ENDBRANCH  18  21
ENDBRANCH  16  17
ENDBRANCH   3  16
BRANCH  11  28
HETATM   28  C   UNL     1      42.280 -12.944   2.200  1.00  0.00     0.176 C 
BRANCH  28  29
HETATM   29  O   UNL     1      42.561 -11.981   1.188  1.00  0.00    -0.400 OA
HETATM   30  H   UNL     1      43.128 -11.296   1.607  1.00  0.00     0.209 HD
ENDBRANCH  28  29
ENDBRANCH  11  28
BRANCH   7  31
HETATM   31  N   UNL     1      44.283 -18.658   2.445  1.00  0.00    -0.366 N 
HETATM   32  H   UNL     1      44.706 -18.617   1.527  1.00  0.00     0.162 HD
BRANCH  31  33
HETATM   33  C   UNL     1      44.167 -19.980   3.012  1.00  0.00     0.148 C 
BRANCH  33  34
HETATM   34  C   UNL     1      43.545 -20.948   2.038  1.00  0.00    -0.018 C 
HETATM   35  C   UNL     1      44.123 -21.962   1.377  1.00  0.00     0.008 C 
ENDBRANCH  33  34
ENDBRANCH  31  33
ENDBRANCH   7  31
BRANCH  13  36
HETATM   36  O   UNL     1      41.451 -10.385   3.220  1.00  0.00    -0.395 OA
HETATM   37  H   UNL     1      41.262  -9.621   3.797  1.00  0.00     0.210 HD
ENDBRANCH  13  36
TORSDOF 10
ENDMDL
MODEL 3
REMARK VINA RESULT:      -7.8      2.716      5.664
REMARK  10 active torsions:
REMARK  status: ('A' for Active; 'I' for Inactive)
REMARK    1  A    between atoms: C_3  and  C_4 
REMARK    2  A    between atoms: C_4  and  C_5 
REMARK       I    between atoms: C_5  and  N_6 
REMARK    3  A    between atoms: N_6  and  C_7 
REMARK    4  A    between atoms: C_7  and  C_8 
REMARK    5  A    between atoms: C_18  and  N_19 
REMARK    6  A    between atoms: N_19  and  C_20 
REMARK    7  A    between atoms: C_20  and  C_21 
REMARK    8  A    between atoms: C_26  and  C_27 
REMARK    9  A    between atoms: C_27  and  O_28 
REMARK   10  A    between atoms: C_30  and  O_31 
ROOT
HETATM    1  C   UNL     1      40.583 -17.283   5.145  1.00  0.00     0.016 C 
HETATM    2  C   UNL     1      41.662 -16.220   4.732  1.00  0.00    -0.030 C 
HETATM    3  C   UNL     1      41.809 -16.388   3.137  1.00  0.00     0.056 C 
HETATM    4  C   UNL     1      40.834 -15.490   2.416  1.00  0.00     0.056 A 
HETATM    5  C   UNL     1      40.000 -14.582   3.022  1.00  0.00     0.012 A 
HETATM    6  S   UNL     1      39.049 -13.775   1.863  1.00  0.00    -0.055 SA
HETATM    7  C   UNL     1      39.756 -14.744   0.624  1.00  0.00     0.167 A 
HETATM    8  N   UNL     1      40.670 -15.586   1.047  1.00  0.00    -0.228 NA
HETATM    9  C   UNL     1      39.867 -14.334   4.476  1.00  0.00     0.055 C 
HETATM   10  C   UNL     1      41.129 -14.803   5.245  1.00  0.00     0.012 C 
HETATM   11  C   UNL     1      42.201 -13.659   5.477  1.00  0.00     0.008 C 
HETATM   12  C   UNL     1      41.586 -12.556   6.393  1.00  0.00     0.020 C 
HETATM   13  C   UNL     1      43.411 -14.249   6.262  1.00  0.00     0.128 C 
HETATM   14  C   UNL     1      43.984 -15.516   5.642  1.00  0.00     0.033 C 
HETATM   15  C   UNL     1      42.932 -16.609   5.531  1.00  0.00     0.013 C 
ENDROOT
BRANCH   3  16
HETATM   16  C   UNL     1      43.236 -16.306   2.561  1.00  0.00     0.114 C 
BRANCH  16  17
HETATM   17  C   UNL     1      43.573 -17.412   1.577  1.00  0.00     0.218 C 
HETATM   18  N   UNL     1      44.092 -18.589   2.033  1.00  0.00    -0.357 N 
HETATM   19  H   UNL     1      44.157 -19.291   1.310  1.00  0.00     0.162 HD
HETATM   20  O   UNL     1      43.320 -17.292   0.377  1.00  0.00    -0.274 OA
BRANCH  18  21
HETATM   21  C   UNL     1      44.458 -18.928   3.394  1.00  0.00     0.162 C 
BRANCH  21  22
HETATM   22  C   UNL     1      44.546 -20.393   3.715  1.00  0.00    -0.023 A 
HETATM   23  C   UNL     1      44.481 -21.416   2.775  1.00  0.00     0.125 A 
HETATM   24  N   UNL     1      44.582 -22.736   3.066  1.00  0.00    -0.273 NA
HETATM   25  C   UNL     1      44.775 -23.059   4.361  1.00  0.00     0.116 A 
HETATM   26  C   UNL     1      44.860 -22.127   5.379  1.00  0.00     0.020 A 
HETATM   27  C   UNL     1      44.741 -20.780   5.048  1.00  0.00     0.012 A 
ENDBRANCH  21  22
ENDBRANCH  18  21
ENDBRANCH  16  17
ENDBRANCH   3  16
BRANCH  11  28
HETATM   28  C   UNL     1      42.637 -12.950   4.169  1.00  0.00     0.176 C 
BRANCH  28  29
HETATM   29  O   UNL     1      42.015 -11.682   3.984  1.00  0.00    -0.400 OA
HETATM   30  H   UNL     1      41.085 -11.865   3.726  1.00  0.00     0.209 HD
ENDBRANCH  28  29
ENDBRANCH  11  28
BRANCH   7  31
HETATM   31  N   UNL     1      39.353 -14.589  -0.653  1.00  0.00    -0.366 N 
HETATM   32  H   UNL     1      38.539 -15.099  -0.969  1.00  0.00     0.162 HD
BRANCH  31  33
HETATM   33  C   UNL     1      40.295 -14.231  -1.687  1.00  0.00     0.148 C 
BRANCH  33  34
HETATM   34  C   UNL     1      40.581 -15.392  -2.603  1.00  0.00    -0.018 C 
HETATM   35  C   UNL     1      39.795 -15.932  -3.546  1.00  0.00     0.008 C 
ENDBRANCH  33  34
ENDBRANCH  31  33
ENDBRANCH   7  31
BRANCH  13  36
HETATM   36  O   UNL     1      44.466 -13.289   6.363  1.00  0.00    -0.395 OA
HETATM   37  H   UNL     1      44.116 -12.524   6.856  1.00  0.00     0.210 HD
ENDBRANCH  13  36
TORSDOF 10
ENDMDL
MODEL 4
REMARK VINA RESULT:      -7.5      2.457      3.613
REMARK  10 active torsions:
REMARK  status: ('A' for Active; 'I' for Inactive)
REMARK    1  A    between atoms: C_3  and  C_4 
REMARK    2  A    between atoms: C_4  and  C_5 
REMARK       I    between atoms: C_5  and  N_6 
REMARK    3  A    between atoms: N_6  and  C_7 
REMARK    4  A    between atoms: C_7  and  C_8 
REMARK    5  A    between atoms: C_18  and  N_19 
REMARK    6  A    between atoms: N_19  and  C_20 
REMARK    7  A    between atoms: C_20  and  C_21 
REMARK    8  A    between atoms: C_26  and  C_27 
REMARK    9  A    between atoms: C_27  and  O_28 
REMARK   10  A    between atoms: C_30  and  O_31 
ROOT
HETATM    1  C   UNL     1      42.293 -11.965   0.674  1.00  0.00     0.016 C 
HETATM    2  C   UNL     1      41.274 -13.152   0.542  1.00  0.00    -0.030 C 
HETATM    3  C   UNL     1      41.828 -14.279   1.551  1.00  0.00     0.056 C 
HETATM    4  C   UNL     1      41.238 -14.096   2.927  1.00  0.00     0.056 A 
HETATM    5  C   UNL     1      40.288 -13.161   3.261  1.00  0.00     0.012 A 
HETATM    6  S   UNL     1      39.896 -13.271   4.914  1.00  0.00    -0.055 SA
HETATM    7  C   UNL     1      41.077 -14.512   5.102  1.00  0.00     0.167 A 
HETATM    8  N   UNL     1      41.694 -14.848   3.993  1.00  0.00    -0.228 NA
HETATM    9  C   UNL     1      39.692 -12.144   2.365  1.00  0.00     0.055 C 
HETATM   10  C   UNL     1      39.829 -12.555   0.876  1.00  0.00     0.012 C 
HETATM   11  C   UNL     1      38.569 -13.327   0.304  1.00  0.00     0.008 C 
HETATM   12  C   UNL     1      37.332 -12.377   0.324  1.00  0.00     0.020 C 
HETATM   13  C   UNL     1      38.824 -13.677  -1.192  1.00  0.00     0.128 C 
HETATM   14  C   UNL     1      40.148 -14.388  -1.438  1.00  0.00     0.033 C 
HETATM   15  C   UNL     1      41.326 -13.557  -0.954  1.00  0.00     0.013 C 
ENDROOT
BRANCH   3  16
HETATM   16  C   UNL     1      41.761 -15.739   1.061  1.00  0.00     0.114 C 
BRANCH  16  17
HETATM   17  C   UNL     1      41.050 -16.682   2.015  1.00  0.00     0.218 C 
HETATM   18  N   UNL     1      41.779 -17.538   2.790  1.00  0.00    -0.357 N 
HETATM   19  H   UNL     1      41.213 -18.023   3.471  1.00  0.00     0.162 HD
HETATM   20  O   UNL     1      39.827 -16.640   2.154  1.00  0.00    -0.274 OA
BRANCH  18  21
HETATM   21  C   UNL     1      43.215 -17.739   2.778  1.00  0.00     0.162 C 
BRANCH  21  22
HETATM   22  C   UNL     1      43.689 -19.163   2.863  1.00  0.00    -0.023 A 
HETATM   23  C   UNL     1      44.385 -19.703   3.939  1.00  0.00     0.125 A 
HETATM   24  N   UNL     1      44.792 -20.993   4.021  1.00  0.00    -0.273 NA
HETATM   25  C   UNL     1      44.478 -21.797   2.984  1.00  0.00     0.116 A 
HETATM   26  C   UNL     1      43.786 -21.370   1.866  1.00  0.00     0.020 A 
HETATM   27  C   UNL     1      43.391 -20.036   1.808  1.00  0.00     0.012 A 
ENDBRANCH  21  22
ENDBRANCH  18  21
ENDBRANCH  16  17
ENDBRANCH   3  16
BRANCH  11  28
HETATM   28  C   UNL     1      38.179 -14.572   1.142  1.00  0.00     0.176 C 
BRANCH  28  29
HETATM   29  O   UNL     1      36.812 -14.944   0.992  1.00  0.00    -0.400 OA
HETATM   30  H   UNL     1      36.692 -15.182   0.046  1.00  0.00     0.209 HD
ENDBRANCH  28  29
ENDBRANCH  11  28
BRANCH   7  31
HETATM   31  N   UNL     1      41.291 -15.049   6.320  1.00  0.00    -0.366 N 
HETATM   32  H   UNL     1      41.756 -14.488   7.021  1.00  0.00     0.162 HD
BRANCH  31  33
HETATM   33  C   UNL     1      41.426 -16.477   6.485  1.00  0.00     0.148 C 
BRANCH  33  34
HETATM   34  C   UNL     1      42.856 -16.873   6.742  1.00  0.00    -0.018 C 
HETATM   35  C   UNL     1      43.868 -16.119   7.197  1.00  0.00     0.008 C 
ENDBRANCH  33  34
ENDBRANCH  31  33
ENDBRANCH   7  31
BRANCH  13  36
HETATM   36  O   UNL     1      37.775 -14.504  -1.705  1.00  0.00    -0.395 OA
HETATM   37  H   UNL     1      37.950 -14.638  -2.655  1.00  0.00     0.210 HD
ENDBRANCH  13  36
TORSDOF 10
ENDMDL
MODEL 5
REMARK VINA RESULT:      -7.4      3.892      6.276
REMARK  10 active torsions:
REMARK  status: ('A' for Active; 'I' for Inactive)
REMARK    1  A    between atoms: C_3  and  C_4 
REMARK    2  A    between atoms: C_4  and  C_5 
REMARK       I    between atoms: C_5  and  N_6 
REMARK    3  A    between atoms: N_6  and  C_7 
REMARK    4  A    between atoms: C_7  and  C_8 
REMARK    5  A    between atoms: C_18  and  N_19 
REMARK    6  A    between atoms: N_19  and  C_20 
REMARK    7  A    between atoms: C_20  and  C_21 
REMARK    8  A    between atoms: C_26  and  C_27 
REMARK    9  A    between atoms: C_27  and  O_28 
REMARK   10  A    between atoms: C_30  and  O_31 
ROOT
HETATM    1  C   UNL     1      37.670 -14.075   0.625  1.00  0.00     0.016 C 
HETATM    2  C   UNL     1      39.017 -13.829   1.392  1.00  0.00    -0.030 C 
HETATM    3  C   UNL     1      40.112 -13.606   0.233  1.00  0.00     0.056 C 
HETATM    4  C   UNL     1      40.205 -12.147  -0.139  1.00  0.00     0.056 A 
HETATM    5  C   UNL     1      39.524 -11.129   0.485  1.00  0.00     0.012 A 
HETATM    6  S   UNL     1      39.893  -9.632  -0.238  1.00  0.00    -0.055 SA
HETATM    7  C   UNL     1      40.882 -10.445  -1.393  1.00  0.00     0.167 A 
HETATM    8  N   UNL     1      40.961 -11.744  -1.222  1.00  0.00    -0.228 NA
HETATM    9  C   UNL     1      38.557 -11.261   1.598  1.00  0.00     0.055 C 
HETATM   10  C   UNL     1      38.766 -12.589   2.371  1.00  0.00     0.012 C 
HETATM   11  C   UNL     1      39.710 -12.454   3.637  1.00  0.00     0.008 C 
HETATM   12  C   UNL     1      39.038 -11.509   4.680  1.00  0.00     0.020 C 
HETATM   13  C   UNL     1      39.834 -13.845   4.329  1.00  0.00     0.128 C 
HETATM   14  C   UNL     1      40.230 -14.967   3.379  1.00  0.00     0.033 C 
HETATM   15  C   UNL     1      39.236 -15.110   2.237  1.00  0.00     0.013 C 
ENDROOT
BRANCH   3  16
HETATM   16  C   UNL     1      41.492 -14.257   0.451  1.00  0.00     0.114 C 
BRANCH  16  17
HETATM   17  C   UNL     1      41.638 -15.630  -0.182  1.00  0.00     0.218 C 
HETATM   18  N   UNL     1      42.398 -16.582   0.434  1.00  0.00    -0.357 N 
HETATM   19  H   UNL     1      42.320 -17.487  -0.008  1.00  0.00     0.162 HD
HETATM   20  O   UNL     1      41.023 -15.924  -1.209  1.00  0.00    -0.274 OA
BRANCH  18  21
HETATM   21  C   UNL     1      43.192 -16.438   1.638  1.00  0.00     0.162 C 
BRANCH  21  22
HETATM   22  C   UNL     1      43.569 -17.711   2.343  1.00  0.00    -0.023 A 
HETATM   23  C   UNL     1      43.892 -17.804   3.692  1.00  0.00     0.125 A 
HETATM   24  N   UNL     1      44.211 -18.957   4.330  1.00  0.00    -0.273 NA
HETATM   25  C   UNL     1      44.193 -20.085   3.590  1.00  0.00     0.116 A 
HETATM   26  C   UNL     1      43.883 -20.113   2.243  1.00  0.00     0.020 A 
HETATM   27  C   UNL     1      43.571 -18.910   1.616  1.00  0.00     0.012 A 
ENDBRANCH  21  22
ENDBRANCH  18  21
ENDBRANCH  16  17
ENDBRANCH   3  16
BRANCH  11  28
HETATM   28  C   UNL     1      41.092 -11.834   3.309  1.00  0.00     0.176 C 
BRANCH  28  29
HETATM   29  O   UNL     1      41.668 -11.134   4.408  1.00  0.00    -0.400 OA
HETATM   30  H   UNL     1      42.432 -10.633   4.047  1.00  0.00     0.209 HD
ENDBRANCH  28  29
ENDBRANCH  11  28
BRANCH   7  31
HETATM   31  N   UNL     1      41.495  -9.735  -2.362  1.00  0.00    -0.366 N 
HETATM   32  H   UNL     1      40.932  -9.348  -3.107  1.00  0.00     0.162 HD
BRANCH  31  33
HETATM   33  C   UNL     1      42.877  -9.983  -2.697  1.00  0.00     0.148 C 
BRANCH  33  34
HETATM   34  C   UNL     1      43.800  -9.578  -1.579  1.00  0.00    -0.018 C 
HETATM   35  C   UNL     1      43.968  -8.368  -1.024  1.00  0.00     0.008 C 
ENDBRANCH  33  34
ENDBRANCH  31  33
ENDBRANCH   7  31
BRANCH  13  36
HETATM   36  O   UNL     1      40.794 -13.800   5.387  1.00  0.00    -0.395 OA
HETATM   37  H   UNL     1      40.383 -13.323   6.132  1.00  0.00     0.210 HD
ENDBRANCH  13  36
TORSDOF 10
ENDMDL
MODEL 6
REMARK VINA RESULT:      -7.3      3.502      8.109
REMARK  10 active torsions:
REMARK  status: ('A' for Active; 'I' for Inactive)
REMARK    1  A    between atoms: C_3  and  C_4 
REMARK    2  A    between atoms: C_4  and  C_5 
REMARK       I    between atoms: C_5  and  N_6 
REMARK    3  A    between atoms: N_6  and  C_7 
REMARK    4  A    between atoms: C_7  and  C_8 
REMARK    5  A    between atoms: C_18  and  N_19 
REMARK    6  A    between atoms: N_19  and  C_20 
REMARK    7  A    between atoms: C_20  and  C_21 
REMARK    8  A    between atoms: C_26  and  C_27 
REMARK    9  A    between atoms: C_27  and  O_28 
REMARK   10  A    between atoms: C_30  and  O_31 
ROOT
HETATM    1  C   UNL     1      41.945 -12.138   1.093  1.00  0.00     0.016 C 
HETATM    2  C   UNL     1      40.929 -12.733   2.131  1.00  0.00    -0.030 C 
HETATM    3  C   UNL     1      40.505 -14.159   1.514  1.00  0.00     0.056 C 
HETATM    4  C   UNL     1      41.435 -15.245   1.995  1.00  0.00     0.056 A 
HETATM    5  C   UNL     1      42.448 -15.070   2.907  1.00  0.00     0.012 A 
HETATM    6  S   UNL     1      43.273 -16.535   3.174  1.00  0.00    -0.055 SA
HETATM    7  C   UNL     1      42.275 -17.300   1.995  1.00  0.00     0.167 A 
HETATM    8  N   UNL     1      41.361 -16.519   1.468  1.00  0.00    -0.228 NA
HETATM    9  C   UNL     1      42.844 -13.800   3.559  1.00  0.00     0.055 C 
HETATM   10  C   UNL     1      41.684 -12.771   3.540  1.00  0.00     0.012 C 
HETATM   11  C   UNL     1      40.790 -12.787   4.848  1.00  0.00     0.008 C 
HETATM   12  C   UNL     1      41.660 -12.357   6.070  1.00  0.00     0.020 C 
HETATM   13  C   UNL     1      39.671 -11.711   4.712  1.00  0.00     0.128 C 
HETATM   14  C   UNL     1      38.876 -11.816   3.418  1.00  0.00     0.033 C 
HETATM   15  C   UNL     1      39.775 -11.700   2.197  1.00  0.00     0.013 C 
ENDROOT
BRANCH   3  16
HETATM   16  C   UNL     1      39.018 -14.549   1.633  1.00  0.00     0.114 C 
BRANCH  16  17
HETATM   17  C   UNL     1      38.143 -14.006   0.517  1.00  0.00     0.218 C 
HETATM   18  N   UNL     1      38.571 -14.082  -0.777  1.00  0.00    -0.357 N 
HETATM   19  H   UNL     1      37.859 -13.809  -1.439  1.00  0.00     0.162 HD
HETATM   20  O   UNL     1      37.018 -13.563   0.752  1.00  0.00    -0.274 OA
BRANCH  18  21
HETATM   21  C   UNL     1      39.850 -14.566  -1.260  1.00  0.00     0.162 C 
BRANCH  21  22
HETATM   22  C   UNL     1      40.595 -13.657  -2.198  1.00  0.00    -0.023 A 
HETATM   23  C   UNL     1      40.001 -12.878  -3.184  1.00  0.00     0.125 A 
HETATM   24  N   UNL     1      40.674 -12.043  -4.014  1.00  0.00    -0.273 NA
HETATM   25  C   UNL     1      42.010 -11.967  -3.846  1.00  0.00     0.116 A 
HETATM   26  C   UNL     1      42.705 -12.692  -2.895  1.00  0.00     0.020 A 
HETATM   27  C   UNL     1      41.986 -13.548  -2.066  1.00  0.00     0.012 A 
ENDBRANCH  21  22
ENDBRANCH  18  21
ENDBRANCH  16  17
ENDBRANCH   3  16
BRANCH  11  28
HETATM   28  C   UNL     1      40.221 -14.189   5.186  1.00  0.00     0.176 C 
BRANCH  28  29
HETATM   29  O   UNL     1      39.991 -14.380   6.579  1.00  0.00    -0.400 OA
HETATM   30  H   UNL     1      40.112 -13.502   7.003  1.00  0.00     0.209 HD
ENDBRANCH  28  29
ENDBRANCH  11  28
BRANCH   7  31
HETATM   31  N   UNL     1      42.475 -18.599   1.695  1.00  0.00    -0.366 N 
HETATM   32  H   UNL     1      41.670 -19.188   1.532  1.00  0.00     0.162 HD
BRANCH  31  33
HETATM   33  C   UNL     1      43.660 -19.288   2.148  1.00  0.00     0.148 C 
BRANCH  33  34
HETATM   34  C   UNL     1      43.599 -20.760   1.836  1.00  0.00    -0.018 C 
HETATM   35  C   UNL     1      44.408 -21.743   2.259  1.00  0.00     0.008 C 
ENDBRANCH  33  34
ENDBRANCH  31  33
ENDBRANCH   7  31
BRANCH  13  36
HETATM   36  O   UNL     1      38.753 -11.794   5.805  1.00  0.00    -0.395 OA
HETATM   37  H   UNL     1      38.818 -10.957   6.302  1.00  0.00     0.210 HD
ENDBRANCH  13  36
TORSDOF 10
ENDMDL
MODEL 7
REMARK VINA RESULT:      -7.3      3.773      5.004
REMARK  10 active torsions:
REMARK  status: ('A' for Active; 'I' for Inactive)
REMARK    1  A    between atoms: C_3  and  C_4 
REMARK    2  A    between atoms: C_4  and  C_5 
REMARK       I    between atoms: C_5  and  N_6 
REMARK    3  A    between atoms: N_6  and  C_7 
REMARK    4  A    between atoms: C_7  and  C_8 
REMARK    5  A    between atoms: C_18  and  N_19 
REMARK    6  A    between atoms: N_19  and  C_20 
REMARK    7  A    between atoms: C_20  and  C_21 
REMARK    8  A    between atoms: C_26  and  C_27 
REMARK    9  A    between atoms: C_27  and  O_28 
REMARK   10  A    between atoms: C_30  and  O_31 
ROOT
HETATM    1  C   UNL     1      42.131 -11.974   0.657  1.00  0.00     0.016 C 
HETATM    2  C   UNL     1      41.054 -13.058   0.298  1.00  0.00    -0.030 C 
HETATM    3  C   UNL     1      39.986 -12.986   1.501  1.00  0.00     0.056 C 
HETATM    4  C   UNL     1      38.899 -11.988   1.189  1.00  0.00     0.056 A 
HETATM    5  C   UNL     1      38.775 -11.300   0.005  1.00  0.00     0.012 A 
HETATM    6  S   UNL     1      37.425 -10.264   0.054  1.00  0.00    -0.055 SA
HETATM    7  C   UNL     1      37.132 -10.738   1.685  1.00  0.00     0.167 A 
HETATM    8  N   UNL     1      37.966 -11.642   2.146  1.00  0.00    -0.228 NA
HETATM    9  C   UNL     1      39.684 -11.373  -1.162  1.00  0.00     0.055 C 
HETATM   10  C   UNL     1      40.502 -12.691  -1.157  1.00  0.00     0.012 C 
HETATM   11  C   UNL     1      39.846 -13.857  -2.006  1.00  0.00     0.008 C 
HETATM   12  C   UNL     1      39.806 -13.439  -3.509  1.00  0.00     0.020 C 
HETATM   13  C   UNL     1      40.760 -15.117  -1.930  1.00  0.00     0.128 C 
HETATM   14  C   UNL     1      41.130 -15.519  -0.509  1.00  0.00     0.033 C 
HETATM   15  C   UNL     1      41.840 -14.392   0.224  1.00  0.00     0.013 C 
ENDROOT
BRANCH   3  16
HETATM   16  C   UNL     1      39.435 -14.329   2.017  1.00  0.00     0.114 C 
BRANCH  16  17
HETATM   17  C   UNL     1      39.892 -14.691   3.420  1.00  0.00     0.218 C 
HETATM   18  N   UNL     1      40.510 -15.887   3.643  1.00  0.00    -0.357 N 
HETATM   19  H   UNL     1      40.880 -15.964   4.580  1.00  0.00     0.162 HD
HETATM   20  O   UNL     1      39.778 -13.890   4.350  1.00  0.00    -0.274 OA
BRANCH  18  21
HETATM   21  C   UNL     1      40.740 -16.956   2.692  1.00  0.00     0.162 C 
BRANCH  21  22
HETATM   22  C   UNL     1      41.957 -17.807   2.927  1.00  0.00    -0.023 A 
HETATM   23  C   UNL     1      42.439 -18.171   4.180  1.00  0.00     0.125 A 
HETATM   24  N   UNL     1      43.524 -18.956   4.388  1.00  0.00    -0.273 NA
HETATM   25  C   UNL     1      44.158 -19.418   3.290  1.00  0.00     0.116 A 
HETATM   26  C   UNL     1      43.765 -19.125   1.998  1.00  0.00     0.020 A 
HETATM   27  C   UNL     1      42.653 -18.307   1.819  1.00  0.00     0.012 A 
ENDBRANCH  21  22
ENDBRANCH  18  21
ENDBRANCH  16  17
ENDBRANCH   3  16
BRANCH  11  28
HETATM   28  C   UNL     1      38.382 -14.166  -1.598  1.00  0.00     0.176 C 
BRANCH  28  29
HETATM   29  O   UNL     1      37.701 -14.995  -2.534  1.00  0.00    -0.400 OA
HETATM   30  H   UNL     1      37.652 -15.888  -2.129  1.00  0.00     0.209 HD
ENDBRANCH  28  29
ENDBRANCH  11  28
BRANCH   7  31
HETATM   31  N   UNL     1      36.108 -10.185   2.366  1.00  0.00    -0.366 N 
HETATM   32  H   UNL     1      35.873 -10.560   3.275  1.00  0.00     0.162 HD
BRANCH  31  33
HETATM   33  C   UNL     1      35.025  -9.532   1.670  1.00  0.00     0.148 C 
BRANCH  33  34
HETATM   34  C   UNL     1      33.861 -10.463   1.459  1.00  0.00    -0.018 C 
HETATM   35  C   UNL     1      32.746 -10.595   2.194  1.00  0.00     0.008 C 
ENDBRANCH  33  34
ENDBRANCH  31  33
ENDBRANCH   7  31
BRANCH  13  36
HETATM   36  O   UNL     1      40.132 -16.237  -2.558  1.00  0.00    -0.395 OA
HETATM   37  H   UNL     1      39.167 -16.104  -2.493  1.00  0.00     0.210 HD
ENDBRANCH  13  36
TORSDOF 10
ENDMDL
MODEL 8
REMARK VINA RESULT:      -7.2      3.123      6.541
REMARK  10 active torsions:
REMARK  status: ('A' for Active; 'I' for Inactive)
REMARK    1  A    between atoms: C_3  and  C_4 
REMARK    2  A    between atoms: C_4  and  C_5 
REMARK       I    between atoms: C_5  and  N_6 
REMARK    3  A    between atoms: N_6  and  C_7 
REMARK    4  A    between atoms: C_7  and  C_8 
REMARK    5  A    between atoms: C_18  and  N_19 
REMARK    6  A    between atoms: N_19  and  C_20 
REMARK    7  A    between atoms: C_20  and  C_21 
REMARK    8  A    between atoms: C_26  and  C_27 
REMARK    9  A    between atoms: C_27  and  O_28 
REMARK   10  A    between atoms: C_30  and  O_31 
ROOT
HETATM    1  C   UNL     1      37.538 -13.519   0.884  1.00  0.00     0.016 C 
HETATM    2  C   UNL     1      38.924 -12.789   0.985  1.00  0.00    -0.030 C 
HETATM    3  C   UNL     1      39.690 -13.532   2.191  1.00  0.00     0.056 C 
HETATM    4  C   UNL     1      40.488 -14.703   1.674  1.00  0.00     0.056 A 
HETATM    5  C   UNL     1      40.627 -15.040   0.349  1.00  0.00     0.012 A 
HETATM    6  S   UNL     1      41.596 -16.430   0.184  1.00  0.00    -0.055 SA
HETATM    7  C   UNL     1      41.708 -16.544   1.900  1.00  0.00     0.167 A 
HETATM    8  N   UNL     1      41.094 -15.582   2.550  1.00  0.00    -0.228 NA
HETATM    9  C   UNL     1      40.005 -14.358  -0.809  1.00  0.00     0.055 C 
HETATM   10  C   UNL     1      39.606 -12.901  -0.457  1.00  0.00     0.012 C 
HETATM   11  C   UNL     1      40.709 -11.826  -0.830  1.00  0.00     0.008 C 
HETATM   12  C   UNL     1      40.903 -11.804  -2.378  1.00  0.00     0.020 C 
HETATM   13  C   UNL     1      40.191 -10.410  -0.438  1.00  0.00     0.128 C 
HETATM   14  C   UNL     1      39.696 -10.316   0.999  1.00  0.00     0.033 C 
HETATM   15  C   UNL     1      38.575 -11.306   1.271  1.00  0.00     0.013 C 
ENDROOT
BRANCH   3  16
HETATM   16  C   UNL     1      40.495 -12.638   3.154  1.00  0.00     0.114 C 
BRANCH  16  17
HETATM   17  C   UNL     1      39.900 -12.533   4.548  1.00  0.00     0.218 C 
HETATM   18  N   UNL     1      40.656 -12.868   5.633  1.00  0.00    -0.357 N 
HETATM   19  H   UNL     1      40.204 -12.640   6.507  1.00  0.00     0.162 HD
HETATM   20  O   UNL     1      38.767 -12.081   4.722  1.00  0.00    -0.274 OA
BRANCH  18  21
HETATM   21  C   UNL     1      42.000 -13.413   5.643  1.00  0.00     0.162 C 
BRANCH  21  22
HETATM   22  C   UNL     1      42.111 -14.910   5.710  1.00  0.00    -0.023 A 
HETATM   23  C   UNL     1      43.267 -15.632   5.435  1.00  0.00     0.125 A 
HETATM   24  N   UNL     1      43.369 -16.982   5.518  1.00  0.00    -0.273 NA
HETATM   25  C   UNL     1      42.266 -17.651   5.909  1.00  0.00     0.116 A 
HETATM   26  C   UNL     1      41.065 -17.038   6.213  1.00  0.00     0.020 A 
HETATM   27  C   UNL     1      40.990 -15.652   6.108  1.00  0.00     0.012 A 
ENDBRANCH  21  22
ENDBRANCH  18  21
ENDBRANCH  16  17
ENDBRANCH   3  16
BRANCH  11  28
HETATM   28  C   UNL     1      42.100 -12.135  -0.218  1.00  0.00     0.176 C 
BRANCH  28  29
HETATM   29  O   UNL     1      43.167 -11.465  -0.883  1.00  0.00    -0.400 OA
HETATM   30  H   UNL     1      42.765 -10.700  -1.350  1.00  0.00     0.209 HD
ENDBRANCH  28  29
ENDBRANCH  11  28
BRANCH   7  31
HETATM   31  N   UNL     1      42.391 -17.565   2.457  1.00  0.00    -0.366 N 
HETATM   32  H   UNL     1      42.523 -17.569   3.459  1.00  0.00     0.162 HD
BRANCH  31  33
HETATM   33  C   UNL     1      43.388 -18.285   1.701  1.00  0.00     0.148 C 
BRANCH  33  34
HETATM   34  C   UNL     1      43.815 -19.546   2.407  1.00  0.00    -0.018 C 
HETATM   35  C   UNL     1      43.766 -20.812   1.968  1.00  0.00     0.008 C 
ENDBRANCH  33  34
ENDBRANCH  31  33
ENDBRANCH   7  31
BRANCH  13  36
HETATM   36  O   UNL     1      41.214  -9.428  -0.620  1.00  0.00    -0.395 OA
HETATM   37  H   UNL     1      41.886  -9.578   0.071  1.00  0.00     0.210 HD
ENDBRANCH  13  36
TORSDOF 10
ENDMDL
MODEL 9
REMARK VINA RESULT:      -7.1      2.239      3.171
REMARK  10 active torsions:
REMARK  status: ('A' for Active; 'I' for Inactive)
REMARK    1  A    between atoms: C_3  and  C_4 
REMARK    2  A    between atoms: C_4  and  C_5 
REMARK       I    between atoms: C_5  and  N_6 
REMARK    3  A    between atoms: N_6  and  C_7 
REMARK    4  A    between atoms: C_7  and  C_8 
REMARK    5  A    between atoms: C_18  and  N_19 
REMARK    6  A    between atoms: N_19  and  C_20 
REMARK    7  A    between atoms: C_20  and  C_21 
REMARK    8  A    between atoms: C_26  and  C_27 
REMARK    9  A    between atoms: C_27  and  O_28 
REMARK   10  A    between atoms: C_30  and  O_31 
ROOT
HETATM    1  C   UNL     1      42.058 -10.790   0.632  1.00  0.00     0.016 C 
HETATM    2  C   UNL     1      41.312 -12.170   0.677  1.00  0.00    -0.030 C 
HETATM    3  C   UNL     1      41.799 -12.852   2.052  1.00  0.00     0.056 C 
HETATM    4  C   UNL     1      40.886 -12.467   3.189  1.00  0.00     0.056 A 
HETATM    5  C   UNL     1      39.741 -11.717   3.064  1.00  0.00     0.012 A 
HETATM    6  S   UNL     1      39.002 -11.494   4.581  1.00  0.00    -0.055 SA
HETATM    7  C   UNL     1      40.299 -12.349   5.328  1.00  0.00     0.167 A 
HETATM    8  N   UNL     1      41.203 -12.804   4.491  1.00  0.00    -0.228 NA
HETATM    9  C   UNL     1      39.205 -11.120   1.819  1.00  0.00     0.055 C 
HETATM   10  C   UNL     1      39.750 -11.850   0.564  1.00  0.00     0.012 C 
HETATM   11  C   UNL     1      38.803 -13.005   0.032  1.00  0.00     0.008 C 
HETATM   12  C   UNL     1      37.454 -12.385  -0.444  1.00  0.00     0.020 C 
HETATM   13  C   UNL     1      39.452 -13.653  -1.228  1.00  0.00     0.128 C 
HETATM   14  C   UNL     1      40.897 -14.084  -1.019  1.00  0.00     0.033 C 
HETATM   15  C   UNL     1      41.775 -12.915  -0.601  1.00  0.00     0.013 C 
ENDROOT
BRANCH   3  16
HETATM   16  C   UNL     1      42.094 -14.364   2.008  1.00  0.00     0.114 C 
BRANCH  16  17
HETATM   17  C   UNL     1      43.313 -14.783   2.810  1.00  0.00     0.218 C 
HETATM   18  N   UNL     1      43.600 -16.109   2.964  1.00  0.00    -0.357 N 
HETATM   19  H   UNL     1      44.496 -16.264   3.404  1.00  0.00     0.162 HD
HETATM   20  O   UNL     1      44.091 -13.943   3.267  1.00  0.00    -0.274 OA
BRANCH  18  21
HETATM   21  C   UNL     1      42.821 -17.242   2.506  1.00  0.00     0.162 C 
BRANCH  21  22
HETATM   22  C   UNL     1      43.429 -18.600   2.724  1.00  0.00    -0.023 A 
HETATM   23  C   UNL     1      44.182 -18.961   3.836  1.00  0.00     0.125 A 
HETATM   24  N   UNL     1      44.711 -20.193   4.039  1.00  0.00    -0.273 NA
HETATM   25  C   UNL     1      44.465 -21.123   3.094  1.00  0.00     0.116 A 
HETATM   26  C   UNL     1      43.725 -20.878   1.952  1.00  0.00     0.020 A 
HETATM   27  C   UNL     1      43.206 -19.599   1.767  1.00  0.00     0.012 A 
ENDBRANCH  21  22
ENDBRANCH  18  21
ENDBRANCH  16  17
ENDBRANCH   3  16
BRANCH  11  28
HETATM   28  C   UNL     1      38.446 -14.054   1.116  1.00  0.00     0.176 C 
BRANCH  28  29
HETATM   29  O   UNL     1      37.227 -14.743   0.850  1.00  0.00    -0.400 OA
HETATM   30  H   UNL     1      36.511 -14.201   1.246  1.00  0.00     0.209 HD
ENDBRANCH  28  29
ENDBRANCH  11  28
BRANCH   7  31
HETATM   31  N   UNL     1      40.313 -12.500   6.667  1.00  0.00    -0.366 N 
HETATM   32  H   UNL     1      40.606 -13.388   7.051  1.00  0.00     0.162 HD
BRANCH  31  33
HETATM   33  C   UNL     1      39.429 -11.727   7.507  1.00  0.00     0.148 C 
BRANCH  33  34
HETATM   34  C   UNL     1      40.196 -10.816   8.430  1.00  0.00    -0.018 C 
HETATM   35  C   UNL     1      41.513 -10.561   8.456  1.00  0.00     0.008 C 
ENDBRANCH  33  34
ENDBRANCH  31  33
ENDBRANCH   7  31
BRANCH  13  36
HETATM   36  O   UNL     1      38.704 -14.796  -1.651  1.00  0.00    -0.395 OA
HETATM   37  H   UNL     1      38.550 -15.350  -0.863  1.00  0.00     0.210 HD
ENDBRANCH  13  36
TORSDOF 10
ENDMDL
MODEL 10
REMARK VINA RESULT:      -7.0      3.538      6.376
REMARK  10 active torsions:
REMARK  status: ('A' for Active; 'I' for Inactive)
REMARK    1  A    between atoms: C_3  and  C_4 
REMARK    2  A    between atoms: C_4  and  C_5 
REMARK       I    between atoms: C_5  and  N_6 
REMARK    3  A    between atoms: N_6  and  C_7 
REMARK    4  A    between atoms: C_7  and  C_8 
REMARK    5  A    between atoms: C_18  and  N_19 
REMARK    6  A    between atoms: N_19  and  C_20 
REMARK    7  A    between atoms: C_20  and  C_21 
REMARK    8  A    between atoms: C_26  and  C_27 
REMARK    9  A    between atoms: C_27  and  O_28 
REMARK   10  A    between atoms: C_30  and  O_31 
ROOT
HETATM    1  C   UNL     1      39.623 -15.137   5.190  1.00  0.00     0.016 C 
HETATM    2  C   UNL     1      40.716 -15.103   4.065  1.00  0.00    -0.030 C 
HETATM    3  C   UNL     1      41.662 -13.858   4.452  1.00  0.00     0.056 C 
HETATM    4  C   UNL     1      42.786 -14.304   5.353  1.00  0.00     0.056 A 
HETATM    5  C   UNL     1      43.034 -15.604   5.722  1.00  0.00     0.012 A 
HETATM    6  S   UNL     1      44.385 -15.686   6.755  1.00  0.00    -0.055 SA
HETATM    7  C   UNL     1      44.511 -13.967   6.711  1.00  0.00     0.167 A 
HETATM    8  N   UNL     1      43.625 -13.378   5.942  1.00  0.00    -0.228 NA
HETATM    9  C   UNL     1      42.244 -16.799   5.345  1.00  0.00     0.055 C 
HETATM   10  C   UNL     1      41.413 -16.542   4.060  1.00  0.00     0.012 C 
HETATM   11  C   UNL     1      42.136 -17.000   2.726  1.00  0.00     0.008 C 
HETATM   12  C   UNL     1      42.328 -18.548   2.752  1.00  0.00     0.020 C 
HETATM   13  C   UNL     1      41.204 -16.699   1.515  1.00  0.00     0.128 C 
HETATM   14  C   UNL     1      40.690 -15.266   1.479  1.00  0.00     0.033 C 
HETATM   15  C   UNL     1      39.925 -14.914   2.745  1.00  0.00     0.013 C 
ENDROOT
BRANCH   3  16
HETATM   16  C   UNL     1      42.144 -12.968   3.290  1.00  0.00     0.114 C 
BRANCH  16  17
HETATM   17  C   UNL     1      41.352 -11.683   3.122  1.00  0.00     0.218 C 
HETATM   18  N   UNL     1      41.347 -11.043   1.916  1.00  0.00    -0.357 N 
HETATM   19  H   UNL     1      40.691 -10.276   1.886  1.00  0.00     0.162 HD
HETATM   20  O   UNL     1      40.654 -11.243   4.038  1.00  0.00    -0.274 OA
BRANCH  18  21
HETATM   21  C   UNL     1      42.092 -11.395   0.724  1.00  0.00     0.162 C 
BRANCH  21  22
HETATM   22  C   UNL     1      41.372 -12.246  -0.285  1.00  0.00    -0.023 A 
HETATM   23  C   UNL     1      41.986 -13.171  -1.122  1.00  0.00     0.125 A 
HETATM   24  N   UNL     1      41.330 -13.952  -2.016  1.00  0.00    -0.273 NA
HETATM   25  C   UNL     1      39.989 -13.818  -2.071  1.00  0.00     0.116 A 
HETATM   26  C   UNL     1      39.274 -12.935  -1.283  1.00  0.00     0.020 A 
HETATM   27  C   UNL     1      39.978 -12.140  -0.384  1.00  0.00     0.012 A 
ENDBRANCH  21  22
ENDBRANCH  18  21
ENDBRANCH  16  17
ENDBRANCH   3  16
BRANCH  11  28
HETATM   28  C   UNL     1      43.548 -16.386   2.550  1.00  0.00     0.176 C 
BRANCH  28  29
HETATM   29  O   UNL     1      44.360 -17.100   1.623  1.00  0.00    -0.400 OA
HETATM   30  H   UNL     1      45.009 -16.454   1.268  1.00  0.00     0.209 HD
ENDBRANCH  28  29
ENDBRANCH  11  28
BRANCH   7  31
HETATM   31  N   UNL     1      45.469 -13.351   7.431  1.00  0.00    -0.366 N 
HETATM   32  H   UNL     1      46.437 -13.548   7.217  1.00  0.00     0.162 HD
BRANCH  31  33
HETATM   33  C   UNL     1      45.214 -12.921   8.785  1.00  0.00     0.148 C 
BRANCH  33  34
HETATM   34  C   UNL     1      45.811 -11.565   9.058  1.00  0.00    -0.018 C 
HETATM   35  C   UNL     1      45.532 -10.708  10.052  1.00  0.00     0.008 C 
ENDBRANCH  33  34
ENDBRANCH  31  33
ENDBRANCH   7  31
BRANCH  13  36
HETATM   36  O   UNL     1      41.877 -16.960   0.281  1.00  0.00    -0.395 OA
HETATM   37  H   UNL     1      42.171 -17.890   0.301  1.00  0.00     0.210 HD
ENDBRANCH  13  36
TORSDOF 10
ENDMDL
