MODEL 1
REMARK VINA RESULT:      -7.4      0.000      0.000
REMARK  5 active torsions:
REMARK  status: ('A' for Active; 'I' for Inactive)
REMARK    1  A    between atoms: C_2  and  C_3 
REMARK    2  A    between atoms: C_3  and  N_4 
REMARK    3  A    between atoms: C_3  and  C_19 
REMARK       I    between atoms: N_4  and  C_5 
REMARK    4  A    between atoms: C_5  and  C_6 
REMARK    5  A    between atoms: C_7  and  C_8 
ROOT
HETATM    1  N   UNL     1      42.262 -17.597   5.499  1.00  0.00    -0.345 N 
HETATM    2  C   UNL     1      43.527 -17.902   5.939  1.00  0.00     0.255 C 
HETATM    3  O   UNL     1      44.373 -17.040   6.158  1.00  0.00    -0.268 OA
HETATM    4  H   UNL     1      41.654 -18.336   5.181  1.00  0.00     0.163 HD
ENDROOT
BRANCH   2   5
HETATM    5  C   UNL     1      43.775 -19.320   6.147  1.00  0.00     0.075 A 
HETATM    6  C   UNL     1      44.414 -20.244   5.261  1.00  0.00     0.076 A 
HETATM    7  N   UNL     1      44.460 -21.475   5.793  1.00  0.00    -0.178 NA
HETATM    8  N   UNL     1      43.864 -21.350   6.983  1.00  0.00    -0.288 N 
HETATM    9  H   UNL     1      43.777 -22.178   7.564  1.00  0.00     0.188 HD
HETATM   10  C   UNL     1      43.445 -20.083   7.252  1.00  0.00     0.128 A 
BRANCH   6  11
HETATM   11  C   UNL     1      45.008 -19.954   3.897  1.00  0.00     0.040 C 
HETATM   12  C   UNL     1      45.269 -21.241   3.091  1.00  0.00     0.011 C 
HETATM   13  C   UNL     1      43.998 -21.832   2.487  1.00  0.00     0.001 C 
HETATM   14  C   UNL     1      43.280 -20.815   1.608  1.00  0.00     0.000 C 
HETATM   15  C   UNL     1      42.969 -19.534   2.372  1.00  0.00     0.001 C 
HETATM   16  C   UNL     1      44.213 -18.944   3.044  1.00  0.00     0.011 C 
ENDBRANCH   6  11
ENDBRANCH   2   5
BRANCH   1  17
HETATM   17  C   UNL     1      41.861 -16.236   5.198  1.00  0.00     0.154 C 
BRANCH  17  18
HETATM   18  C   UNL     1      40.686 -15.800   6.083  1.00  0.00     0.028 C 
HETATM   19  C   UNL     1      40.243 -14.371   5.790  1.00  0.00     0.007 C 
ENDBRANCH  17  18
BRANCH  17  20
HETATM   20  C   UNL     1      41.505 -16.197   3.742  1.00  0.00     0.127 A 
HETATM   21  N   UNL     1      42.084 -15.495   2.787  1.00  0.00    -0.237 NA
HETATM   22  C   UNL     1      41.400 -15.793   1.633  1.00  0.00     0.048 A 
HETATM   23  C   UNL     1      41.799 -15.197   0.339  1.00  0.00     0.072 C 
HETATM   24  C   UNL     1      40.375 -16.673   1.899  1.00  0.00     0.116 A 
HETATM   25  N   UNL     1      40.442 -16.911   3.244  1.00  0.00    -0.351 N 
HETATM   26  H   UNL     1      39.818 -17.488   3.794  1.00  0.00     0.166 HD
ENDBRANCH  17  20
ENDBRANCH   1  17
TORSDOF 5
ENDMDL
MODEL 2
REMARK VINA RESULT:      -7.3      2.135      6.755
REMARK  5 active torsions:
REMARK  status: ('A' for Active; 'I' for Inactive)
REMARK    1  A    between atoms: C_2  and  C_3 
REMARK    2  A    between atoms: C_3  and  N_4 
REMARK    3  A    between atoms: C_3  and  C_19 
REMARK       I    between atoms: N_4  and  C_5 
REMARK    4  A    between atoms: C_5  and  C_6 
REMARK    5  A    between atoms: C_7  and  C_8 
ROOT
HETATM    1  N   UNL     1      42.819 -18.637   1.879  1.00  0.00    -0.345 N 
HETATM    2  C   UNL     1      43.176 -17.438   1.313  1.00  0.00     0.255 C 
HETATM    3  O   UNL     1      44.340 -17.158   1.043  1.00  0.00    -0.268 OA
HETATM    4  H   UNL     1      41.881 -18.763   2.229  1.00  0.00     0.163 HD
ENDROOT
BRANCH   2   5
HETATM    5  C   UNL     1      42.065 -16.541   1.035  1.00  0.00     0.075 A 
HETATM    6  C   UNL     1      41.345 -15.716   1.956  1.00  0.00     0.076 A 
HETATM    7  N   UNL     1      40.378 -15.024   1.335  1.00  0.00    -0.178 NA
HETATM    8  N   UNL     1      40.468 -15.395   0.054  1.00  0.00    -0.288 N 
HETATM    9  H   UNL     1      39.811 -14.993  -0.607  1.00  0.00     0.188 HD
HETATM   10  C   UNL     1      41.465 -16.290  -0.185  1.00  0.00     0.128 A 
BRANCH   6  11
HETATM   11  C   UNL     1      41.588 -15.566   3.445  1.00  0.00     0.040 C 
HETATM   12  C   UNL     1      42.988 -15.000   3.752  1.00  0.00     0.011 C 
HETATM   13  C   UNL     1      43.087 -13.496   3.515  1.00  0.00     0.001 C 
HETATM   14  C   UNL     1      42.040 -12.740   4.326  1.00  0.00     0.000 C 
HETATM   15  C   UNL     1      40.632 -13.242   4.032  1.00  0.00     0.001 C 
HETATM   16  C   UNL     1      40.511 -14.760   4.200  1.00  0.00     0.011 C 
ENDBRANCH   6  11
ENDBRANCH   2   5
BRANCH   1  17
HETATM   17  C   UNL     1      43.806 -19.629   2.261  1.00  0.00     0.154 C 
BRANCH  17  18
HETATM   18  C   UNL     1      43.292 -21.049   1.990  1.00  0.00     0.028 C 
HETATM   19  C   UNL     1      44.387 -21.966   1.456  1.00  0.00     0.007 C 
ENDBRANCH  17  18
BRANCH  17  20
HETATM   20  C   UNL     1      44.102 -19.414   3.715  1.00  0.00     0.127 A 
HETATM   21  N   UNL     1      44.261 -18.266   4.347  1.00  0.00    -0.237 NA
HETATM   22  C   UNL     1      44.517 -18.589   5.658  1.00  0.00     0.048 A 
HETATM   23  C   UNL     1      44.723 -17.533   6.672  1.00  0.00     0.072 C 
HETATM   24  C   UNL     1      44.535 -19.957   5.817  1.00  0.00     0.116 A 
HETATM   25  N   UNL     1      44.285 -20.470   4.575  1.00  0.00    -0.351 N 
HETATM   26  H   UNL     1      44.257 -21.447   4.313  1.00  0.00     0.166 HD
ENDBRANCH  17  20
ENDBRANCH   1  17
TORSDOF 5
ENDMDL
MODEL 3
REMARK VINA RESULT:      -7.0      2.343      5.534
REMARK  5 active torsions:
REMARK  status: ('A' for Active; 'I' for Inactive)
REMARK    1  A    between atoms: C_2  and  C_3 
REMARK    2  A    between atoms: C_3  and  N_4 
REMARK    3  A    between atoms: C_3  and  C_19 
REMARK       I    between atoms: N_4  and  C_5 
REMARK    4  A    between atoms: C_5  and  C_6 
REMARK    5  A    between atoms: C_7  and  C_8 
ROOT
HETATM    1  N   UNL     1      42.511 -15.470   5.880  1.00  0.00    -0.345 N 
HETATM    2  C   UNL     1      41.205 -15.788   5.600  1.00  0.00     0.255 C 
HETATM    3  O   UNL     1      40.510 -16.451   6.365  1.00  0.00    -0.268 OA
HETATM    4  H   UNL     1      43.090 -15.064   5.160  1.00  0.00     0.163 HD
ENDROOT
BRANCH   2   5
HETATM    5  C   UNL     1      40.704 -15.258   4.341  1.00  0.00     0.075 A 
HETATM    6  C   UNL     1      40.661 -15.905   3.065  1.00  0.00     0.076 A 
HETATM    7  N   UNL     1      40.133 -15.101   2.130  1.00  0.00    -0.178 NA
HETATM    8  N   UNL     1      39.850 -13.968   2.781  1.00  0.00    -0.288 N 
HETATM    9  H   UNL     1      39.443 -13.202   2.253  1.00  0.00     0.188 HD
HETATM   10  C   UNL     1      40.159 -14.010   4.106  1.00  0.00     0.128 A 
BRANCH   6  11
HETATM   11  C   UNL     1      41.109 -17.314   2.730  1.00  0.00     0.040 C 
HETATM   12  C   UNL     1      41.131 -17.570   1.210  1.00  0.00     0.011 C 
HETATM   13  C   UNL     1      42.341 -16.948   0.519  1.00  0.00     0.001 C 
HETATM   14  C   UNL     1      43.644 -17.440   1.139  1.00  0.00     0.000 C 
HETATM   15  C   UNL     1      43.684 -17.177   2.640  1.00  0.00     0.001 C 
HETATM   16  C   UNL     1      42.453 -17.735   3.360  1.00  0.00     0.011 C 
ENDBRANCH   6  11
ENDBRANCH   2   5
BRANCH   1  17
HETATM   17  C   UNL     1      43.180 -15.954   7.071  1.00  0.00     0.154 C 
BRANCH  17  18
HETATM   18  C   UNL     1      44.325 -15.018   7.480  1.00  0.00     0.028 C 
HETATM   19  C   UNL     1      44.623 -13.972   6.412  1.00  0.00     0.007 C 
ENDBRANCH  17  18
BRANCH  17  20
HETATM   20  C   UNL     1      43.677 -17.336   6.763  1.00  0.00     0.127 A 
HETATM   21  N   UNL     1      43.171 -18.485   7.167  1.00  0.00    -0.237 NA
HETATM   22  C   UNL     1      43.974 -19.461   6.628  1.00  0.00     0.048 A 
HETATM   23  C   UNL     1      43.684 -20.893   6.855  1.00  0.00     0.072 C 
HETATM   24  C   UNL     1      44.997 -18.890   5.903  1.00  0.00     0.116 A 
HETATM   25  N   UNL     1      44.806 -17.541   6.009  1.00  0.00    -0.351 N 
HETATM   26  H   UNL     1      45.392 -16.810   5.625  1.00  0.00     0.166 HD
ENDBRANCH  17  20
ENDBRANCH   1  17
TORSDOF 5
ENDMDL
MODEL 4
REMARK VINA RESULT:      -7.0      1.861      5.844
REMARK  5 active torsions:
REMARK  status: ('A' for Active; 'I' for Inactive)
REMARK    1  A    between atoms: C_2  and  C_3 
REMARK    2  A    between atoms: C_3  and  N_4 
REMARK    3  A    between atoms: C_3  and  C_19 
REMARK       I    between atoms: N_4  and  C_5 
REMARK    4  A    between atoms: C_5  and  C_6 
REMARK    5  A    between atoms: C_7  and  C_8 
ROOT
HETATM    1  N   UNL     1      43.145 -16.493   5.012  1.00  0.00    -0.345 N 
HETATM    2  C   UNL     1      42.045 -15.678   5.117  1.00  0.00     0.255 C 
HETATM    3  O   UNL     1      41.131 -15.903   5.906  1.00  0.00    -0.268 OA
HETATM    4  H   UNL     1      43.790 -16.363   4.247  1.00  0.00     0.163 HD
ENDROOT
BRANCH   2   5
HETATM    5  C   UNL     1      42.060 -14.518   4.240  1.00  0.00     0.075 A 
HETATM    6  C   UNL     1      41.343 -14.326   3.016  1.00  0.00     0.076 A 
HETATM    7  N   UNL     1      41.610 -13.126   2.479  1.00  0.00    -0.178 NA
HETATM    8  N   UNL     1      42.478 -12.564   3.326  1.00  0.00    -0.288 N 
HETATM    9  H   UNL     1      42.829 -11.637   3.105  1.00  0.00     0.188 HD
HETATM   10  C   UNL     1      42.773 -13.345   4.401  1.00  0.00     0.128 A 
BRANCH   6  11
HETATM   11  C   UNL     1      40.373 -15.286   2.354  1.00  0.00     0.040 C 
HETATM   12  C   UNL     1      39.877 -14.764   0.993  1.00  0.00     0.011 C 
HETATM   13  C   UNL     1      40.907 -14.930  -0.120  1.00  0.00     0.001 C 
HETATM   14  C   UNL     1      41.341 -16.385  -0.258  1.00  0.00     0.000 C 
HETATM   15  C   UNL     1      41.873 -16.938   1.059  1.00  0.00     0.001 C 
HETATM   16  C   UNL     1      40.888 -16.734   2.214  1.00  0.00     0.011 C 
ENDBRANCH   6  11
ENDBRANCH   2   5
BRANCH   1  17
HETATM   17  C   UNL     1      43.270 -17.716   5.781  1.00  0.00     0.154 C 
BRANCH  17  18
HETATM   18  C   UNL     1      44.214 -17.522   6.975  1.00  0.00     0.028 C 
HETATM   19  C   UNL     1      43.458 -17.350   8.287  1.00  0.00     0.007 C 
ENDBRANCH  17  18
BRANCH  17  20
HETATM   20  C   UNL     1      43.771 -18.774   4.843  1.00  0.00     0.127 A 
HETATM   21  N   UNL     1      43.285 -19.102   3.661  1.00  0.00    -0.237 NA
HETATM   22  C   UNL     1      44.079 -20.122   3.196  1.00  0.00     0.048 A 
HETATM   23  C   UNL     1      43.838 -20.726   1.868  1.00  0.00     0.072 C 
HETATM   24  C   UNL     1      45.050 -20.431   4.124  1.00  0.00     0.116 A 
HETATM   25  N   UNL     1      44.835 -19.579   5.171  1.00  0.00    -0.351 N 
HETATM   26  H   UNL     1      45.343 -19.547   6.046  1.00  0.00     0.166 HD
ENDBRANCH  17  20
ENDBRANCH   1  17
TORSDOF 5
ENDMDL
MODEL 5
REMARK VINA RESULT:      -7.0      2.910      4.852
REMARK  5 active torsions:
REMARK  status: ('A' for Active; 'I' for Inactive)
REMARK    1  A    between atoms: C_2  and  C_3 
REMARK    2  A    between atoms: C_3  and  N_4 
REMARK    3  A    between atoms: C_3  and  C_19 
REMARK       I    between atoms: N_4  and  C_5 
REMARK    4  A    between atoms: C_5  and  C_6 
REMARK    5  A    between atoms: C_7  and  C_8 
ROOT
HETATM    1  N   UNL     1      41.783 -15.688   2.738  1.00  0.00    -0.345 N 
HETATM    2  C   UNL     1      41.407 -15.199   3.965  1.00  0.00     0.255 C 
HETATM    3  O   UNL     1      40.231 -15.054   4.284  1.00  0.00    -0.268 OA
HETATM    4  H   UNL     1      42.751 -15.641   2.459  1.00  0.00     0.163 HD
ENDROOT
BRANCH   2   5
HETATM    5  C   UNL     1      42.510 -14.893   4.863  1.00  0.00     0.075 A 
HETATM    6  C   UNL     1      42.934 -15.619   6.021  1.00  0.00     0.076 A 
HETATM    7  N   UNL     1      43.990 -15.031   6.604  1.00  0.00    -0.178 NA
HETATM    8  N   UNL     1      44.237 -13.956   5.848  1.00  0.00    -0.288 N 
HETATM    9  H   UNL     1      45.004 -13.349   6.117  1.00  0.00     0.188 HD
HETATM   10  C   UNL     1      43.391 -13.831   4.788  1.00  0.00     0.128 A 
BRANCH   6  11
HETATM   11  C   UNL     1      42.341 -16.900   6.575  1.00  0.00     0.040 C 
HETATM   12  C   UNL     1      42.186 -17.984   5.491  1.00  0.00     0.011 C 
HETATM   13  C   UNL     1      43.504 -18.667   5.138  1.00  0.00     0.001 C 
HETATM   14  C   UNL     1      44.162 -19.269   6.375  1.00  0.00     0.000 C 
HETATM   15  C   UNL     1      44.368 -18.225   7.465  1.00  0.00     0.001 C 
HETATM   16  C   UNL     1      43.076 -17.476   7.803  1.00  0.00     0.011 C 
ENDBRANCH   6  11
ENDBRANCH   2   5
BRANCH   1  17
HETATM   17  C   UNL     1      40.812 -16.002   1.707  1.00  0.00     0.154 C 
BRANCH  17  18
HETATM   18  C   UNL     1      40.873 -17.487   1.328  1.00  0.00     0.028 C 
HETATM   19  C   UNL     1      42.220 -18.114   1.666  1.00  0.00     0.007 C 
ENDBRANCH  17  18
BRANCH  17  20
HETATM   20  C   UNL     1      41.117 -15.117   0.536  1.00  0.00     0.127 A 
HETATM   21  N   UNL     1      41.733 -13.950   0.542  1.00  0.00    -0.237 NA
HETATM   22  C   UNL     1      41.767 -13.534  -0.767  1.00  0.00     0.048 A 
HETATM   23  C   UNL     1      42.418 -12.260  -1.141  1.00  0.00     0.072 C 
HETATM   24  C   UNL     1      41.140 -14.455  -1.577  1.00  0.00     0.116 A 
HETATM   25  N   UNL     1      40.718 -15.447  -0.737  1.00  0.00    -0.351 N 
HETATM   26  H   UNL     1      40.188 -16.273  -0.986  1.00  0.00     0.166 HD
ENDBRANCH  17  20
ENDBRANCH   1  17
TORSDOF 5
ENDMDL
MODEL 6
REMARK VINA RESULT:      -6.9      2.343      6.623
REMARK  5 active torsions:
REMARK  status: ('A' for Active; 'I' for Inactive)
REMARK    1  A    between atoms: C_2  and  C_3 
REMARK    2  A    between atoms: C_3  and  N_4 
REMARK    3  A    between atoms: C_3  and  C_19 
REMARK       I    between atoms: N_4  and  C_5 
REMARK    4  A    between atoms: C_5  and  C_6 
REMARK    5  A    between atoms: C_7  and  C_8 
ROOT
HETATM    1  N   UNL     1      42.668 -17.197   3.758  1.00  0.00    -0.345 N 
HETATM    2  C   UNL     1      42.712 -15.903   4.213  1.00  0.00     0.255 C 
HETATM    3  O   UNL     1      43.740 -15.232   4.193  1.00  0.00    -0.268 OA
HETATM    4  H   UNL     1      41.851 -17.761   3.938  1.00  0.00     0.163 HD
ENDROOT
BRANCH   2   5
HETATM    5  C   UNL     1      41.442 -15.383   4.695  1.00  0.00     0.075 A 
HETATM    6  C   UNL     1      40.558 -14.466   4.041  1.00  0.00     0.076 A 
HETATM    7  N   UNL     1      39.478 -14.212   4.795  1.00  0.00    -0.178 NA
HETATM    8  N   UNL     1      39.662 -14.937   5.903  1.00  0.00    -0.288 N 
HETATM    9  H   UNL     1      38.955 -14.886   6.630  1.00  0.00     0.188 HD
HETATM   10  C   UNL     1      40.812 -15.664   5.893  1.00  0.00     0.128 A 
BRANCH   6  11
HETATM   11  C   UNL     1      40.729 -13.836   2.673  1.00  0.00     0.040 C 
HETATM   12  C   UNL     1      40.175 -14.731   1.548  1.00  0.00     0.011 C 
HETATM   13  C   UNL     1      38.652 -14.690   1.451  1.00  0.00     0.001 C 
HETATM   14  C   UNL     1      38.149 -13.263   1.265  1.00  0.00     0.000 C 
HETATM   15  C   UNL     1      38.645 -12.345   2.376  1.00  0.00     0.001 C 
HETATM   16  C   UNL     1      40.166 -12.406   2.543  1.00  0.00     0.011 C 
ENDBRANCH   6  11
ENDBRANCH   2   5
BRANCH   1  17
HETATM   17  C   UNL     1      43.854 -17.885   3.285  1.00  0.00     0.154 C 
BRANCH  17  18
HETATM   18  C   UNL     1      43.696 -18.311   1.819  1.00  0.00     0.028 C 
HETATM   19  C   UNL     1      43.004 -17.243   0.980  1.00  0.00     0.007 C 
ENDBRANCH  17  18
BRANCH  17  20
HETATM   20  C   UNL     1      44.064 -19.065   4.186  1.00  0.00     0.127 A 
HETATM   21  N   UNL     1      43.606 -19.239   5.411  1.00  0.00    -0.237 NA
HETATM   22  C   UNL     1      44.067 -20.468   5.816  1.00  0.00     0.048 A 
HETATM   23  C   UNL     1      43.719 -21.007   7.148  1.00  0.00     0.072 C 
HETATM   24  C   UNL     1      44.836 -21.039   4.826  1.00  0.00     0.116 A 
HETATM   25  N   UNL     1      44.840 -20.133   3.803  1.00  0.00    -0.351 N 
HETATM   26  H   UNL     1      45.335 -20.208   2.923  1.00  0.00     0.166 HD
ENDBRANCH  17  20
ENDBRANCH   1  17
TORSDOF 5
ENDMDL
MODEL 7
REMARK VINA RESULT:      -6.8      2.870      4.673
REMARK  5 active torsions:
REMARK  status: ('A' for Active; 'I' for Inactive)
REMARK    1  A    between atoms: C_2  and  C_3 
REMARK    2  A    between atoms: C_3  and  N_4 
REMARK    3  A    between atoms: C_3  and  C_19 
REMARK       I    between atoms: N_4  and  C_5 
REMARK    4  A    between atoms: C_5  and  C_6 
REMARK    5  A    between atoms: C_7  and  C_8 
ROOT
HETATM    1  N   UNL     1      41.186 -14.647   5.307  1.00  0.00    -0.345 N 
HETATM    2  C   UNL     1      41.226 -15.875   5.920  1.00  0.00     0.255 C 
HETATM    3  O   UNL     1      40.221 -16.425   6.358  1.00  0.00    -0.268 OA
HETATM    4  H   UNL     1      42.048 -14.162   5.107  1.00  0.00     0.163 HD
ENDROOT
BRANCH   2   5
HETATM    5  C   UNL     1      42.547 -16.480   5.986  1.00  0.00     0.075 A 
HETATM    6  C   UNL     1      43.098 -17.492   5.136  1.00  0.00     0.076 A 
HETATM    7  N   UNL     1      44.350 -17.806   5.504  1.00  0.00    -0.178 NA
HETATM    8  N   UNL     1      44.597 -17.026   6.561  1.00  0.00    -0.288 N 
HETATM    9  H   UNL     1      45.501 -17.108   7.015  1.00  0.00     0.188 HD
HETATM   10  C   UNL     1      43.560 -16.206   6.886  1.00  0.00     0.128 A 
BRANCH   6  11
HETATM   11  C   UNL     1      42.437 -18.158   3.946  1.00  0.00     0.040 C 
HETATM   12  C   UNL     1      41.999 -17.137   2.878  1.00  0.00     0.011 C 
HETATM   13  C   UNL     1      43.161 -16.625   2.032  1.00  0.00     0.001 C 
HETATM   14  C   UNL     1      43.907 -17.775   1.365  1.00  0.00     0.000 C 
HETATM   15  C   UNL     1      44.391 -18.796   2.386  1.00  0.00     0.001 C 
HETATM   16  C   UNL     1      43.260 -19.289   3.295  1.00  0.00     0.011 C 
ENDBRANCH   6  11
ENDBRANCH   2   5
BRANCH   1  17
HETATM   17  C   UNL     1      39.958 -13.884   5.197  1.00  0.00     0.154 C 
BRANCH  17  18
HETATM   18  C   UNL     1      39.807 -13.283   3.793  1.00  0.00     0.028 C 
HETATM   19  C   UNL     1      41.034 -13.532   2.924  1.00  0.00     0.007 C 
ENDBRANCH  17  18
BRANCH  17  20
HETATM   20  C   UNL     1      40.006 -12.821   6.254  1.00  0.00     0.127 A 
HETATM   21  N   UNL     1      40.798 -11.767   6.304  1.00  0.00    -0.237 NA
HETATM   22  C   UNL     1      40.466 -11.101   7.459  1.00  0.00     0.048 A 
HETATM   23  C   UNL     1      41.145  -9.840   7.829  1.00  0.00     0.072 C 
HETATM   24  C   UNL     1      39.471 -11.777   8.131  1.00  0.00     0.116 A 
HETATM   25  N   UNL     1      39.198 -12.874   7.364  1.00  0.00    -0.351 N 
HETATM   26  H   UNL     1      38.538 -13.614   7.569  1.00  0.00     0.166 HD
ENDBRANCH  17  20
ENDBRANCH   1  17
TORSDOF 5
ENDMDL
MODEL 8
REMARK VINA RESULT:      -6.7      3.148      5.315
REMARK  5 active torsions:
REMARK  status: ('A' for Active; 'I' for Inactive)
REMARK    1  A    between atoms: C_2  and  C_3 
REMARK    2  A    between atoms: C_3  and  N_4 
REMARK    3  A    between atoms: C_3  and  C_19 
REMARK       I    between atoms: N_4  and  C_5 
REMARK    4  A    between atoms: C_5  and  C_6 
REMARK    5  A    between atoms: C_7  and  C_8 
ROOT
HETATM    1  N   UNL     1      42.195 -14.503   4.516  1.00  0.00    -0.345 N 
HETATM    2  C   UNL     1      42.350 -14.295   3.167  1.00  0.00     0.255 C 
HETATM    3  O   UNL     1      43.020 -13.371   2.716  1.00  0.00    -0.268 OA
HETATM    4  H   UNL     1      41.512 -15.171   4.841  1.00  0.00     0.163 HD
ENDROOT
BRANCH   2   5
HETATM    5  C   UNL     1      41.680 -15.269   2.320  1.00  0.00     0.075 A 
HETATM    6  C   UNL     1      42.214 -16.479   1.773  1.00  0.00     0.076 A 
HETATM    7  N   UNL     1      41.298 -17.123   1.032  1.00  0.00    -0.178 NA
HETATM    8  N   UNL     1      40.209 -16.350   1.095  1.00  0.00    -0.288 N 
HETATM    9  H   UNL     1      39.382 -16.647   0.587  1.00  0.00     0.188 HD
HETATM   10  C   UNL     1      40.377 -15.236   1.859  1.00  0.00     0.128 A 
BRANCH   6  11
HETATM   11  C   UNL     1      43.606 -17.045   1.969  1.00  0.00     0.040 C 
HETATM   12  C   UNL     1      43.933 -17.281   3.456  1.00  0.00     0.011 C 
HETATM   13  C   UNL     1      43.271 -18.534   4.020  1.00  0.00     0.001 C 
HETATM   14  C   UNL     1      43.649 -19.770   3.211  1.00  0.00     0.000 C 
HETATM   15  C   UNL     1      43.313 -19.598   1.735  1.00  0.00     0.001 C 
HETATM   16  C   UNL     1      43.912 -18.316   1.149  1.00  0.00     0.011 C 
ENDBRANCH   6  11
ENDBRANCH   2   5
BRANCH   1  17
HETATM   17  C   UNL     1      42.759 -13.601   5.501  1.00  0.00     0.154 C 
BRANCH  17  18
HETATM   18  C   UNL     1      43.523 -14.375   6.583  1.00  0.00     0.028 C 
HETATM   19  C   UNL     1      44.872 -13.740   6.902  1.00  0.00     0.007 C 
ENDBRANCH  17  18
BRANCH  17  20
HETATM   20  C   UNL     1      41.619 -12.817   6.080  1.00  0.00     0.127 A 
HETATM   21  N   UNL     1      41.634 -11.574   6.521  1.00  0.00    -0.237 NA
HETATM   22  C   UNL     1      40.357 -11.311   6.953  1.00  0.00     0.048 A 
HETATM   23  C   UNL     1      39.998  -9.982   7.495  1.00  0.00     0.072 C 
HETATM   24  C   UNL     1      39.560 -12.423   6.790  1.00  0.00     0.116 A 
HETATM   25  N   UNL     1      40.376 -13.377   6.249  1.00  0.00    -0.351 N 
HETATM   26  H   UNL     1      40.132 -14.333   6.027  1.00  0.00     0.166 HD
ENDBRANCH  17  20
ENDBRANCH   1  17
TORSDOF 5
ENDMDL
MODEL 9
REMARK VINA RESULT:      -6.6      2.052      6.642
REMARK  5 active torsions:
REMARK  status: ('A' for Active; 'I' for Inactive)
REMARK    1  A    between atoms: C_2  and  C_3 
REMARK    2  A    between atoms: C_3  and  N_4 
REMARK    3  A    between atoms: C_3  and  C_19 
REMARK       I    between atoms: N_4  and  C_5 
REMARK    4  A    between atoms: C_5  and  C_6 
REMARK    5  A    between atoms: C_7  and  C_8 
ROOT
HETATM    1  N   UNL     1      42.746 -17.262   4.609  1.00  0.00    -0.345 N 
HETATM    2  C   UNL     1      41.378 -17.150   4.558  1.00  0.00     0.255 C 
HETATM    3  O   UNL     1      40.649 -17.569   5.452  1.00  0.00    -0.268 OA
HETATM    4  H   UNL     1      43.294 -17.051   3.789  1.00  0.00     0.163 HD
ENDROOT
BRANCH   2   5
HETATM    5  C   UNL     1      40.866 -16.476   3.375  1.00  0.00     0.075 A 
HETATM    6  C   UNL     1      40.241 -15.191   3.293  1.00  0.00     0.076 A 
HETATM    7  N   UNL     1      39.894 -14.900   2.030  1.00  0.00    -0.178 NA
HETATM    8  N   UNL     1      40.277 -15.966   1.320  1.00  0.00    -0.288 N 
HETATM    9  H   UNL     1      40.099 -15.965   0.321  1.00  0.00     0.188 HD
HETATM   10  C   UNL     1      40.874 -16.933   2.071  1.00  0.00     0.128 A 
BRANCH   6  11
HETATM   11  C   UNL     1      39.985 -14.215   4.424  1.00  0.00     0.040 C 
HETATM   12  C   UNL     1      41.220 -14.037   5.329  1.00  0.00     0.011 C 
HETATM   13  C   UNL     1      42.289 -13.143   4.708  1.00  0.00     0.001 C 
HETATM   14  C   UNL     1      41.721 -11.776   4.344  1.00  0.00     0.000 C 
HETATM   15  C   UNL     1      40.515 -11.898   3.420  1.00  0.00     0.001 C 
HETATM   16  C   UNL     1      39.445 -12.839   3.984  1.00  0.00     0.011 C 
ENDBRANCH   6  11
ENDBRANCH   2   5
BRANCH   1  17
HETATM   17  C   UNL     1      43.420 -17.945   5.696  1.00  0.00     0.154 C 
BRANCH  17  18
HETATM   18  C   UNL     1      44.496 -17.052   6.327  1.00  0.00     0.028 C 
HETATM   19  C   UNL     1      43.896 -15.866   7.073  1.00  0.00     0.007 C 
ENDBRANCH  17  18
BRANCH  17  20
HETATM   20  C   UNL     1      44.007 -19.202   5.125  1.00  0.00     0.127 A 
HETATM   21  N   UNL     1      44.309 -20.316   5.764  1.00  0.00    -0.237 NA
HETATM   22  C   UNL     1      44.818 -21.169   4.815  1.00  0.00     0.048 A 
HETATM   23  C   UNL     1      45.242 -22.539   5.176  1.00  0.00     0.072 C 
HETATM   24  C   UNL     1      44.846 -20.551   3.584  1.00  0.00     0.116 A 
HETATM   25  N   UNL     1      44.343 -19.299   3.797  1.00  0.00    -0.351 N 
HETATM   26  H   UNL     1      44.247 -18.556   3.116  1.00  0.00     0.166 HD
ENDBRANCH  17  20
ENDBRANCH   1  17
TORSDOF 5
ENDMDL
MODEL 10
REMARK VINA RESULT:      -6.6      2.045      7.081
REMARK  5 active torsions:
REMARK  status: ('A' for Active; 'I' for Inactive)
REMARK    1  A    between atoms: C_2  and  C_3 
REMARK    2  A    between atoms: C_3  and  N_4 
REMARK    3  A    between atoms: C_3  and  C_19 
REMARK       I    between atoms: N_4  and  C_5 
REMARK    4  A    between atoms: C_5  and  C_6 
REMARK    5  A    between atoms: C_7  and  C_8 
ROOT
HETATM    1  N   UNL     1      42.589 -17.588   3.367  1.00  0.00    -0.345 N 
HETATM    2  C   UNL     1      42.481 -16.322   2.846  1.00  0.00     0.255 C 
HETATM    3  O   UNL     1      43.459 -15.611   2.636  1.00  0.00    -0.268 OA
HETATM    4  H   UNL     1      41.759 -18.074   3.671  1.00  0.00     0.163 HD
ENDROOT
BRANCH   2   5
HETATM    5  C   UNL     1      41.122 -15.903   2.541  1.00  0.00     0.075 A 
HETATM    6  C   UNL     1      40.481 -14.669   2.882  1.00  0.00     0.076 A 
HETATM    7  N   UNL     1      39.216 -14.639   2.434  1.00  0.00    -0.178 NA
HETATM    8  N   UNL     1      39.045 -15.819   1.829  1.00  0.00    -0.288 N 
HETATM    9  H   UNL     1      38.138 -16.018   1.419  1.00  0.00     0.188 HD
HETATM   10  C   UNL     1      40.153 -16.609   1.852  1.00  0.00     0.128 A 
BRANCH   6  11
HETATM   11  C   UNL     1      41.081 -13.492   3.626  1.00  0.00     0.040 C 
HETATM   12  C   UNL     1      40.418 -12.158   3.233  1.00  0.00     0.011 C 
HETATM   13  C   UNL     1      39.051 -11.959   3.882  1.00  0.00     0.001 C 
HETATM   14  C   UNL     1      39.141 -12.058   5.400  1.00  0.00     0.000 C 
HETATM   15  C   UNL     1      39.761 -13.378   5.840  1.00  0.00     0.001 C 
HETATM   16  C   UNL     1      41.108 -13.642   5.161  1.00  0.00     0.011 C 
ENDBRANCH   6  11
ENDBRANCH   2   5
BRANCH   1  17
HETATM   17  C   UNL     1      43.866 -18.146   3.768  1.00  0.00     0.154 C 
BRANCH  17  18
HETATM   18  C   UNL     1      44.150 -19.460   3.029  1.00  0.00     0.028 C 
HETATM   19  C   UNL     1      43.076 -19.785   1.998  1.00  0.00     0.007 C 
ENDBRANCH  17  18
BRANCH  17  20
HETATM   20  C   UNL     1      43.809 -18.346   5.253  1.00  0.00     0.127 A 
HETATM   21  N   UNL     1      43.675 -17.425   6.189  1.00  0.00    -0.237 NA
HETATM   22  C   UNL     1      43.680 -18.099   7.386  1.00  0.00     0.048 A 
HETATM   23  C   UNL     1      43.521 -17.374   8.665  1.00  0.00     0.072 C 
HETATM   24  C   UNL     1      43.842 -19.450   7.172  1.00  0.00     0.116 A 
HETATM   25  N   UNL     1      43.938 -19.593   5.816  1.00  0.00    -0.351 N 
HETATM   26  H   UNL     1      44.096 -20.450   5.302  1.00  0.00     0.166 HD
ENDBRANCH  17  20
ENDBRANCH   1  17
TORSDOF 5
ENDMDL
