MODEL 1
REMARK VINA RESULT:      -7.5      0.000      0.000
REMARK  3 active torsions:
REMARK  status: ('A' for Active; 'I' for Inactive)
REMARK    1  A    between atoms: C_2  and  C_3 
REMARK    2  A    between atoms: C_7  and  N_8 
REMARK       I    between atoms: N_8  and  C_9 
REMARK    3  A    between atoms: C_9  and  C_10 
ROOT
HETATM    1  N   UNL     1      40.395 -16.550   2.966  1.00  0.00    -0.309 N 
HETATM    2  C   UNL     1      41.034 -16.089   4.102  1.00  0.00     0.234 C 
HETATM    3  O   UNL     1      41.499 -14.966   4.289  1.00  0.00    -0.272 OA
HETATM    4  H   UNL     1      40.071 -17.505   2.944  1.00  0.00     0.170 HD
ENDROOT
BRANCH   2   5
HETATM    5  C   UNL     1      41.168 -17.131   5.206  1.00  0.00     0.138 C 
HETATM    6  C   UNL     1      42.451 -17.883   5.184  1.00  0.00    -0.008 A 
HETATM    7  C   UNL     1      43.258 -17.442   6.223  1.00  0.00     0.076 A 
HETATM    8  C   UNL     1      42.898 -18.844   4.293  1.00  0.00     0.030 A 
HETATM    9  C   UNL     1      44.535 -17.925   6.413  1.00  0.00     0.039 A 
HETATM   10  O   UNL     1      42.682 -16.457   6.982  1.00  0.00    -0.349 OA
HETATM   11  C   UNL     1      45.001 -18.903   5.529  1.00  0.00     0.022 A 
HETATM   12  C   UNL     1      44.185 -19.355   4.479  1.00  0.00     0.011 A 
HETATM   13 BR   UNL     1      44.845 -20.669   3.289  1.00  0.00    -0.051 Br
HETATM   14  C   UNL     1      41.281 -16.489   6.592  1.00  0.00     0.194 C 
ENDBRANCH   2   5
BRANCH   1  15
HETATM   15  C   UNL     1      40.106 -15.797   1.845  1.00  0.00     0.158 A 
HETATM   16  N   UNL     1      38.973 -15.126   1.655  1.00  0.00    -0.156 NA
HETATM   17  N   UNL     1      39.098 -14.577   0.445  1.00  0.00    -0.280 N 
HETATM   18  C   UNL     1      40.283 -14.864  -0.170  1.00  0.00     0.037 A 
HETATM   19  H   UNL     1      38.325 -14.023   0.092  1.00  0.00     0.189 HD
HETATM   20  C   UNL     1      40.986 -15.650   0.729  1.00  0.00     0.010 A 
HETATM   21  C   UNL     1      42.343 -16.225   0.553  1.00  0.00     0.054 C 
BRANCH  18  22
HETATM   22  C   UNL     1      40.601 -14.360  -1.534  1.00  0.00     0.055 C 
HETATM   23  C   UNL     1      40.650 -15.489  -2.552  1.00  0.00     0.011 C 
ENDBRANCH  18  22
ENDBRANCH   1  15
TORSDOF 3
ENDMDL
MODEL 2
REMARK VINA RESULT:      -7.3      2.169      2.445
REMARK  3 active torsions:
REMARK  status: ('A' for Active; 'I' for Inactive)
REMARK    1  A    between atoms: C_2  and  C_3 
REMARK    2  A    between atoms: C_7  and  N_8 
REMARK       I    between atoms: N_8  and  C_9 
REMARK    3  A    between atoms: C_9  and  C_10 
ROOT
HETATM    1  N   UNL     1      41.760 -15.212   2.241  1.00  0.00    -0.309 N 
HETATM    2  C   UNL     1      42.778 -16.045   2.667  1.00  0.00     0.234 C 
HETATM    3  O   UNL     1      43.950 -16.032   2.298  1.00  0.00    -0.272 OA
HETATM    4  H   UNL     1      40.834 -15.342   2.621  1.00  0.00     0.170 HD
ENDROOT
BRANCH   2   5
HETATM    5  C   UNL     1      42.342 -17.087   3.689  1.00  0.00     0.138 C 
HETATM    6  C   UNL     1      43.157 -18.332   3.680  1.00  0.00    -0.008 A 
HETATM    7  C   UNL     1      43.982 -18.345   4.795  1.00  0.00     0.076 A 
HETATM    8  C   UNL     1      43.209 -19.348   2.741  1.00  0.00     0.030 A 
HETATM    9  C   UNL     1      44.893 -19.356   5.018  1.00  0.00     0.039 A 
HETATM   10  O   UNL     1      43.837 -17.244   5.597  1.00  0.00    -0.349 OA
HETATM   11  C   UNL     1      44.954 -20.397   4.086  1.00  0.00     0.022 A 
HETATM   12  C   UNL     1      44.116 -20.388   2.959  1.00  0.00     0.011 A 
HETATM   13 BR   UNL     1      44.228 -21.801   1.707  1.00  0.00    -0.051 Br
HETATM   14  C   UNL     1      42.606 -16.629   5.126  1.00  0.00     0.194 C 
ENDBRANCH   2   5
BRANCH   1  15
HETATM   15  C   UNL     1      41.898 -14.159   1.359  1.00  0.00     0.158 A 
HETATM   16  N   UNL     1      42.339 -12.948   1.687  1.00  0.00    -0.156 NA
HETATM   17  N   UNL     1      42.281 -12.243   0.556  1.00  0.00    -0.280 N 
HETATM   18  C   UNL     1      41.816 -12.954  -0.513  1.00  0.00     0.037 A 
HETATM   19  H   UNL     1      42.565 -11.269   0.587  1.00  0.00     0.189 HD
HETATM   20  C   UNL     1      41.571 -14.230  -0.031  1.00  0.00     0.010 A 
HETATM   21  C   UNL     1      41.062 -15.398  -0.792  1.00  0.00     0.054 C 
BRANCH  18  22
HETATM   22  C   UNL     1      41.659 -12.337  -1.858  1.00  0.00     0.055 C 
HETATM   23  C   UNL     1      42.795 -12.728  -2.792  1.00  0.00     0.011 C 
ENDBRANCH  18  22
ENDBRANCH   1  15
TORSDOF 3
ENDMDL
MODEL 3
REMARK VINA RESULT:      -7.2      2.362      3.168
REMARK  3 active torsions:
REMARK  status: ('A' for Active; 'I' for Inactive)
REMARK    1  A    between atoms: C_2  and  C_3 
REMARK    2  A    between atoms: C_7  and  N_8 
REMARK       I    between atoms: N_8  and  C_9 
REMARK    3  A    between atoms: C_9  and  C_10 
ROOT
HETATM    1  N   UNL     1      40.929 -16.196  -0.096  1.00  0.00    -0.309 N 
HETATM    2  C   UNL     1      41.932 -16.700   0.711  1.00  0.00     0.234 C 
HETATM    3  O   UNL     1      43.145 -16.590   0.542  1.00  0.00    -0.272 OA
HETATM    4  H   UNL     1      39.967 -16.373   0.156  1.00  0.00     0.170 HD
ENDROOT
BRANCH   2   5
HETATM    5  C   UNL     1      41.427 -17.485   1.915  1.00  0.00     0.138 C 
HETATM    6  C   UNL     1      42.420 -18.434   2.487  1.00  0.00    -0.008 A 
HETATM    7  C   UNL     1      42.904 -17.924   3.682  1.00  0.00     0.076 A 
HETATM    8  C   UNL     1      42.900 -19.628   1.974  1.00  0.00     0.030 A 
HETATM    9  C   UNL     1      43.883 -18.567   4.408  1.00  0.00     0.039 A 
HETATM   10  O   UNL     1      42.358 -16.714   4.022  1.00  0.00    -0.349 OA
HETATM   11  C   UNL     1      44.374 -19.778   3.912  1.00  0.00     0.022 A 
HETATM   12  C   UNL     1      43.883 -20.300   2.705  1.00  0.00     0.011 A 
HETATM   13 BR   UNL     1      44.574 -21.934   2.049  1.00  0.00    -0.051 Br
HETATM   14  C   UNL     1      41.210 -16.588   3.137  1.00  0.00     0.194 C 
ENDBRANCH   2   5
BRANCH   1  15
HETATM   15  C   UNL     1      41.115 -15.414  -1.218  1.00  0.00     0.158 A 
HETATM   16  N   UNL     1      40.982 -15.842  -2.471  1.00  0.00    -0.156 NA
HETATM   17  N   UNL     1      41.284 -14.786  -3.229  1.00  0.00    -0.280 N 
HETATM   18  C   UNL     1      41.610 -13.670  -2.513  1.00  0.00     0.037 A 
HETATM   19  H   UNL     1      41.257 -14.901  -4.237  1.00  0.00     0.189 HD
HETATM   20  C   UNL     1      41.492 -14.036  -1.181  1.00  0.00     0.010 A 
HETATM   21  C   UNL     1      41.727 -13.184   0.011  1.00  0.00     0.054 C 
BRANCH  18  22
HETATM   22  C   UNL     1      41.997 -12.397  -3.179  1.00  0.00     0.055 C 
HETATM   23  C   UNL     1      40.783 -11.537  -3.494  1.00  0.00     0.011 C 
ENDBRANCH  18  22
ENDBRANCH   1  15
TORSDOF 3
ENDMDL
MODEL 4
REMARK VINA RESULT:      -7.1      3.016      4.018
REMARK  3 active torsions:
REMARK  status: ('A' for Active; 'I' for Inactive)
REMARK    1  A    between atoms: C_2  and  C_3 
REMARK    2  A    between atoms: C_7  and  N_8 
REMARK       I    between atoms: N_8  and  C_9 
REMARK    3  A    between atoms: C_9  and  C_10 
ROOT
HETATM    1  N   UNL     1      42.864 -17.902   2.957  1.00  0.00    -0.309 N 
HETATM    2  C   UNL     1      43.351 -19.173   2.712  1.00  0.00     0.234 C 
HETATM    3  O   UNL     1      42.904 -19.999   1.919  1.00  0.00    -0.272 OA
HETATM    4  H   UNL     1      43.325 -17.330   3.649  1.00  0.00     0.170 HD
ENDROOT
BRANCH   2   5
HETATM    5  C   UNL     1      44.562 -19.549   3.557  1.00  0.00     0.138 C 
HETATM    6  C   UNL     1      44.308 -19.552   5.023  1.00  0.00    -0.008 A 
HETATM    7  C   UNL     1      44.245 -20.863   5.472  1.00  0.00     0.076 A 
HETATM    8  C   UNL     1      44.098 -18.491   5.887  1.00  0.00     0.030 A 
HETATM    9  C   UNL     1      43.963 -21.173   6.786  1.00  0.00     0.039 A 
HETATM   10  O   UNL     1      44.429 -21.791   4.481  1.00  0.00    -0.349 OA
HETATM   11  C   UNL     1      43.756 -20.115   7.676  1.00  0.00     0.022 A 
HETATM   12  C   UNL     1      43.824 -18.786   7.225  1.00  0.00     0.011 A 
HETATM   13 BR   UNL     1      43.528 -17.374   8.447  1.00  0.00    -0.051 Br
HETATM   14  C   UNL     1      44.961 -21.015   3.371  1.00  0.00     0.194 C 
ENDBRANCH   2   5
BRANCH   1  15
HETATM   15  C   UNL     1      41.810 -17.305   2.296  1.00  0.00     0.158 A 
HETATM   16  N   UNL     1      41.502 -17.510   1.018  1.00  0.00    -0.156 NA
HETATM   17  N   UNL     1      40.452 -16.719   0.786  1.00  0.00    -0.280 N 
HETATM   18  C   UNL     1      40.055 -15.998   1.876  1.00  0.00     0.037 A 
HETATM   19  H   UNL     1      40.060 -16.712  -0.150  1.00  0.00     0.189 HD
HETATM   20  C   UNL     1      40.912 -16.370   2.899  1.00  0.00     0.010 A 
HETATM   21  C   UNL     1      40.905 -15.884   4.301  1.00  0.00     0.054 C 
BRANCH  18  22
HETATM   22  C   UNL     1      38.915 -15.043   1.811  1.00  0.00     0.055 C 
HETATM   23  C   UNL     1      39.393 -13.600   1.766  1.00  0.00     0.011 C 
ENDBRANCH  18  22
ENDBRANCH   1  15
TORSDOF 3
ENDMDL
MODEL 5
REMARK VINA RESULT:      -7.0      3.332      6.429
REMARK  3 active torsions:
REMARK  status: ('A' for Active; 'I' for Inactive)
REMARK    1  A    between atoms: C_2  and  C_3 
REMARK    2  A    between atoms: C_7  and  N_8 
REMARK       I    between atoms: N_8  and  C_9 
REMARK    3  A    between atoms: C_9  and  C_10 
ROOT
HETATM    1  N   UNL     1      41.778 -16.320   3.209  1.00  0.00    -0.309 N 
HETATM    2  C   UNL     1      42.328 -15.052   3.157  1.00  0.00     0.234 C 
HETATM    3  O   UNL     1      43.502 -14.744   3.352  1.00  0.00    -0.272 OA
HETATM    4  H   UNL     1      40.789 -16.428   3.038  1.00  0.00     0.170 HD
ENDROOT
BRANCH   2   5
HETATM    5  C   UNL     1      41.324 -13.951   2.839  1.00  0.00     0.138 C 
HETATM    6  C   UNL     1      41.114 -13.716   1.385  1.00  0.00    -0.008 A 
HETATM    7  C   UNL     1      39.879 -14.228   1.014  1.00  0.00     0.076 A 
HETATM    8  C   UNL     1      41.960 -13.145   0.449  1.00  0.00     0.030 A 
HETATM    9  C   UNL     1      39.441 -14.202  -0.293  1.00  0.00     0.039 A 
HETATM   10  O   UNL     1      39.189 -14.799   2.051  1.00  0.00    -0.349 OA
HETATM   11  C   UNL     1      40.277 -13.621  -1.251  1.00  0.00     0.022 A 
HETATM   12  C   UNL     1      41.525 -13.098  -0.878  1.00  0.00     0.011 A 
HETATM   13 BR   UNL     1      42.643 -12.330  -2.196  1.00  0.00    -0.051 Br
HETATM   14  C   UNL     1      39.897 -14.341   3.236  1.00  0.00     0.194 C 
ENDBRANCH   2   5
BRANCH   1  15
HETATM   15  C   UNL     1      42.475 -17.490   3.431  1.00  0.00     0.158 A 
HETATM   16  N   UNL     1      42.519 -18.137   4.593  1.00  0.00    -0.156 NA
HETATM   17  N   UNL     1      43.321 -19.181   4.375  1.00  0.00    -0.280 N 
HETATM   18  C   UNL     1      43.808 -19.244   3.101  1.00  0.00     0.037 A 
HETATM   19  H   UNL     1      43.505 -19.809   5.151  1.00  0.00     0.189 HD
HETATM   20  C   UNL     1      43.258 -18.158   2.439  1.00  0.00     0.010 A 
HETATM   21  C   UNL     1      43.460 -17.771   1.021  1.00  0.00     0.054 C 
BRANCH  18  22
HETATM   22  C   UNL     1      44.737 -20.324   2.669  1.00  0.00     0.055 C 
HETATM   23  C   UNL     1      44.002 -21.441   1.944  1.00  0.00     0.011 C 
ENDBRANCH  18  22
ENDBRANCH   1  15
TORSDOF 3
ENDMDL
MODEL 6
REMARK VINA RESULT:      -7.0      5.546      8.132
REMARK  3 active torsions:
REMARK  status: ('A' for Active; 'I' for Inactive)
REMARK    1  A    between atoms: C_2  and  C_3 
REMARK    2  A    between atoms: C_7  and  N_8 
REMARK       I    between atoms: N_8  and  C_9 
REMARK    3  A    between atoms: C_9  and  C_10 
ROOT
HETATM    1  N   UNL     1      43.803 -12.907   7.748  1.00  0.00    -0.309 N 
HETATM    2  C   UNL     1      44.659 -13.510   6.845  1.00  0.00     0.234 C 
HETATM    3  O   UNL     1      45.882 -13.602   6.929  1.00  0.00    -0.272 OA
HETATM    4  H   UNL     1      42.814 -12.893   7.546  1.00  0.00     0.170 HD
ENDROOT
BRANCH   2   5
HETATM    5  C   UNL     1      43.962 -14.092   5.621  1.00  0.00     0.138 C 
HETATM    6  C   UNL     1      43.336 -15.422   5.848  1.00  0.00    -0.008 A 
HETATM    7  C   UNL     1      41.958 -15.272   5.911  1.00  0.00     0.076 A 
HETATM    8  C   UNL     1      43.929 -16.659   6.035  1.00  0.00     0.030 A 
HETATM    9  C   UNL     1      41.119 -16.335   6.171  1.00  0.00     0.039 A 
HETATM   10  O   UNL     1      41.540 -13.977   5.751  1.00  0.00    -0.349 OA
HETATM   11  C   UNL     1      41.698 -17.594   6.354  1.00  0.00     0.022 A 
HETATM   12  C   UNL     1      43.092 -17.749   6.286  1.00  0.00     0.011 A 
HETATM   13 BR   UNL     1      43.851 -19.462   6.550  1.00  0.00    -0.051 Br
HETATM   14  C   UNL     1      42.715 -13.292   5.235  1.00  0.00     0.194 C 
ENDBRANCH   2   5
BRANCH   1  15
HETATM   15  C   UNL     1      44.172 -12.347   8.954  1.00  0.00     0.158 A 
HETATM   16  N   UNL     1      45.182 -12.770   9.710  1.00  0.00    -0.156 NA
HETATM   17  N   UNL     1      45.162 -11.981  10.785  1.00  0.00    -0.280 N 
HETATM   18  C   UNL     1      44.169 -11.045  10.762  1.00  0.00     0.037 A 
HETATM   19  H   UNL     1      45.855 -12.146  11.508  1.00  0.00     0.189 HD
HETATM   20  C   UNL     1      43.505 -11.238   9.561  1.00  0.00     0.010 A 
HETATM   21  C   UNL     1      42.346 -10.472   9.040  1.00  0.00     0.054 C 
BRANCH  18  22
HETATM   22  C   UNL     1      43.970 -10.085  11.882  1.00  0.00     0.055 C 
HETATM   23  C   UNL     1      43.007 -10.630  12.925  1.00  0.00     0.011 C 
ENDBRANCH  18  22
ENDBRANCH   1  15
TORSDOF 3
ENDMDL
MODEL 7
REMARK VINA RESULT:      -6.9      2.626      3.649
REMARK  3 active torsions:
REMARK  status: ('A' for Active; 'I' for Inactive)
REMARK    1  A    between atoms: C_2  and  C_3 
REMARK    2  A    between atoms: C_7  and  N_8 
REMARK       I    between atoms: N_8  and  C_9 
REMARK    3  A    between atoms: C_9  and  C_10 
ROOT
HETATM    1  N   UNL     1      41.861 -15.462   0.040  1.00  0.00    -0.309 N 
HETATM    2  C   UNL     1      41.906 -16.616   0.801  1.00  0.00     0.234 C 
HETATM    3  O   UNL     1      40.959 -17.331   1.122  1.00  0.00    -0.272 OA
HETATM    4  H   UNL     1      42.720 -14.963  -0.139  1.00  0.00     0.170 HD
ENDROOT
BRANCH   2   5
HETATM    5  C   UNL     1      43.303 -16.987   1.285  1.00  0.00     0.138 C 
HETATM    6  C   UNL     1      43.421 -17.130   2.761  1.00  0.00    -0.008 A 
HETATM    7  C   UNL     1      43.521 -18.475   3.082  1.00  0.00     0.076 A 
HETATM    8  C   UNL     1      43.391 -16.160   3.749  1.00  0.00     0.030 A 
HETATM    9  C   UNL     1      43.586 -18.912   4.389  1.00  0.00     0.039 A 
HETATM   10  O   UNL     1      43.489 -19.303   1.991  1.00  0.00    -0.349 OA
HETATM   11  C   UNL     1      43.567 -17.947   5.400  1.00  0.00     0.022 A 
HETATM   12  C   UNL     1      43.470 -16.584   5.078  1.00  0.00     0.011 A 
HETATM   13 BR   UNL     1      43.433 -15.300   6.467  1.00  0.00    -0.051 Br
HETATM   14  C   UNL     1      43.699 -18.405   0.866  1.00  0.00     0.194 C 
ENDBRANCH   2   5
BRANCH   1  15
HETATM   15  C   UNL     1      40.732 -14.936  -0.555  1.00  0.00     0.158 A 
HETATM   16  N   UNL     1      39.722 -14.370   0.101  1.00  0.00    -0.156 NA
HETATM   17  N   UNL     1      38.841 -14.037  -0.843  1.00  0.00    -0.280 N 
HETATM   18  C   UNL     1      39.239 -14.365  -2.108  1.00  0.00     0.037 A 
HETATM   19  H   UNL     1      37.975 -13.596  -0.551  1.00  0.00     0.189 HD
HETATM   20  C   UNL     1      40.491 -14.941  -1.964  1.00  0.00     0.010 A 
HETATM   21  C   UNL     1      41.370 -15.465  -3.039  1.00  0.00     0.054 C 
BRANCH  18  22
HETATM   22  C   UNL     1      38.383 -14.093  -3.295  1.00  0.00     0.055 C 
HETATM   23  C   UNL     1      37.460 -15.263  -3.600  1.00  0.00     0.011 C 
ENDBRANCH  18  22
ENDBRANCH   1  15
TORSDOF 3
ENDMDL
MODEL 8
REMARK VINA RESULT:      -6.9      3.583      6.168
REMARK  3 active torsions:
REMARK  status: ('A' for Active; 'I' for Inactive)
REMARK    1  A    between atoms: C_2  and  C_3 
REMARK    2  A    between atoms: C_7  and  N_8 
REMARK       I    between atoms: N_8  and  C_9 
REMARK    3  A    between atoms: C_9  and  C_10 
ROOT
HETATM    1  N   UNL     1      43.407 -16.757   4.274  1.00  0.00    -0.309 N 
HETATM    2  C   UNL     1      42.104 -16.294   4.293  1.00  0.00     0.234 C 
HETATM    3  O   UNL     1      41.080 -16.951   4.110  1.00  0.00    -0.272 OA
HETATM    4  H   UNL     1      44.158 -16.101   4.429  1.00  0.00     0.170 HD
ENDROOT
BRANCH   2   5
HETATM    5  C   UNL     1      41.979 -14.798   4.553  1.00  0.00     0.138 C 
HETATM    6  C   UNL     1      41.421 -14.023   3.413  1.00  0.00    -0.008 A 
HETATM    7  C   UNL     1      40.117 -13.652   3.707  1.00  0.00     0.076 A 
HETATM    8  C   UNL     1      41.993 -13.711   2.191  1.00  0.00     0.030 A 
HETATM    9  C   UNL     1      39.330 -12.969   2.804  1.00  0.00     0.039 A 
HETATM   10  O   UNL     1      39.690 -14.080   4.937  1.00  0.00    -0.349 OA
HETATM   11  C   UNL     1      39.893 -12.637   1.569  1.00  0.00     0.022 A 
HETATM   12  C   UNL     1      41.214 -13.007   1.269  1.00  0.00     0.011 A 
HETATM   13 BR   UNL     1      41.947 -12.556  -0.415  1.00  0.00    -0.051 Br
HETATM   14  C   UNL     1      40.915 -14.485   5.609  1.00  0.00     0.194 C 
ENDBRANCH   2   5
BRANCH   1  15
HETATM   15  C   UNL     1      43.790 -18.072   4.106  1.00  0.00     0.158 A 
HETATM   16  N   UNL     1      44.071 -18.913   5.098  1.00  0.00    -0.156 NA
HETATM   17  N   UNL     1      44.425 -20.049   4.496  1.00  0.00    -0.280 N 
HETATM   18  C   UNL     1      44.384 -19.986   3.133  1.00  0.00     0.037 A 
HETATM   19  H   UNL     1      44.696 -20.833   5.081  1.00  0.00     0.189 HD
HETATM   20  C   UNL     1      43.950 -18.704   2.834  1.00  0.00     0.010 A 
HETATM   21  C   UNL     1      43.725 -18.121   1.488  1.00  0.00     0.054 C 
BRANCH  18  22
HETATM   22  C   UNL     1      44.764 -21.147   2.282  1.00  0.00     0.055 C 
HETATM   23  C   UNL     1      43.542 -21.827   1.682  1.00  0.00     0.011 C 
ENDBRANCH  18  22
ENDBRANCH   1  15
TORSDOF 3
ENDMDL
MODEL 9
REMARK VINA RESULT:      -6.9      4.608      6.971
REMARK  3 active torsions:
REMARK  status: ('A' for Active; 'I' for Inactive)
REMARK    1  A    between atoms: C_2  and  C_3 
REMARK    2  A    between atoms: C_7  and  N_8 
REMARK       I    between atoms: N_8  and  C_9 
REMARK    3  A    between atoms: C_9  and  C_10 
ROOT
HETATM    1  N   UNL     1      42.933 -13.863   6.687  1.00  0.00    -0.309 N 
HETATM    2  C   UNL     1      42.535 -13.521   5.408  1.00  0.00     0.234 C 
HETATM    3  O   UNL     1      42.990 -12.620   4.705  1.00  0.00    -0.272 OA
HETATM    4  H   UNL     1      42.462 -14.623   7.156  1.00  0.00     0.170 HD
ENDROOT
BRANCH   2   5
HETATM    5  C   UNL     1      41.393 -14.369   4.863  1.00  0.00     0.138 C 
HETATM    6  C   UNL     1      41.818 -15.678   4.299  1.00  0.00    -0.008 A 
HETATM    7  C   UNL     1      41.458 -16.692   5.175  1.00  0.00     0.076 A 
HETATM    8  C   UNL     1      42.512 -15.956   3.133  1.00  0.00     0.030 A 
HETATM    9  C   UNL     1      41.778 -18.012   4.936  1.00  0.00     0.039 A 
HETATM   10  O   UNL     1      40.820 -16.241   6.301  1.00  0.00    -0.349 OA
HETATM   11  C   UNL     1      42.471 -18.313   3.760  1.00  0.00     0.022 A 
HETATM   12  C   UNL     1      42.832 -17.290   2.869  1.00  0.00     0.011 A 
HETATM   13 BR   UNL     1      43.781 -17.724   1.291  1.00  0.00    -0.051 Br
HETATM   14  C   UNL     1      40.466 -14.868   5.976  1.00  0.00     0.194 C 
ENDBRANCH   2   5
BRANCH   1  15
HETATM   15  C   UNL     1      43.972 -13.284   7.388  1.00  0.00     0.158 A 
HETATM   16  N   UNL     1      45.215 -13.758   7.431  1.00  0.00    -0.156 NA
HETATM   17  N   UNL     1      45.873 -12.925   8.237  1.00  0.00    -0.280 N 
HETATM   18  C   UNL     1      45.102 -11.910   8.728  1.00  0.00     0.037 A 
HETATM   19  H   UNL     1      46.853 -13.115   8.421  1.00  0.00     0.189 HD
HETATM   20  C   UNL     1      43.846 -12.098   8.175  1.00  0.00     0.010 A 
HETATM   21  C   UNL     1      42.637 -11.261   8.379  1.00  0.00     0.054 C 
BRANCH  18  22
HETATM   22  C   UNL     1      45.651 -10.889   9.661  1.00  0.00     0.055 C 
HETATM   23  C   UNL     1      45.039 -11.010  11.049  1.00  0.00     0.011 C 
ENDBRANCH  18  22
ENDBRANCH   1  15
TORSDOF 3
ENDMDL
MODEL 10
REMARK VINA RESULT:      -6.8      2.674      3.577
REMARK  3 active torsions:
REMARK  status: ('A' for Active; 'I' for Inactive)
REMARK    1  A    between atoms: C_2  and  C_3 
REMARK    2  A    between atoms: C_7  and  N_8 
REMARK       I    between atoms: N_8  and  C_9 
REMARK    3  A    between atoms: C_9  and  C_10 
ROOT
HETATM    1  N   UNL     1      41.882 -15.189   1.259  1.00  0.00    -0.309 N 
HETATM    2  C   UNL     1      42.128 -16.456   1.758  1.00  0.00     0.234 C 
HETATM    3  O   UNL     1      41.328 -17.385   1.849  1.00  0.00    -0.272 OA
HETATM    4  H   UNL     1      42.633 -14.515   1.253  1.00  0.00     0.170 HD
ENDROOT
BRANCH   2   5
HETATM    5  C   UNL     1      43.554 -16.664   2.252  1.00  0.00     0.138 C 
HETATM    6  C   UNL     1      43.652 -17.361   3.562  1.00  0.00    -0.008 A 
HETATM    7  C   UNL     1      44.091 -18.660   3.356  1.00  0.00     0.076 A 
HETATM    8  C   UNL     1      43.333 -16.908   4.831  1.00  0.00     0.030 A 
HETATM    9  C   UNL     1      44.221 -19.560   4.393  1.00  0.00     0.039 A 
HETATM   10  O   UNL     1      44.317 -18.960   2.039  1.00  0.00    -0.349 OA
HETATM   11  C   UNL     1      43.912 -19.119   5.683  1.00  0.00     0.022 A 
HETATM   12  C   UNL     1      43.472 -17.802   5.895  1.00  0.00     0.011 A 
HETATM   13 BR   UNL     1      43.048 -17.235   7.649  1.00  0.00    -0.051 Br
HETATM   14  C   UNL     1      44.324 -17.662   1.382  1.00  0.00     0.194 C 
ENDBRANCH   2   5
BRANCH   1  15
HETATM   15  C   UNL     1      40.692 -14.759   0.709  1.00  0.00     0.158 A 
HETATM   16  N   UNL     1      40.440 -14.690  -0.596  1.00  0.00    -0.156 NA
HETATM   17  N   UNL     1      39.204 -14.196  -0.683  1.00  0.00    -0.280 N 
HETATM   18  C   UNL     1      38.628 -13.939   0.529  1.00  0.00     0.037 A 
HETATM   19  H   UNL     1      38.815 -14.048  -1.608  1.00  0.00     0.189 HD
HETATM   20  C   UNL     1      39.569 -14.316   1.474  1.00  0.00     0.010 A 
HETATM   21  C   UNL     1      39.438 -14.249   2.951  1.00  0.00     0.054 C 
BRANCH  18  22
HETATM   22  C   UNL     1      37.259 -13.365   0.640  1.00  0.00     0.055 C 
HETATM   23  C   UNL     1      37.298 -11.868   0.904  1.00  0.00     0.011 C 
ENDBRANCH  18  22
ENDBRANCH   1  15
TORSDOF 3
ENDMDL
