MODEL 1
REMARK VINA RESULT:      -8.6      0.000      0.000
REMARK  5 active torsions:
REMARK  status: ('A' for Active; 'I' for Inactive)
REMARK    1  A    between atoms: C_2  and  C_3 
REMARK    2  A    between atoms: N_4  and  C_6 
REMARK    3  A    between atoms: C_6  and  C_7 
REMARK    4  A    between atoms: N_14  and  C_16 
REMARK    5  A    between atoms: C_16  and  C_17 
ROOT
HETATM    1  C   UNL     1      40.849 -13.501   2.402  1.00  0.00    -0.032 A 
HETATM    2  C   UNL     1      41.988 -14.217   2.833  1.00  0.00     0.020 A 
HETATM    3  C   UNL     1      42.048 -14.802   4.117  1.00  0.00     0.002 A 
HETATM    4  C   UNL     1      40.951 -14.645   4.966  1.00  0.00     0.076 A 
HETATM    5  O   UNL     1      40.970 -15.136   6.240  1.00  0.00    -0.349 OA
HETATM    6  C   UNL     1      40.869 -16.566   6.262  1.00  0.00     0.203 C 
HETATM    7  C   UNL     1      42.255 -17.210   6.240  1.00  0.00     0.262 C 
HETATM    8  N   UNL     1      42.980 -17.037   4.909  1.00  0.00    -0.061 N 
HETATM    9  H   UNL     1      43.905 -17.455   5.072  1.00  0.00     0.280 HD
HETATM   10  C   UNL     1      43.253 -15.581   4.579  1.00  0.00     0.276 C 
HETATM   11  C   UNL     1      39.824 -13.938   4.564  1.00  0.00     0.038 A 
HETATM   12  C   UNL     1      39.762 -13.394   3.281  1.00  0.00     0.011 A 
ENDROOT
BRANCH   1  13
HETATM   13  C   UNL     1      40.777 -12.910   1.008  1.00  0.00     0.274 C 
BRANCH  13  14
HETATM   14  N   UNL     1      40.052 -13.702  -0.058  1.00  0.00    -0.053 N 
HETATM   15  C   UNL     1      40.944 -14.395  -1.116  1.00  0.00     0.279 C 
HETATM   16  C   UNL     1      40.149 -15.086  -2.258  1.00  0.00     0.248 C 
HETATM   17  N   UNL     1      38.865 -14.669  -2.489  1.00  0.00    -0.358 N 
HETATM   18  O   UNL     1      40.655 -15.926  -2.995  1.00  0.00    -0.271 OA
HETATM   19  C   UNL     1      38.076 -13.894  -1.557  1.00  0.00     0.150 C 
HETATM   20  H   UNL     1      38.392 -15.181  -3.234  1.00  0.00     0.162 HD
HETATM   21  C   UNL     1      38.931 -12.923  -0.740  1.00  0.00     0.256 C 
HETATM   22  H   UNL     1      39.574 -14.466   0.437  1.00  0.00     0.281 HD
BRANCH  15  23
HETATM   23  C   UNL     1      41.907 -15.403  -0.462  1.00  0.00     0.038 C 
HETATM   24  C   UNL     1      41.226 -16.557   0.266  1.00  0.00     0.007 C 
ENDBRANCH  15  23
ENDBRANCH  13  14
ENDBRANCH   1  13
BRANCH   8  25
HETATM   25  C   UNL     1      42.396 -17.799   3.740  1.00  0.00     0.274 C 
BRANCH  25  26
HETATM   26  C   UNL     1      43.134 -19.058   3.377  1.00  0.00    -0.029 A 
HETATM   27  C   UNL     1      44.039 -19.645   4.275  1.00  0.00     0.054 A 
HETATM   28  C   UNL     1      44.725 -20.806   3.918  1.00  0.00     0.155 A 
HETATM   29  F   UNL     1      45.582 -21.346   4.794  1.00  0.00    -0.203 F 
HETATM   30  C   UNL     1      44.524 -21.393   2.676  1.00  0.00     0.154 A 
HETATM   31  F   UNL     1      45.186 -22.505   2.336  1.00  0.00    -0.203 F 
HETATM   32  C   UNL     1      43.634 -20.824   1.773  1.00  0.00     0.046 A 
HETATM   33  C   UNL     1      42.940 -19.660   2.120  1.00  0.00     0.012 A 
ENDBRANCH  25  26
ENDBRANCH   8  25
TORSDOF 5
ENDMDL
MODEL 2
REMARK VINA RESULT:      -8.5      1.206      2.280
REMARK  5 active torsions:
REMARK  status: ('A' for Active; 'I' for Inactive)
REMARK    1  A    between atoms: C_2  and  C_3 
REMARK    2  A    between atoms: N_4  and  C_6 
REMARK    3  A    between atoms: C_6  and  C_7 
REMARK    4  A    between atoms: N_14  and  C_16 
REMARK    5  A    between atoms: C_16  and  C_17 
ROOT
HETATM    1  C   UNL     1      41.321 -13.755   1.687  1.00  0.00    -0.032 A 
HETATM    2  C   UNL     1      42.426 -14.320   2.362  1.00  0.00     0.020 A 
HETATM    3  C   UNL     1      42.270 -15.009   3.584  1.00  0.00     0.002 A 
HETATM    4  C   UNL     1      40.987 -15.108   4.127  1.00  0.00     0.076 A 
HETATM    5  O   UNL     1      40.777 -15.710   5.334  1.00  0.00    -0.349 OA
HETATM    6  C   UNL     1      40.929 -17.133   5.254  1.00  0.00     0.203 C 
HETATM    7  C   UNL     1      42.368 -17.546   5.560  1.00  0.00     0.262 C 
HETATM    8  N   UNL     1      43.357 -17.134   4.473  1.00  0.00    -0.061 N 
HETATM    9  H   UNL     1      44.273 -17.414   4.849  1.00  0.00     0.280 HD
HETATM   10  C   UNL     1      43.442 -15.628   4.303  1.00  0.00     0.276 C 
HETATM   11  C   UNL     1      39.887 -14.553   3.483  1.00  0.00     0.038 A 
HETATM   12  C   UNL     1      40.049 -13.905   2.258  1.00  0.00     0.011 A 
ENDROOT
BRANCH   1  13
HETATM   13  C   UNL     1      41.492 -13.051   0.356  1.00  0.00     0.274 C 
BRANCH  13  14
HETATM   14  N   UNL     1      40.875 -13.695  -0.867  1.00  0.00    -0.053 N 
HETATM   15  C   UNL     1      39.357 -13.469  -1.063  1.00  0.00     0.279 C 
HETATM   16  C   UNL     1      38.749 -14.254  -2.257  1.00  0.00     0.248 C 
HETATM   17  N   UNL     1      39.428 -15.352  -2.714  1.00  0.00    -0.358 N 
HETATM   18  O   UNL     1      37.661 -13.968  -2.746  1.00  0.00    -0.271 OA
HETATM   19  C   UNL     1      40.812 -15.643  -2.413  1.00  0.00     0.150 C 
HETATM   20  H   UNL     1      38.989 -15.806  -3.515  1.00  0.00     0.162 HD
HETATM   21  C   UNL     1      41.212 -15.176  -1.011  1.00  0.00     0.256 C 
HETATM   22  H   UNL     1      41.323 -13.247  -1.676  1.00  0.00     0.281 HD
BRANCH  15  23
HETATM   23  C   UNL     1      39.028 -11.970  -1.197  1.00  0.00     0.038 C 
HETATM   24  C   UNL     1      38.069 -11.429  -0.141  1.00  0.00     0.007 C 
ENDBRANCH  15  23
ENDBRANCH  13  14
ENDBRANCH   1  13
BRANCH   8  25
HETATM   25  C   UNL     1      43.225 -17.863   3.155  1.00  0.00     0.274 C 
BRANCH  25  26
HETATM   26  C   UNL     1      43.714 -19.285   3.171  1.00  0.00    -0.029 A 
HETATM   27  C   UNL     1      43.502 -20.130   2.070  1.00  0.00     0.054 A 
HETATM   28  C   UNL     1      43.952 -21.450   2.105  1.00  0.00     0.155 A 
HETATM   29  F   UNL     1      43.737 -22.234   1.042  1.00  0.00    -0.203 F 
HETATM   30  C   UNL     1      44.612 -21.943   3.222  1.00  0.00     0.154 A 
HETATM   31  F   UNL     1      45.040 -23.210   3.253  1.00  0.00    -0.203 F 
HETATM   32  C   UNL     1      44.829 -21.121   4.322  1.00  0.00     0.046 A 
HETATM   33  C   UNL     1      44.383 -19.797   4.299  1.00  0.00     0.012 A 
ENDBRANCH  25  26
ENDBRANCH   8  25
TORSDOF 5
ENDMDL
MODEL 3
REMARK VINA RESULT:      -8.5      1.542      2.021
REMARK  5 active torsions:
REMARK  status: ('A' for Active; 'I' for Inactive)
REMARK    1  A    between atoms: C_2  and  C_3 
REMARK    2  A    between atoms: N_4  and  C_6 
REMARK    3  A    between atoms: C_6  and  C_7 
REMARK    4  A    between atoms: N_14  and  C_16 
REMARK    5  A    between atoms: C_16  and  C_17 
ROOT
HETATM    1  C   UNL     1      41.551 -13.054   2.612  1.00  0.00    -0.032 A 
HETATM    2  C   UNL     1      42.567 -13.880   3.142  1.00  0.00     0.020 A 
HETATM    3  C   UNL     1      42.370 -14.618   4.329  1.00  0.00     0.002 A 
HETATM    4  C   UNL     1      41.142 -14.504   4.983  1.00  0.00     0.076 A 
HETATM    5  O   UNL     1      40.910 -15.146   6.165  1.00  0.00    -0.349 OA
HETATM    6  C   UNL     1      40.759 -16.560   5.983  1.00  0.00     0.203 C 
HETATM    7  C   UNL     1      42.103 -17.274   6.125  1.00  0.00     0.262 C 
HETATM    8  N   UNL     1      43.066 -16.982   4.978  1.00  0.00    -0.061 N 
HETATM    9  H   UNL     1      43.931 -17.468   5.248  1.00  0.00     0.280 HD
HETATM   10  C   UNL     1      43.443 -15.514   4.894  1.00  0.00     0.276 C 
HETATM   11  C   UNL     1      40.132 -13.691   4.482  1.00  0.00     0.038 A 
HETATM   12  C   UNL     1      40.325 -12.993   3.289  1.00  0.00     0.011 A 
ENDROOT
BRANCH   1  13
HETATM   13  C   UNL     1      41.757 -12.294   1.316  1.00  0.00     0.274 C 
BRANCH  13  14
HETATM   14  N   UNL     1      41.800 -13.091   0.030  1.00  0.00    -0.053 N 
HETATM   15  C   UNL     1      41.862 -12.268  -1.279  1.00  0.00     0.279 C 
HETATM   16  C   UNL     1      41.776 -13.127  -2.570  1.00  0.00     0.248 C 
HETATM   17  N   UNL     1      41.224 -14.377  -2.473  1.00  0.00    -0.358 N 
HETATM   18  O   UNL     1      42.112 -12.698  -3.669  1.00  0.00    -0.271 OA
HETATM   19  C   UNL     1      41.031 -15.092  -1.231  1.00  0.00     0.150 C 
HETATM   20  H   UNL     1      41.222 -14.898  -3.350  1.00  0.00     0.162 HD
HETATM   21  C   UNL     1      40.711 -14.155  -0.065  1.00  0.00     0.256 C 
HETATM   22  H   UNL     1      42.680 -13.622   0.059  1.00  0.00     0.281 HD
BRANCH  15  23
HETATM   23  C   UNL     1      43.119 -11.380  -1.323  1.00  0.00     0.038 C 
HETATM   24  C   UNL     1      42.853  -9.909  -1.625  1.00  0.00     0.007 C 
ENDBRANCH  15  23
ENDBRANCH  13  14
ENDBRANCH   1  13
BRANCH   8  25
HETATM   25  C   UNL     1      42.681 -17.562   3.636  1.00  0.00     0.274 C 
BRANCH  25  26
HETATM   26  C   UNL     1      43.293 -18.902   3.331  1.00  0.00    -0.029 A 
HETATM   27  C   UNL     1      44.146 -19.529   4.253  1.00  0.00     0.054 A 
HETATM   28  C   UNL     1      44.714 -20.767   3.950  1.00  0.00     0.155 A 
HETATM   29  F   UNL     1      45.523 -21.343   4.846  1.00  0.00    -0.203 F 
HETATM   30  C   UNL     1      44.445 -21.391   2.740  1.00  0.00     0.154 A 
HETATM   31  F   UNL     1      44.993 -22.577   2.451  1.00  0.00    -0.203 F 
HETATM   32  C   UNL     1      43.604 -20.784   1.814  1.00  0.00     0.046 A 
HETATM   33  C   UNL     1      43.029 -19.544   2.106  1.00  0.00     0.012 A 
ENDBRANCH  25  26
ENDBRANCH   8  25
TORSDOF 5
ENDMDL
MODEL 4
REMARK VINA RESULT:      -8.4      4.616      8.653
REMARK  5 active torsions:
REMARK  status: ('A' for Active; 'I' for Inactive)
REMARK    1  A    between atoms: C_2  and  C_3 
REMARK    2  A    between atoms: N_4  and  C_6 
REMARK    3  A    between atoms: C_6  and  C_7 
REMARK    4  A    between atoms: N_14  and  C_16 
REMARK    5  A    between atoms: C_16  and  C_17 
ROOT
HETATM    1  C   UNL     1      42.703 -17.456   2.646  1.00  0.00    -0.032 A 
HETATM    2  C   UNL     1      42.388 -17.133   1.308  1.00  0.00     0.020 A 
HETATM    3  C   UNL     1      41.194 -16.458   0.974  1.00  0.00     0.002 A 
HETATM    4  C   UNL     1      40.314 -16.124   2.005  1.00  0.00     0.076 A 
HETATM    5  O   UNL     1      39.116 -15.523   1.742  1.00  0.00    -0.349 OA
HETATM    6  C   UNL     1      39.281 -14.155   1.348  1.00  0.00     0.203 C 
HETATM    7  C   UNL     1      39.410 -14.037  -0.170  1.00  0.00     0.262 C 
HETATM    8  N   UNL     1      40.719 -14.607  -0.711  1.00  0.00    -0.061 N 
HETATM    9  H   UNL     1      40.627 -14.519  -1.731  1.00  0.00     0.280 HD
HETATM   10  C   UNL     1      40.858 -16.095  -0.450  1.00  0.00     0.276 C 
HETATM   11  C   UNL     1      40.601 -16.439   3.328  1.00  0.00     0.038 A 
HETATM   12  C   UNL     1      41.800 -17.076   3.650  1.00  0.00     0.011 A 
ENDROOT
BRANCH   1  13
HETATM   13  C   UNL     1      44.005 -18.146   3.000  1.00  0.00     0.274 C 
BRANCH  13  14
HETATM   14  N   UNL     1      43.976 -19.646   3.204  1.00  0.00    -0.053 N 
HETATM   15  C   UNL     1      44.780 -20.185   4.411  1.00  0.00     0.279 C 
HETATM   16  C   UNL     1      44.823 -21.735   4.502  1.00  0.00     0.248 C 
HETATM   17  N   UNL     1      44.579 -22.450   3.360  1.00  0.00    -0.358 N 
HETATM   18  O   UNL     1      45.137 -22.325   5.530  1.00  0.00    -0.271 OA
HETATM   19  C   UNL     1      43.956 -21.909   2.172  1.00  0.00     0.150 C 
HETATM   20  H   UNL     1      44.596 -23.461   3.493  1.00  0.00     0.162 HD
HETATM   21  C   UNL     1      44.316 -20.439   1.946  1.00  0.00     0.256 C 
HETATM   22  H   UNL     1      42.995 -19.882   3.403  1.00  0.00     0.281 HD
BRANCH  15  23
HETATM   23  C   UNL     1      44.260 -19.596   5.736  1.00  0.00     0.038 C 
HETATM   24  C   UNL     1      45.055 -18.404   6.261  1.00  0.00     0.007 C 
ENDBRANCH  15  23
ENDBRANCH  13  14
ENDBRANCH   1  13
BRANCH   8  25
HETATM   25  C   UNL     1      41.967 -13.833  -0.352  1.00  0.00     0.274 C 
BRANCH  25  26
HETATM   26  C   UNL     1      42.223 -12.620  -1.204  1.00  0.00    -0.029 A 
HETATM   27  C   UNL     1      42.219 -12.712  -2.605  1.00  0.00     0.054 A 
HETATM   28  C   UNL     1      42.470 -11.580  -3.380  1.00  0.00     0.155 A 
HETATM   29  F   UNL     1      42.460 -11.695  -4.714  1.00  0.00    -0.203 F 
HETATM   30  C   UNL     1      42.726 -10.354  -2.781  1.00  0.00     0.154 A 
HETATM   31  F   UNL     1      42.969  -9.271  -3.527  1.00  0.00    -0.203 F 
HETATM   32  C   UNL     1      42.736 -10.245  -1.395  1.00  0.00     0.046 A 
HETATM   33  C   UNL     1      42.486 -11.373  -0.607  1.00  0.00     0.012 A 
ENDBRANCH  25  26
ENDBRANCH   8  25
TORSDOF 5
ENDMDL
MODEL 5
REMARK VINA RESULT:      -8.3      3.795      7.625
REMARK  5 active torsions:
REMARK  status: ('A' for Active; 'I' for Inactive)
REMARK    1  A    between atoms: C_2  and  C_3 
REMARK    2  A    between atoms: N_4  and  C_6 
REMARK    3  A    between atoms: C_6  and  C_7 
REMARK    4  A    between atoms: N_14  and  C_16 
REMARK    5  A    between atoms: C_16  and  C_17 
ROOT
HETATM    1  C   UNL     1      43.496 -17.676   2.137  1.00  0.00    -0.032 A 
HETATM    2  C   UNL     1      43.499 -16.315   2.517  1.00  0.00     0.020 A 
HETATM    3  C   UNL     1      42.390 -15.478   2.267  1.00  0.00     0.002 A 
HETATM    4  C   UNL     1      41.282 -16.025   1.616  1.00  0.00     0.076 A 
HETATM    5  O   UNL     1      40.203 -15.254   1.293  1.00  0.00    -0.349 OA
HETATM    6  C   UNL     1      39.435 -14.901   2.450  1.00  0.00     0.203 C 
HETATM    7  C   UNL     1      39.914 -13.574   3.039  1.00  0.00     0.262 C 
HETATM    8  N   UNL     1      41.295 -13.663   3.681  1.00  0.00    -0.061 N 
HETATM    9  H   UNL     1      41.503 -12.696   3.962  1.00  0.00     0.280 HD
HETATM   10  C   UNL     1      42.379 -14.029   2.683  1.00  0.00     0.276 C 
HETATM   11  C   UNL     1      41.262 -17.359   1.227  1.00  0.00     0.038 A 
HETATM   12  C   UNL     1      42.349 -18.186   1.510  1.00  0.00     0.011 A 
ENDROOT
BRANCH   1  13
HETATM   13  C   UNL     1      44.675 -18.577   2.443  1.00  0.00     0.274 C 
BRANCH  13  14
HETATM   14  N   UNL     1      44.386 -19.936   3.045  1.00  0.00    -0.053 N 
HETATM   15  C   UNL     1      44.856 -20.148   4.504  1.00  0.00     0.279 C 
HETATM   16  C   UNL     1      44.651 -21.595   5.030  1.00  0.00     0.248 C 
HETATM   17  N   UNL     1      44.528 -22.601   4.108  1.00  0.00    -0.358 N 
HETATM   18  O   UNL     1      44.673 -21.869   6.225  1.00  0.00    -0.271 OA
HETATM   19  C   UNL     1      44.231 -22.396   2.708  1.00  0.00     0.150 C 
HETATM   20  H   UNL     1      44.371 -23.521   4.518  1.00  0.00     0.162 HD
HETATM   21  C   UNL     1      44.841 -21.099   2.169  1.00  0.00     0.256 C 
HETATM   22  H   UNL     1      43.362 -20.017   3.074  1.00  0.00     0.281 HD
BRANCH  15  23
HETATM   23  C   UNL     1      44.185 -19.143   5.459  1.00  0.00     0.038 C 
HETATM   24  C   UNL     1      45.152 -18.266   6.247  1.00  0.00     0.007 C 
ENDBRANCH  15  23
ENDBRANCH  13  14
ENDBRANCH   1  13
BRANCH   8  25
HETATM   25  C   UNL     1      41.376 -14.477   4.952  1.00  0.00     0.274 C 
BRANCH  25  26
HETATM   26  C   UNL     1      42.513 -14.108   5.865  1.00  0.00    -0.029 A 
HETATM   27  C   UNL     1      42.488 -12.911   6.598  1.00  0.00     0.054 A 
HETATM   28  C   UNL     1      43.556 -12.578   7.431  1.00  0.00     0.155 A 
HETATM   29  F   UNL     1      43.506 -11.431   8.119  1.00  0.00    -0.203 F 
HETATM   30  C   UNL     1      44.653 -13.420   7.545  1.00  0.00     0.154 A 
HETATM   31  F   UNL     1      45.677 -13.097   8.343  1.00  0.00    -0.203 F 
HETATM   32  C   UNL     1      44.697 -14.609   6.825  1.00  0.00     0.046 A 
HETATM   33  C   UNL     1      43.632 -14.953   5.987  1.00  0.00     0.012 A 
ENDBRANCH  25  26
ENDBRANCH   8  25
TORSDOF 5
ENDMDL
MODEL 6
REMARK VINA RESULT:      -8.1      3.914      7.475
REMARK  5 active torsions:
REMARK  status: ('A' for Active; 'I' for Inactive)
REMARK    1  A    between atoms: C_2  and  C_3 
REMARK    2  A    between atoms: N_4  and  C_6 
REMARK    3  A    between atoms: C_6  and  C_7 
REMARK    4  A    between atoms: N_14  and  C_16 
REMARK    5  A    between atoms: C_16  and  C_17 
ROOT
HETATM    1  C   UNL     1      42.105 -14.214   3.113  1.00  0.00    -0.032 A 
HETATM    2  C   UNL     1      40.980 -14.687   2.401  1.00  0.00     0.020 A 
HETATM    3  C   UNL     1      39.772 -13.958   2.363  1.00  0.00     0.002 A 
HETATM    4  C   UNL     1      39.706 -12.751   3.064  1.00  0.00     0.076 A 
HETATM    5  O   UNL     1      38.549 -12.028   3.115  1.00  0.00    -0.349 OA
HETATM    6  C   UNL     1      38.260 -11.395   1.862  1.00  0.00     0.203 C 
HETATM    7  C   UNL     1      37.387 -12.294   0.986  1.00  0.00     0.262 C 
HETATM    8  N   UNL     1      38.119 -13.530   0.472  1.00  0.00    -0.061 N 
HETATM    9  H   UNL     1      37.394 -14.058  -0.032  1.00  0.00     0.280 HD
HETATM   10  C   UNL     1      38.571 -14.447   1.594  1.00  0.00     0.276 C 
HETATM   11  C   UNL     1      40.799 -12.271   3.776  1.00  0.00     0.038 A 
HETATM   12  C   UNL     1      41.999 -12.984   3.778  1.00  0.00     0.011 A 
ENDROOT
BRANCH   1  13
HETATM   13  C   UNL     1      43.410 -14.984   3.116  1.00  0.00     0.274 C 
BRANCH  13  14
HETATM   14  N   UNL     1      43.341 -16.491   2.985  1.00  0.00    -0.053 N 
HETATM   15  C   UNL     1      43.758 -17.303   4.234  1.00  0.00     0.279 C 
HETATM   16  C   UNL     1      43.792 -18.839   4.007  1.00  0.00     0.248 C 
HETATM   17  N   UNL     1      43.906 -19.295   2.721  1.00  0.00    -0.358 N 
HETATM   18  O   UNL     1      43.795 -19.640   4.936  1.00  0.00    -0.271 OA
HETATM   19  C   UNL     1      43.656 -18.493   1.543  1.00  0.00     0.150 C 
HETATM   20  H   UNL     1      43.897 -20.311   2.640  1.00  0.00     0.162 HD
HETATM   21  C   UNL     1      44.048 -17.028   1.745  1.00  0.00     0.256 C 
HETATM   22  H   UNL     1      42.348 -16.713   2.835  1.00  0.00     0.281 HD
BRANCH  15  23
HETATM   23  C   UNL     1      42.862 -16.970   5.442  1.00  0.00     0.038 C 
HETATM   24  C   UNL     1      41.375 -17.236   5.228  1.00  0.00     0.007 C 
ENDBRANCH  15  23
ENDBRANCH  13  14
ENDBRANCH   1  13
BRANCH   8  25
HETATM   25  C   UNL     1      39.208 -13.272  -0.544  1.00  0.00     0.274 C 
BRANCH  25  26
HETATM   26  C   UNL     1      39.140 -14.138  -1.773  1.00  0.00    -0.029 A 
HETATM   27  C   UNL     1      37.949 -14.254  -2.506  1.00  0.00     0.054 A 
HETATM   28  C   UNL     1      37.900 -15.070  -3.636  1.00  0.00     0.155 A 
HETATM   29  F   UNL     1      36.751 -15.163  -4.317  1.00  0.00    -0.203 F 
HETATM   30  C   UNL     1      39.022 -15.775  -4.048  1.00  0.00     0.154 A 
HETATM   31  F   UNL     1      38.971 -16.559  -5.131  1.00  0.00    -0.203 F 
HETATM   32  C   UNL     1      40.210 -15.674  -3.333  1.00  0.00     0.046 A 
HETATM   33  C   UNL     1      40.271 -14.859  -2.199  1.00  0.00     0.012 A 
ENDBRANCH  25  26
ENDBRANCH   8  25
TORSDOF 5
ENDMDL
MODEL 7
REMARK VINA RESULT:      -8.0      3.278      5.271
REMARK  5 active torsions:
REMARK  status: ('A' for Active; 'I' for Inactive)
REMARK    1  A    between atoms: C_2  and  C_3 
REMARK    2  A    between atoms: N_4  and  C_6 
REMARK    3  A    between atoms: C_6  and  C_7 
REMARK    4  A    between atoms: N_14  and  C_16 
REMARK    5  A    between atoms: C_16  and  C_17 
ROOT
HETATM    1  C   UNL     1      42.541 -16.550   1.391  1.00  0.00    -0.032 A 
HETATM    2  C   UNL     1      41.924 -16.806   2.635  1.00  0.00     0.020 A 
HETATM    3  C   UNL     1      42.361 -17.855   3.473  1.00  0.00     0.002 A 
HETATM    4  C   UNL     1      43.420 -18.653   3.034  1.00  0.00     0.076 A 
HETATM    5  O   UNL     1      43.851 -19.719   3.769  1.00  0.00    -0.349 OA
HETATM    6  C   UNL     1      44.560 -19.305   4.944  1.00  0.00     0.203 C 
HETATM    7  C   UNL     1      43.611 -19.163   6.133  1.00  0.00     0.262 C 
HETATM    8  N   UNL     1      42.649 -17.986   6.000  1.00  0.00    -0.061 N 
HETATM    9  H   UNL     1      42.042 -18.065   6.827  1.00  0.00     0.280 HD
HETATM   10  C   UNL     1      41.719 -18.125   4.809  1.00  0.00     0.276 C 
HETATM   11  C   UNL     1      44.036 -18.423   1.809  1.00  0.00     0.038 A 
HETATM   12  C   UNL     1      43.618 -17.362   1.006  1.00  0.00     0.011 A 
ENDROOT
BRANCH   1  13
HETATM   13  C   UNL     1      42.091 -15.397   0.515  1.00  0.00     0.274 C 
BRANCH  13  14
HETATM   14  N   UNL     1      40.603 -15.193   0.327  1.00  0.00    -0.053 N 
HETATM   15  C   UNL     1      40.171 -14.511  -0.993  1.00  0.00     0.279 C 
HETATM   16  C   UNL     1      38.650 -14.210  -1.081  1.00  0.00     0.248 C 
HETATM   17  N   UNL     1      37.942 -14.137   0.090  1.00  0.00    -0.358 N 
HETATM   18  O   UNL     1      38.089 -13.966  -2.144  1.00  0.00    -0.271 OA
HETATM   19  C   UNL     1      38.408 -14.647   1.361  1.00  0.00     0.150 C 
HETATM   20  H   UNL     1      36.946 -13.963  -0.040  1.00  0.00     0.162 HD
HETATM   21  C   UNL     1      39.925 -14.521   1.516  1.00  0.00     0.256 C 
HETATM   22  H   UNL     1      40.193 -16.136   0.293  1.00  0.00     0.281 HD
BRANCH  15  23
HETATM   23  C   UNL     1      40.615 -15.333  -2.218  1.00  0.00     0.038 C 
HETATM   24  C   UNL     1      41.424 -14.554  -3.251  1.00  0.00     0.007 C 
ENDBRANCH  15  23
ENDBRANCH  13  14
ENDBRANCH   1  13
BRANCH   8  25
HETATM   25  C   UNL     1      43.277 -16.614   6.093  1.00  0.00     0.274 C 
BRANCH  25  26
HETATM   26  C   UNL     1      42.351 -15.475   5.764  1.00  0.00    -0.029 A 
HETATM   27  C   UNL     1      42.821 -14.338   5.087  1.00  0.00     0.054 A 
HETATM   28  C   UNL     1      41.952 -13.285   4.800  1.00  0.00     0.155 A 
HETATM   29  F   UNL     1      42.426 -12.214   4.154  1.00  0.00    -0.203 F 
HETATM   30  C   UNL     1      40.618 -13.347   5.180  1.00  0.00     0.154 A 
HETATM   31  F   UNL     1      39.788 -12.334   4.905  1.00  0.00    -0.203 F 
HETATM   32  C   UNL     1      40.135 -14.463   5.853  1.00  0.00     0.046 A 
HETATM   33  C   UNL     1      40.997 -15.524   6.145  1.00  0.00     0.012 A 
ENDBRANCH  25  26
ENDBRANCH   8  25
TORSDOF 5
ENDMDL
MODEL 8
REMARK VINA RESULT:      -8.0      2.180      2.953
REMARK  5 active torsions:
REMARK  status: ('A' for Active; 'I' for Inactive)
REMARK    1  A    between atoms: C_2  and  C_3 
REMARK    2  A    between atoms: N_4  and  C_6 
REMARK    3  A    between atoms: C_6  and  C_7 
REMARK    4  A    between atoms: N_14  and  C_16 
REMARK    5  A    between atoms: C_16  and  C_17 
ROOT
HETATM    1  C   UNL     1      40.818 -14.813  -0.097  1.00  0.00    -0.032 A 
HETATM    2  C   UNL     1      42.034 -15.227   0.491  1.00  0.00     0.020 A 
HETATM    3  C   UNL     1      42.152 -15.414   1.885  1.00  0.00     0.002 A 
HETATM    4  C   UNL     1      41.033 -15.164   2.682  1.00  0.00     0.076 A 
HETATM    5  O   UNL     1      41.098 -15.269   4.042  1.00  0.00    -0.349 OA
HETATM    6  C   UNL     1      41.182 -16.635   4.467  1.00  0.00     0.203 C 
HETATM    7  C   UNL     1      42.639 -17.078   4.595  1.00  0.00     0.262 C 
HETATM    8  N   UNL     1      43.353 -17.197   3.252  1.00  0.00    -0.061 N 
HETATM    9  H   UNL     1      44.322 -17.430   3.504  1.00  0.00     0.280 HD
HETATM   10  C   UNL     1      43.441 -15.870   2.520  1.00  0.00     0.276 C 
HETATM   11  C   UNL     1      39.829 -14.748   2.124  1.00  0.00     0.038 A 
HETATM   12  C   UNL     1      39.715 -14.601   0.742  1.00  0.00     0.011 A 
ENDROOT
BRANCH   1  13
HETATM   13  C   UNL     1      40.689 -14.652  -1.599  1.00  0.00     0.274 C 
BRANCH  13  14
HETATM   14  N   UNL     1      40.961 -13.284  -2.188  1.00  0.00    -0.053 N 
HETATM   15  C   UNL     1      40.092 -12.882  -3.404  1.00  0.00     0.279 C 
HETATM   16  C   UNL     1      40.496 -11.528  -4.049  1.00  0.00     0.248 C 
HETATM   17  N   UNL     1      41.764 -11.063  -3.823  1.00  0.00    -0.358 N 
HETATM   18  O   UNL     1      39.751 -10.911  -4.803  1.00  0.00    -0.271 OA
HETATM   19  C   UNL     1      42.637 -11.542  -2.773  1.00  0.00     0.150 C 
HETATM   20  H   UNL     1      41.956 -10.158  -4.253  1.00  0.00     0.162 HD
HETATM   21  C   UNL     1      42.436 -13.031  -2.485  1.00  0.00     0.256 C 
HETATM   22  H   UNL     1      40.725 -12.609  -1.450  1.00  0.00     0.281 HD
BRANCH  15  23
HETATM   23  C   UNL     1      38.596 -12.864  -3.040  1.00  0.00     0.038 C 
HETATM   24  C   UNL     1      38.240 -11.992  -1.840  1.00  0.00     0.007 C 
ENDBRANCH  15  23
ENDBRANCH  13  14
ENDBRANCH   1  13
BRANCH   8  25
HETATM   25  C   UNL     1      42.887 -18.325   2.359  1.00  0.00     0.274 C 
BRANCH  25  26
HETATM   26  C   UNL     1      43.492 -19.666   2.673  1.00  0.00    -0.029 A 
HETATM   27  C   UNL     1      44.194 -19.876   3.871  1.00  0.00     0.054 A 
HETATM   28  C   UNL     1      44.758 -21.123   4.141  1.00  0.00     0.155 A 
HETATM   29  F   UNL     1      45.422 -21.296   5.290  1.00  0.00    -0.203 F 
HETATM   30  C   UNL     1      44.635 -22.167   3.235  1.00  0.00     0.154 A 
HETATM   31  F   UNL     1      45.179 -23.361   3.496  1.00  0.00    -0.203 F 
HETATM   32  C   UNL     1      43.945 -21.976   2.043  1.00  0.00     0.046 A 
HETATM   33  C   UNL     1      43.375 -20.732   1.760  1.00  0.00     0.012 A 
ENDBRANCH  25  26
ENDBRANCH   8  25
TORSDOF 5
ENDMDL
MODEL 9
REMARK VINA RESULT:      -8.0      3.547      7.041
REMARK  5 active torsions:
REMARK  status: ('A' for Active; 'I' for Inactive)
REMARK    1  A    between atoms: C_2  and  C_3 
REMARK    2  A    between atoms: N_4  and  C_6 
REMARK    3  A    between atoms: C_6  and  C_7 
REMARK    4  A    between atoms: N_14  and  C_16 
REMARK    5  A    between atoms: C_16  and  C_17 
ROOT
HETATM    1  C   UNL     1      41.147 -16.254   4.519  1.00  0.00    -0.032 A 
HETATM    2  C   UNL     1      40.474 -15.517   3.519  1.00  0.00     0.020 A 
HETATM    3  C   UNL     1      40.319 -14.117   3.615  1.00  0.00     0.002 A 
HETATM    4  C   UNL     1      40.837 -13.470   4.739  1.00  0.00     0.076 A 
HETATM    5  O   UNL     1      40.669 -12.127   4.919  1.00  0.00    -0.349 OA
HETATM    6  C   UNL     1      41.481 -11.362   4.019  1.00  0.00     0.203 C 
HETATM    7  C   UNL     1      40.720 -11.050   2.731  1.00  0.00     0.262 C 
HETATM    8  N   UNL     1      40.480 -12.278   1.859  1.00  0.00    -0.061 N 
HETATM    9  H   UNL     1      39.909 -11.925   1.080  1.00  0.00     0.280 HD
HETATM   10  C   UNL     1      39.616 -13.320   2.545  1.00  0.00     0.276 C 
HETATM   11  C   UNL     1      41.496 -14.178   5.738  1.00  0.00     0.038 A 
HETATM   12  C   UNL     1      41.674 -15.556   5.615  1.00  0.00     0.011 A 
ENDROOT
BRANCH   1  13
HETATM   13  C   UNL     1      41.343 -17.751   4.389  1.00  0.00     0.274 C 
BRANCH  13  14
HETATM   14  N   UNL     1      42.759 -18.285   4.451  1.00  0.00    -0.053 N 
HETATM   15  C   UNL     1      43.158 -19.285   3.339  1.00  0.00     0.279 C 
HETATM   16  C   UNL     1      44.573 -19.899   3.520  1.00  0.00     0.248 C 
HETATM   17  N   UNL     1      45.123 -19.884   4.774  1.00  0.00    -0.358 N 
HETATM   18  O   UNL     1      45.170 -20.455   2.604  1.00  0.00    -0.271 OA
HETATM   19  C   UNL     1      44.658 -19.052   5.862  1.00  0.00     0.150 C 
HETATM   20  H   UNL     1      46.063 -20.278   4.819  1.00  0.00     0.162 HD
HETATM   21  C   UNL     1      43.143 -18.835   5.820  1.00  0.00     0.256 C 
HETATM   22  H   UNL     1      43.371 -17.470   4.316  1.00  0.00     0.281 HD
BRANCH  15  23
HETATM   23  C   UNL     1      43.037 -18.647   1.943  1.00  0.00     0.038 C 
HETATM   24  C   UNL     1      43.947 -17.446   1.708  1.00  0.00     0.007 C 
ENDBRANCH  15  23
ENDBRANCH  13  14
ENDBRANCH   1  13
BRANCH   8  25
HETATM   25  C   UNL     1      41.711 -12.875   1.214  1.00  0.00     0.274 C 
BRANCH  25  26
HETATM   26  C   UNL     1      41.437 -13.739   0.014  1.00  0.00    -0.029 A 
HETATM   27  C   UNL     1      41.062 -13.168  -1.212  1.00  0.00     0.054 A 
HETATM   28  C   UNL     1      40.801 -13.984  -2.313  1.00  0.00     0.155 A 
HETATM   29  F   UNL     1      40.445 -13.413  -3.470  1.00  0.00    -0.203 F 
HETATM   30  C   UNL     1      40.906 -15.364  -2.211  1.00  0.00     0.154 A 
HETATM   31  F   UNL     1      40.652 -16.144  -3.268  1.00  0.00    -0.203 F 
HETATM   32  C   UNL     1      41.274 -15.947  -1.004  1.00  0.00     0.046 A 
HETATM   33  C   UNL     1      41.539 -15.140   0.106  1.00  0.00     0.012 A 
ENDBRANCH  25  26
ENDBRANCH   8  25
TORSDOF 5
ENDMDL
MODEL 10
REMARK VINA RESULT:      -8.0      1.730      3.109
REMARK  5 active torsions:
REMARK  status: ('A' for Active; 'I' for Inactive)
REMARK    1  A    between atoms: C_2  and  C_3 
REMARK    2  A    between atoms: N_4  and  C_6 
REMARK    3  A    between atoms: C_6  and  C_7 
REMARK    4  A    between atoms: N_14  and  C_16 
REMARK    5  A    between atoms: C_16  and  C_17 
ROOT
HETATM    1  C   UNL     1      40.618 -13.046  -0.281  1.00  0.00    -0.032 A 
HETATM    2  C   UNL     1      41.719 -13.444   0.508  1.00  0.00     0.020 A 
HETATM    3  C   UNL     1      41.606 -13.600   1.907  1.00  0.00     0.002 A 
HETATM    4  C   UNL     1      40.371 -13.336   2.503  1.00  0.00     0.076 A 
HETATM    5  O   UNL     1      40.211 -13.411   3.856  1.00  0.00    -0.349 OA
HETATM    6  C   UNL     1      40.222 -14.768   4.320  1.00  0.00     0.203 C 
HETATM    7  C   UNL     1      41.638 -15.203   4.695  1.00  0.00     0.262 C 
HETATM    8  N   UNL     1      42.564 -15.349   3.491  1.00  0.00    -0.061 N 
HETATM    9  H   UNL     1      43.478 -15.574   3.905  1.00  0.00     0.280 HD
HETATM   10  C   UNL     1      42.772 -14.039   2.755  1.00  0.00     0.276 C 
HETATM   11  C   UNL     1      39.276 -12.936   1.745  1.00  0.00     0.038 A 
HETATM   12  C   UNL     1      39.391 -12.819   0.360  1.00  0.00     0.011 A 
ENDROOT
BRANCH   1  13
HETATM   13  C   UNL     1      40.738 -12.918  -1.787  1.00  0.00     0.274 C 
BRANCH  13  14
HETATM   14  N   UNL     1      40.095 -13.991  -2.639  1.00  0.00    -0.053 N 
HETATM   15  C   UNL     1      38.553 -13.928  -2.764  1.00  0.00     0.279 C 
HETATM   16  C   UNL     1      37.933 -15.122  -3.541  1.00  0.00     0.248 C 
HETATM   17  N   UNL     1      38.666 -16.274  -3.637  1.00  0.00    -0.358 N 
HETATM   18  O   UNL     1      36.796 -15.087  -3.999  1.00  0.00    -0.271 OA
HETATM   19  C   UNL     1      40.086 -16.366  -3.379  1.00  0.00     0.150 C 
HETATM   20  H   UNL     1      38.213 -17.009  -4.181  1.00  0.00     0.162 HD
HETATM   21  C   UNL     1      40.539 -15.405  -2.278  1.00  0.00     0.256 C 
HETATM   22  H   UNL     1      40.451 -13.843  -3.592  1.00  0.00     0.281 HD
BRANCH  15  23
HETATM   23  C   UNL     1      38.097 -12.598  -3.393  1.00  0.00     0.038 C 
HETATM   24  C   UNL     1      37.094 -11.808  -2.558  1.00  0.00     0.007 C 
ENDBRANCH  15  23
ENDBRANCH  13  14
ENDBRANCH   1  13
BRANCH   8  25
HETATM   25  C   UNL     1      42.251 -16.498   2.559  1.00  0.00     0.274 C 
BRANCH  25  26
HETATM   26  C   UNL     1      42.994 -17.771   2.857  1.00  0.00    -0.029 A 
HETATM   27  C   UNL     1      42.973 -18.845   1.953  1.00  0.00     0.054 A 
HETATM   28  C   UNL     1      43.658 -20.023   2.250  1.00  0.00     0.155 A 
HETATM   29  F   UNL     1      43.622 -21.031   1.371  1.00  0.00    -0.203 F 
HETATM   30  C   UNL     1      44.366 -20.149   3.438  1.00  0.00     0.154 A 
HETATM   31  F   UNL     1      45.020 -21.282   3.721  1.00  0.00    -0.203 F 
HETATM   32  C   UNL     1      44.396 -19.097   4.346  1.00  0.00     0.046 A 
HETATM   33  C   UNL     1      43.714 -17.912   4.059  1.00  0.00     0.012 A 
ENDBRANCH  25  26
ENDBRANCH   8  25
TORSDOF 5
ENDMDL
