MODEL 1
REMARK VINA RESULT:      -9.4      0.000      0.000
REMARK  5 active torsions:
REMARK  status: ('A' for Active; 'I' for Inactive)
REMARK    1  A    between atoms: N_4  and  C_5 
REMARK    2  A    between atoms: C_14  and  C_15 
REMARK       I    between atoms: C_15  and  N_16 
REMARK    3  A    between atoms: N_16  and  N_17 
REMARK    4  A    between atoms: N_17  and  C_18 
REMARK    5  A    between atoms: N_19  and  C_20 
ROOT
HETATM    1  C   UNL     1      43.855 -15.517   7.560  1.00  0.00     0.277 C 
HETATM    2  N   UNL     1      44.176 -14.173   7.534  1.00  0.00    -0.263 N 
HETATM    3  O   UNL     1      43.726 -16.125   8.623  1.00  0.00    -0.265 OA
HETATM    4  H   UNL     1      44.326 -13.672   6.660  1.00  0.00     0.190 HD
ENDROOT
BRANCH   1   5
HETATM    5  C   UNL     1      43.681 -16.144   6.256  1.00  0.00     0.077 A 
HETATM    6  S   UNL     1      44.014 -17.843   6.012  1.00  0.00    -0.064 SA
HETATM    7  C   UNL     1      43.643 -17.714   4.394  1.00  0.00     0.113 A 
HETATM    8  N   UNL     1      43.602 -18.481   3.255  1.00  0.00    -0.226 N 
HETATM    9  C   UNL     1      43.276 -16.476   4.052  1.00  0.00     0.027 A 
HETATM   10  N   UNL     1      43.173 -17.698   2.194  1.00  0.00    -0.171 NA
HETATM   11  C   UNL     1      42.980 -16.465   2.702  1.00  0.00     0.064 A 
HETATM   12  C   UNL     1      42.517 -15.353   1.842  1.00  0.00     0.073 C 
HETATM   13  C   UNL     1      43.279 -15.527   5.069  1.00  0.00     0.041 A 
BRANCH   8  14
HETATM   14  C   UNL     1      43.929 -19.853   3.041  1.00  0.00     0.059 A 
HETATM   15  C   UNL     1      43.593 -20.448   1.814  1.00  0.00     0.031 A 
HETATM   16  C   UNL     1      43.909 -21.786   1.560  1.00  0.00     0.002 A 
HETATM   17  C   UNL     1      44.563 -22.543   2.527  1.00  0.00     0.000 A 
HETATM   18  C   UNL     1      44.897 -21.965   3.749  1.00  0.00     0.002 A 
HETATM   19  C   UNL     1      44.583 -20.626   4.008  1.00  0.00     0.031 A 
ENDBRANCH   8  14
ENDBRANCH   1   5
BRANCH   2  20
HETATM   20  N   UNL     1      44.367 -13.465   8.729  1.00  0.00    -0.273 N 
HETATM   21  H   UNL     1      43.591 -13.541   9.386  1.00  0.00     0.189 HD
BRANCH  20  22
HETATM   22  C   UNL     1      45.152 -12.344   8.751  1.00  0.00     0.191 C 
HETATM   23  N   UNL     1      44.710 -11.254   9.436  1.00  0.00    -0.331 N 
HETATM   24  H   UNL     1      45.234 -10.411   9.210  1.00  0.00     0.168 HD
HETATM   25  S   UNL     1      46.616 -12.207   7.938  1.00  0.00    -0.039 SA
BRANCH  23  26
HETATM   26  C   UNL     1      43.684 -11.060  10.389  1.00  0.00     0.056 A 
HETATM   27  C   UNL     1      42.412 -10.670   9.921  1.00  0.00     0.060 A 
HETATM   28 CL   UNL     1      42.112 -10.454   8.229  1.00  0.00    -0.082 Cl
HETATM   29  C   UNL     1      41.352 -10.458  10.804  1.00  0.00     0.026 A 
HETATM   30  C   UNL     1      41.549 -10.615  12.173  1.00  0.00     0.002 A 
HETATM   31  C   UNL     1      42.809 -10.963  12.654  1.00  0.00     0.002 A 
HETATM   32  C   UNL     1      43.874 -11.175  11.770  1.00  0.00     0.031 A 
ENDBRANCH  23  26
ENDBRANCH  20  22
ENDBRANCH   2  20
TORSDOF 5
ENDMDL
MODEL 2
REMARK VINA RESULT:      -9.3      4.936      8.963
REMARK  5 active torsions:
REMARK  status: ('A' for Active; 'I' for Inactive)
REMARK    1  A    between atoms: N_4  and  C_5 
REMARK    2  A    between atoms: C_14  and  C_15 
REMARK       I    between atoms: C_15  and  N_16 
REMARK    3  A    between atoms: N_16  and  N_17 
REMARK    4  A    between atoms: N_17  and  C_18 
REMARK    5  A    between atoms: N_19  and  C_20 
ROOT
HETATM    1  C   UNL     1      39.632 -14.702   2.687  1.00  0.00     0.277 C 
HETATM    2  N   UNL     1      39.182 -15.076   1.434  1.00  0.00    -0.263 N 
HETATM    3  O   UNL     1      39.110 -13.773   3.304  1.00  0.00    -0.265 OA
HETATM    4  H   UNL     1      39.634 -15.814   0.898  1.00  0.00     0.190 HD
ENDROOT
BRANCH   1   5
HETATM    5  C   UNL     1      40.748 -15.480   3.208  1.00  0.00     0.077 A 
HETATM    6  S   UNL     1      41.199 -17.012   2.495  1.00  0.00    -0.064 SA
HETATM    7  C   UNL     1      42.406 -17.217   3.624  1.00  0.00     0.113 A 
HETATM    8  N   UNL     1      43.370 -18.124   3.987  1.00  0.00    -0.226 N 
HETATM    9  C   UNL     1      42.481 -16.194   4.480  1.00  0.00     0.027 A 
HETATM   10  N   UNL     1      44.071 -17.633   5.078  1.00  0.00    -0.171 NA
HETATM   11  C   UNL     1      43.508 -16.444   5.371  1.00  0.00     0.064 A 
HETATM   12  C   UNL     1      44.006 -15.624   6.497  1.00  0.00     0.073 C 
HETATM   13  C   UNL     1      41.559 -15.167   4.301  1.00  0.00     0.041 A 
BRANCH   8  14
HETATM   14  C   UNL     1      43.702 -19.401   3.444  1.00  0.00     0.059 A 
HETATM   15  C   UNL     1      44.481 -20.284   4.211  1.00  0.00     0.031 A 
HETATM   16  C   UNL     1      44.816 -21.550   3.721  1.00  0.00     0.002 A 
HETATM   17  C   UNL     1      44.380 -21.946   2.460  1.00  0.00     0.000 A 
HETATM   18  C   UNL     1      43.612 -21.077   1.689  1.00  0.00     0.002 A 
HETATM   19  C   UNL     1      43.273 -19.810   2.176  1.00  0.00     0.031 A 
ENDBRANCH   8  14
ENDBRANCH   1   5
BRANCH   2  20
HETATM   20  N   UNL     1      38.112 -14.398   0.833  1.00  0.00    -0.273 N 
HETATM   21  H   UNL     1      37.366 -15.008   0.502  1.00  0.00     0.189 HD
BRANCH  20  22
HETATM   22  C   UNL     1      38.318 -13.197   0.209  1.00  0.00     0.191 C 
HETATM   23  N   UNL     1      38.801 -13.200  -1.064  1.00  0.00    -0.331 N 
HETATM   24  H   UNL     1      39.136 -12.285  -1.358  1.00  0.00     0.168 HD
HETATM   25  S   UNL     1      38.059 -11.704   0.935  1.00  0.00    -0.039 SA
BRANCH  23  26
HETATM   26  C   UNL     1      38.929 -14.207  -2.049  1.00  0.00     0.056 A 
HETATM   27  C   UNL     1      40.181 -14.840  -2.188  1.00  0.00     0.060 A 
HETATM   28 CL   UNL     1      41.516 -14.412  -1.171  1.00  0.00    -0.082 Cl
HETATM   29  C   UNL     1      40.381 -15.841  -3.141  1.00  0.00     0.026 A 
HETATM   30  C   UNL     1      39.337 -16.214  -3.984  1.00  0.00     0.002 A 
HETATM   31  C   UNL     1      38.106 -15.571  -3.883  1.00  0.00     0.002 A 
HETATM   32  C   UNL     1      37.904 -14.566  -2.929  1.00  0.00     0.031 A 
ENDBRANCH  23  26
ENDBRANCH  20  22
ENDBRANCH   2  20
TORSDOF 5
ENDMDL
MODEL 3
REMARK VINA RESULT:      -9.1      5.006      9.031
REMARK  5 active torsions:
REMARK  status: ('A' for Active; 'I' for Inactive)
REMARK    1  A    between atoms: N_4  and  C_5 
REMARK    2  A    between atoms: C_14  and  C_15 
REMARK       I    between atoms: C_15  and  N_16 
REMARK    3  A    between atoms: N_16  and  N_17 
REMARK    4  A    between atoms: N_17  and  C_18 
REMARK    5  A    between atoms: N_19  and  C_20 
ROOT
HETATM    1  C   UNL     1      42.221 -13.676   1.726  1.00  0.00     0.277 C 
HETATM    2  N   UNL     1      41.571 -14.051   0.565  1.00  0.00    -0.263 N 
HETATM    3  O   UNL     1      42.389 -12.490   2.013  1.00  0.00    -0.265 OA
HETATM    4  H   UNL     1      41.466 -15.027   0.298  1.00  0.00     0.190 HD
ENDROOT
BRANCH   1   5
HETATM    5  C   UNL     1      42.680 -14.773   2.567  1.00  0.00     0.077 A 
HETATM    6  S   UNL     1      42.981 -16.363   1.903  1.00  0.00    -0.064 SA
HETATM    7  C   UNL     1      43.377 -16.950   3.410  1.00  0.00     0.113 A 
HETATM    8  N   UNL     1      43.752 -18.121   4.023  1.00  0.00    -0.226 N 
HETATM    9  C   UNL     1      43.304 -16.012   4.358  1.00  0.00     0.027 A 
HETATM   10  N   UNL     1      43.939 -17.887   5.377  1.00  0.00    -0.171 NA
HETATM   11  C   UNL     1      43.656 -16.583   5.567  1.00  0.00     0.064 A 
HETATM   12  C   UNL     1      43.747 -15.973   6.912  1.00  0.00     0.073 C 
HETATM   13  C   UNL     1      42.908 -14.744   3.944  1.00  0.00     0.041 A 
BRANCH   8  14
HETATM   14  C   UNL     1      43.941 -19.432   3.494  1.00  0.00     0.059 A 
HETATM   15  C   UNL     1      44.607 -20.391   4.277  1.00  0.00     0.031 A 
HETATM   16  C   UNL     1      44.800 -21.691   3.801  1.00  0.00     0.002 A 
HETATM   17  C   UNL     1      44.332 -22.047   2.539  1.00  0.00     0.000 A 
HETATM   18  C   UNL     1      43.676 -21.105   1.753  1.00  0.00     0.002 A 
HETATM   19  C   UNL     1      43.479 -19.802   2.225  1.00  0.00     0.031 A 
ENDBRANCH   8  14
ENDBRANCH   1   5
BRANCH   2  20
HETATM   20  N   UNL     1      41.085 -13.079  -0.321  1.00  0.00    -0.273 N 
HETATM   21  H   UNL     1      40.068 -13.025  -0.362  1.00  0.00     0.189 HD
BRANCH  20  22
HETATM   22  C   UNL     1      41.816 -12.718  -1.421  1.00  0.00     0.191 C 
HETATM   23  N   UNL     1      41.632 -13.407  -2.580  1.00  0.00    -0.331 N 
HETATM   24  H   UNL     1      42.367 -13.229  -3.262  1.00  0.00     0.168 HD
HETATM   25  S   UNL     1      42.975 -11.501  -1.419  1.00  0.00    -0.039 SA
BRANCH  23  26
HETATM   26  C   UNL     1      40.637 -14.309  -3.023  1.00  0.00     0.056 A 
HETATM   27  C   UNL     1      39.394 -13.777  -3.421  1.00  0.00     0.060 A 
HETATM   28 CL   UNL     1      39.101 -12.070  -3.388  1.00  0.00    -0.082 Cl
HETATM   29  C   UNL     1      38.363 -14.608  -3.868  1.00  0.00     0.026 A 
HETATM   30  C   UNL     1      38.553 -15.986  -3.906  1.00  0.00     0.002 A 
HETATM   31  C   UNL     1      39.763 -16.529  -3.480  1.00  0.00     0.002 A 
HETATM   32  C   UNL     1      40.796 -15.698  -3.031  1.00  0.00     0.031 A 
ENDBRANCH  23  26
ENDBRANCH  20  22
ENDBRANCH   2  20
TORSDOF 5
ENDMDL
MODEL 4
REMARK VINA RESULT:      -9.1      5.503      8.906
REMARK  5 active torsions:
REMARK  status: ('A' for Active; 'I' for Inactive)
REMARK    1  A    between atoms: N_4  and  C_5 
REMARK    2  A    between atoms: C_14  and  C_15 
REMARK       I    between atoms: C_15  and  N_16 
REMARK    3  A    between atoms: N_16  and  N_17 
REMARK    4  A    between atoms: N_17  and  C_18 
REMARK    5  A    between atoms: N_19  and  C_20 
ROOT
HETATM    1  C   UNL     1      41.236 -16.448   4.939  1.00  0.00     0.277 C 
HETATM    2  N   UNL     1      41.930 -17.565   4.512  1.00  0.00    -0.263 N 
HETATM    3  O   UNL     1      41.106 -16.194   6.137  1.00  0.00    -0.265 OA
HETATM    4  H   UNL     1      42.006 -17.807   3.526  1.00  0.00     0.190 HD
ENDROOT
BRANCH   1   5
HETATM    5  C   UNL     1      40.684 -15.612   3.881  1.00  0.00     0.077 A 
HETATM    6  S   UNL     1      40.787 -16.087   2.201  1.00  0.00    -0.064 SA
HETATM    7  C   UNL     1      40.037 -14.678   1.726  1.00  0.00     0.113 A 
HETATM    8  N   UNL     1      39.642 -14.025   0.585  1.00  0.00    -0.226 N 
HETATM    9  C   UNL     1      39.712 -13.900   2.762  1.00  0.00     0.027 A 
HETATM   10  N   UNL     1      39.036 -12.827   0.932  1.00  0.00    -0.171 NA
HETATM   11  C   UNL     1      39.091 -12.764   2.277  1.00  0.00     0.064 A 
HETATM   12  C   UNL     1      38.533 -11.604   3.007  1.00  0.00     0.073 C 
HETATM   13  C   UNL     1      40.058 -14.373   4.024  1.00  0.00     0.041 A 
BRANCH   8  14
HETATM   14  C   UNL     1      39.777 -14.382  -0.790  1.00  0.00     0.059 A 
HETATM   15  C   UNL     1      38.772 -13.997  -1.694  1.00  0.00     0.031 A 
HETATM   16  C   UNL     1      38.875 -14.315  -3.051  1.00  0.00     0.002 A 
HETATM   17  C   UNL     1      39.978 -15.022  -3.520  1.00  0.00     0.000 A 
HETATM   18  C   UNL     1      40.977 -15.413  -2.632  1.00  0.00     0.002 A 
HETATM   19  C   UNL     1      40.880 -15.097  -1.273  1.00  0.00     0.031 A 
ENDBRANCH   8  14
ENDBRANCH   1   5
BRANCH   2  20
HETATM   20  N   UNL     1      42.506 -18.442   5.442  1.00  0.00    -0.273 N 
HETATM   21  H   UNL     1      41.880 -18.716   6.198  1.00  0.00     0.189 HD
BRANCH  20  22
HETATM   22  C   UNL     1      43.855 -18.421   5.669  1.00  0.00     0.191 C 
HETATM   23  N   UNL     1      44.644 -19.295   4.986  1.00  0.00    -0.331 N 
HETATM   24  H   UNL     1      45.580 -19.368   5.378  1.00  0.00     0.168 HD
HETATM   25  S   UNL     1      44.605 -17.412   6.785  1.00  0.00    -0.039 SA
BRANCH  23  26
HETATM   26  C   UNL     1      44.427 -20.111   3.852  1.00  0.00     0.056 A 
HETATM   27  C   UNL     1      44.631 -21.500   3.989  1.00  0.00     0.060 A 
HETATM   28 CL   UNL     1      45.113 -22.186   5.504  1.00  0.00    -0.082 Cl
HETATM   29  C   UNL     1      44.438 -22.367   2.911  1.00  0.00     0.026 A 
HETATM   30  C   UNL     1      44.055 -21.859   1.673  1.00  0.00     0.002 A 
HETATM   31  C   UNL     1      43.886 -20.486   1.513  1.00  0.00     0.002 A 
HETATM   32  C   UNL     1      44.081 -19.615   2.592  1.00  0.00     0.031 A 
ENDBRANCH  23  26
ENDBRANCH  20  22
ENDBRANCH   2  20
TORSDOF 5
ENDMDL
MODEL 5
REMARK VINA RESULT:      -9.1      1.802      2.217
REMARK  5 active torsions:
REMARK  status: ('A' for Active; 'I' for Inactive)
REMARK    1  A    between atoms: N_4  and  C_5 
REMARK    2  A    between atoms: C_14  and  C_15 
REMARK       I    between atoms: C_15  and  N_16 
REMARK    3  A    between atoms: N_16  and  N_17 
REMARK    4  A    between atoms: N_17  and  C_18 
REMARK    5  A    between atoms: N_19  and  C_20 
ROOT
HETATM    1  C   UNL     1      43.701 -14.376   6.182  1.00  0.00     0.277 C 
HETATM    2  N   UNL     1      42.735 -13.397   6.327  1.00  0.00    -0.263 N 
HETATM    3  O   UNL     1      44.658 -14.450   6.953  1.00  0.00    -0.265 OA
HETATM    4  H   UNL     1      41.964 -13.301   5.669  1.00  0.00     0.190 HD
ENDROOT
BRANCH   1   5
HETATM    5  C   UNL     1      43.498 -15.295   5.070  1.00  0.00     0.077 A 
HETATM    6  S   UNL     1      43.900 -16.991   5.209  1.00  0.00    -0.064 SA
HETATM    7  C   UNL     1      43.451 -17.258   3.628  1.00  0.00     0.113 A 
HETATM    8  N   UNL     1      43.395 -18.270   2.702  1.00  0.00    -0.226 N 
HETATM    9  C   UNL     1      43.011 -16.148   3.029  1.00  0.00     0.027 A 
HETATM   10  N   UNL     1      42.883 -17.773   1.513  1.00  0.00    -0.171 NA
HETATM   11  C   UNL     1      42.655 -16.463   1.732  1.00  0.00     0.064 A 
HETATM   12  C   UNL     1      42.102 -15.599   0.664  1.00  0.00     0.073 C 
HETATM   13  C   UNL     1      43.015 -14.987   3.797  1.00  0.00     0.041 A 
BRANCH   8  14
HETATM   14  C   UNL     1      43.777 -19.642   2.794  1.00  0.00     0.059 A 
HETATM   15  C   UNL     1      44.347 -20.109   3.990  1.00  0.00     0.031 A 
HETATM   16  C   UNL     1      44.722 -21.449   4.125  1.00  0.00     0.002 A 
HETATM   17  C   UNL     1      44.533 -22.335   3.069  1.00  0.00     0.000 A 
HETATM   18  C   UNL     1      43.974 -21.882   1.877  1.00  0.00     0.002 A 
HETATM   19  C   UNL     1      43.596 -20.542   1.737  1.00  0.00     0.031 A 
ENDBRANCH   8  14
ENDBRANCH   1   5
BRANCH   2  20
HETATM   20  N   UNL     1      42.826 -12.457   7.363  1.00  0.00    -0.273 N 
HETATM   21  H   UNL     1      43.156 -12.843   8.247  1.00  0.00     0.189 HD
BRANCH  20  22
HETATM   22  C   UNL     1      42.004 -11.363   7.378  1.00  0.00     0.191 C 
HETATM   23  N   UNL     1      41.788 -10.728   8.562  1.00  0.00    -0.331 N 
HETATM   24  H   UNL     1      41.000 -10.084   8.523  1.00  0.00     0.168 HD
HETATM   25  S   UNL     1      41.195 -10.777   6.026  1.00  0.00    -0.039 SA
BRANCH  23  26
HETATM   26  C   UNL     1      42.432 -10.780   9.820  1.00  0.00     0.056 A 
HETATM   27  C   UNL     1      41.630 -10.967  10.965  1.00  0.00     0.060 A 
HETATM   28 CL   UNL     1      39.913 -11.148  10.832  1.00  0.00    -0.082 Cl
HETATM   29  C   UNL     1      42.197 -11.026  12.240  1.00  0.00     0.026 A 
HETATM   30  C   UNL     1      43.573 -10.881  12.394  1.00  0.00     0.002 A 
HETATM   31  C   UNL     1      44.372 -10.658  11.276  1.00  0.00     0.002 A 
HETATM   32  C   UNL     1      43.806 -10.596   9.997  1.00  0.00     0.031 A 
ENDBRANCH  23  26
ENDBRANCH  20  22
ENDBRANCH   2  20
TORSDOF 5
ENDMDL
MODEL 6
REMARK VINA RESULT:      -9.0      5.692      9.665
REMARK  5 active torsions:
REMARK  status: ('A' for Active; 'I' for Inactive)
REMARK    1  A    between atoms: N_4  and  C_5 
REMARK    2  A    between atoms: C_14  and  C_15 
REMARK       I    between atoms: C_15  and  N_16 
REMARK    3  A    between atoms: N_16  and  N_17 
REMARK    4  A    between atoms: N_17  and  C_18 
REMARK    5  A    between atoms: N_19  and  C_20 
ROOT
HETATM    1  C   UNL     1      39.648 -13.679   0.181  1.00  0.00     0.277 C 
HETATM    2  N   UNL     1      38.729 -14.344  -0.610  1.00  0.00    -0.263 N 
HETATM    3  O   UNL     1      39.945 -12.503  -0.033  1.00  0.00    -0.265 OA
HETATM    4  H   UNL     1      38.509 -15.327  -0.469  1.00  0.00     0.190 HD
ENDROOT
BRANCH   1   5
HETATM    5  C   UNL     1      40.221 -14.463   1.267  1.00  0.00     0.077 A 
HETATM    6  S   UNL     1      41.245 -15.844   0.948  1.00  0.00    -0.064 SA
HETATM    7  C   UNL     1      41.395 -16.148   2.578  1.00  0.00     0.113 A 
HETATM    8  N   UNL     1      41.983 -17.044   3.436  1.00  0.00    -0.226 N 
HETATM    9  C   UNL     1      40.730 -15.261   3.325  1.00  0.00     0.027 A 
HETATM   10  N   UNL     1      41.691 -16.683   4.743  1.00  0.00    -0.171 NA
HETATM   11  C   UNL     1      40.916 -15.584   4.656  1.00  0.00     0.064 A 
HETATM   12  C   UNL     1      40.407 -14.914   5.873  1.00  0.00     0.073 C 
HETATM   13  C   UNL     1      40.033 -14.272   2.637  1.00  0.00     0.041 A 
BRANCH   8  14
HETATM   14  C   UNL     1      42.770 -18.205   3.178  1.00  0.00     0.059 A 
HETATM   15  C   UNL     1      43.671 -18.648   4.161  1.00  0.00     0.031 A 
HETATM   16  C   UNL     1      44.450 -19.790   3.952  1.00  0.00     0.002 A 
HETATM   17  C   UNL     1      44.340 -20.500   2.760  1.00  0.00     0.000 A 
HETATM   18  C   UNL     1      43.455 -20.067   1.777  1.00  0.00     0.002 A 
HETATM   19  C   UNL     1      42.672 -18.926   1.981  1.00  0.00     0.031 A 
ENDBRANCH   8  14
ENDBRANCH   1   5
BRANCH   2  20
HETATM   20  N   UNL     1      38.112 -13.688  -1.685  1.00  0.00    -0.273 N 
HETATM   21  H   UNL     1      37.261 -13.187  -1.433  1.00  0.00     0.189 HD
BRANCH  20  22
HETATM   22  C   UNL     1      38.251 -14.167  -2.959  1.00  0.00     0.191 C 
HETATM   23  N   UNL     1      39.238 -13.653  -3.744  1.00  0.00    -0.331 N 
HETATM   24  H   UNL     1      39.122 -13.893  -4.726  1.00  0.00     0.168 HD
HETATM   25  S   UNL     1      37.242 -15.323  -3.644  1.00  0.00    -0.039 SA
BRANCH  23  26
HETATM   26  C   UNL     1      40.378 -12.863  -3.471  1.00  0.00     0.056 A 
HETATM   27  C   UNL     1      41.560 -13.522  -3.075  1.00  0.00     0.060 A 
HETATM   28 CL   UNL     1      41.618 -15.248  -2.946  1.00  0.00    -0.082 Cl
HETATM   29  C   UNL     1      42.724 -12.806  -2.788  1.00  0.00     0.026 A 
HETATM   30  C   UNL     1      42.721 -11.417  -2.874  1.00  0.00     0.002 A 
HETATM   31  C   UNL     1      41.551 -10.749  -3.227  1.00  0.00     0.002 A 
HETATM   32  C   UNL     1      40.383 -11.465  -3.514  1.00  0.00     0.031 A 
ENDBRANCH  23  26
ENDBRANCH  20  22
ENDBRANCH   2  20
TORSDOF 5
ENDMDL
MODEL 7
REMARK VINA RESULT:      -8.9      5.671      9.430
REMARK  5 active torsions:
REMARK  status: ('A' for Active; 'I' for Inactive)
REMARK    1  A    between atoms: N_4  and  C_5 
REMARK    2  A    between atoms: C_14  and  C_15 
REMARK       I    between atoms: C_15  and  N_16 
REMARK    3  A    between atoms: N_16  and  N_17 
REMARK    4  A    between atoms: N_17  and  C_18 
REMARK    5  A    between atoms: N_19  and  C_20 
ROOT
HETATM    1  C   UNL     1      40.373 -14.262   0.148  1.00  0.00     0.277 C 
HETATM    2  N   UNL     1      39.612 -14.928  -0.794  1.00  0.00    -0.263 N 
HETATM    3  O   UNL     1      40.597 -13.055   0.054  1.00  0.00    -0.265 OA
HETATM    4  H   UNL     1      39.457 -15.933  -0.748  1.00  0.00     0.190 HD
ENDROOT
BRANCH   1   5
HETATM    5  C   UNL     1      40.876 -15.085   1.241  1.00  0.00     0.077 A 
HETATM    6  S   UNL     1      41.831 -16.517   0.934  1.00  0.00    -0.064 SA
HETATM    7  C   UNL     1      41.923 -16.840   2.565  1.00  0.00     0.113 A 
HETATM    8  N   UNL     1      42.440 -17.774   3.429  1.00  0.00    -0.226 N 
HETATM    9  C   UNL     1      41.290 -15.924   3.303  1.00  0.00     0.027 A 
HETATM   10  N   UNL     1      42.137 -17.407   4.732  1.00  0.00    -0.171 NA
HETATM   11  C   UNL     1      41.426 -16.266   4.635  1.00  0.00     0.064 A 
HETATM   12  C   UNL     1      40.924 -15.579   5.846  1.00  0.00     0.073 C 
HETATM   13  C   UNL     1      40.666 -14.894   2.607  1.00  0.00     0.041 A 
BRANCH   8  14
HETATM   14  C   UNL     1      43.169 -18.975   3.180  1.00  0.00     0.059 A 
HETATM   15  C   UNL     1      44.103 -19.414   4.134  1.00  0.00     0.031 A 
HETATM   16  C   UNL     1      44.827 -20.593   3.934  1.00  0.00     0.002 A 
HETATM   17  C   UNL     1      44.628 -21.344   2.779  1.00  0.00     0.000 A 
HETATM   18  C   UNL     1      43.710 -20.916   1.824  1.00  0.00     0.002 A 
HETATM   19  C   UNL     1      42.982 -19.737   2.021  1.00  0.00     0.031 A 
ENDBRANCH   8  14
ENDBRANCH   1   5
BRANCH   2  20
HETATM   20  N   UNL     1      39.075 -14.238  -1.890  1.00  0.00    -0.273 N 
HETATM   21  H   UNL     1      38.125 -13.899  -1.743  1.00  0.00     0.189 HD
BRANCH  20  22
HETATM   22  C   UNL     1      39.490 -14.529  -3.161  1.00  0.00     0.191 C 
HETATM   23  N   UNL     1      40.196 -13.589  -3.846  1.00  0.00    -0.331 N 
HETATM   24  H   UNL     1      40.260 -13.794  -4.841  1.00  0.00     0.168 HD
HETATM   25  S   UNL     1      39.135 -15.964  -3.959  1.00  0.00    -0.039 SA
BRANCH  23  26
HETATM   26  C   UNL     1      40.854 -12.399  -3.458  1.00  0.00     0.056 A 
HETATM   27  C   UNL     1      40.163 -11.180  -3.613  1.00  0.00     0.060 A 
HETATM   28 CL   UNL     1      38.549 -11.143  -4.242  1.00  0.00    -0.082 Cl
HETATM   29  C   UNL     1      40.751  -9.965  -3.253  1.00  0.00     0.026 A 
HETATM   30  C   UNL     1      42.048  -9.947  -2.748  1.00  0.00     0.002 A 
HETATM   31  C   UNL     1      42.757 -11.139  -2.624  1.00  0.00     0.002 A 
HETATM   32  C   UNL     1      42.170 -12.358  -2.986  1.00  0.00     0.031 A 
ENDBRANCH  23  26
ENDBRANCH  20  22
ENDBRANCH   2  20
TORSDOF 5
ENDMDL
MODEL 8
REMARK VINA RESULT:      -8.9      5.396      8.624
REMARK  5 active torsions:
REMARK  status: ('A' for Active; 'I' for Inactive)
REMARK    1  A    between atoms: N_4  and  C_5 
REMARK    2  A    between atoms: C_14  and  C_15 
REMARK       I    between atoms: C_15  and  N_16 
REMARK    3  A    between atoms: N_16  and  N_17 
REMARK    4  A    between atoms: N_17  and  C_18 
REMARK    5  A    between atoms: N_19  and  C_20 
ROOT
HETATM    1  C   UNL     1      41.691 -14.628  -0.105  1.00  0.00     0.277 C 
HETATM    2  N   UNL     1      41.141 -15.365  -1.137  1.00  0.00    -0.263 N 
HETATM    3  O   UNL     1      41.728 -13.398  -0.145  1.00  0.00    -0.265 OA
HETATM    4  H   UNL     1      41.144 -16.383  -1.132  1.00  0.00     0.190 HD
ENDROOT
BRANCH   1   5
HETATM    5  C   UNL     1      42.210 -15.407   1.013  1.00  0.00     0.077 A 
HETATM    6  S   UNL     1      42.685 -17.077   0.812  1.00  0.00    -0.064 SA
HETATM    7  C   UNL     1      43.063 -17.195   2.430  1.00  0.00     0.113 A 
HETATM    8  N   UNL     1      43.516 -18.113   3.345  1.00  0.00    -0.226 N 
HETATM    9  C   UNL     1      42.861 -16.048   3.085  1.00  0.00     0.027 A 
HETATM   10  N   UNL     1      43.618 -17.506   4.588  1.00  0.00    -0.171 NA
HETATM   11  C   UNL     1      43.208 -16.235   4.410  1.00  0.00     0.064 A 
HETATM   12  C   UNL     1      43.180 -15.280   5.540  1.00  0.00     0.073 C 
HETATM   13  C   UNL     1      42.370 -14.985   2.334  1.00  0.00     0.041 A 
BRANCH   8  14
HETATM   14  C   UNL     1      43.849 -19.492   3.197  1.00  0.00     0.059 A 
HETATM   15  C   UNL     1      43.469 -20.160   2.020  1.00  0.00     0.031 A 
HETATM   16  C   UNL     1      43.789 -21.508   1.831  1.00  0.00     0.002 A 
HETATM   17  C   UNL     1      44.488 -22.203   2.813  1.00  0.00     0.000 A 
HETATM   18  C   UNL     1      44.864 -21.553   3.985  1.00  0.00     0.002 A 
HETATM   19  C   UNL     1      44.547 -20.204   4.180  1.00  0.00     0.031 A 
ENDBRANCH   8  14
ENDBRANCH   1   5
BRANCH   2  20
HETATM   20  N   UNL     1      40.610 -14.722  -2.263  1.00  0.00    -0.273 N 
HETATM   21  H   UNL     1      40.918 -13.758  -2.376  1.00  0.00     0.189 HD
BRANCH  20  22
HETATM   22  C   UNL     1      39.390 -15.094  -2.761  1.00  0.00     0.191 C 
HETATM   23  N   UNL     1      38.268 -14.676  -2.114  1.00  0.00    -0.331 N 
HETATM   24  H   UNL     1      37.434 -15.180  -2.409  1.00  0.00     0.168 HD
HETATM   25  S   UNL     1      39.186 -16.087  -4.102  1.00  0.00    -0.039 SA
BRANCH  23  26
HETATM   26  C   UNL     1      38.030 -13.692  -1.127  1.00  0.00     0.056 A 
HETATM   27  C   UNL     1      37.800 -12.369  -1.555  1.00  0.00     0.060 A 
HETATM   28 CL   UNL     1      37.790 -11.964  -3.239  1.00  0.00    -0.082 Cl
HETATM   29  C   UNL     1      37.560 -11.345  -0.636  1.00  0.00     0.026 A 
HETATM   30  C   UNL     1      37.563 -11.624   0.728  1.00  0.00     0.002 A 
HETATM   31  C   UNL     1      37.826 -12.919   1.167  1.00  0.00     0.002 A 
HETATM   32  C   UNL     1      38.069 -13.946   0.247  1.00  0.00     0.031 A 
ENDBRANCH  23  26
ENDBRANCH  20  22
ENDBRANCH   2  20
TORSDOF 5
ENDMDL
MODEL 9
REMARK VINA RESULT:      -8.8      2.692      3.185
REMARK  5 active torsions:
REMARK  status: ('A' for Active; 'I' for Inactive)
REMARK    1  A    between atoms: N_4  and  C_5 
REMARK    2  A    between atoms: C_14  and  C_15 
REMARK       I    between atoms: C_15  and  N_16 
REMARK    3  A    between atoms: N_16  and  N_17 
REMARK    4  A    between atoms: N_17  and  C_18 
REMARK    5  A    between atoms: N_19  and  C_20 
ROOT
HETATM    1  C   UNL     1      40.180 -13.278   5.697  1.00  0.00     0.277 C 
HETATM    2  N   UNL     1      41.206 -12.712   6.433  1.00  0.00    -0.263 N 
HETATM    3  O   UNL     1      39.002 -12.995   5.918  1.00  0.00    -0.265 OA
HETATM    4  H   UNL     1      42.179 -12.972   6.287  1.00  0.00     0.190 HD
ENDROOT
BRANCH   1   5
HETATM    5  C   UNL     1      40.597 -14.213   4.660  1.00  0.00     0.077 A 
HETATM    6  S   UNL     1      41.509 -15.653   5.049  1.00  0.00    -0.064 SA
HETATM    7  C   UNL     1      41.597 -16.068   3.439  1.00  0.00     0.113 A 
HETATM    8  N   UNL     1      42.131 -17.037   2.625  1.00  0.00    -0.226 N 
HETATM    9  C   UNL     1      40.969 -15.191   2.652  1.00  0.00     0.027 A 
HETATM   10  N   UNL     1      41.799 -16.760   1.307  1.00  0.00    -0.171 NA
HETATM   11  C   UNL     1      41.085 -15.617   1.342  1.00  0.00     0.064 A 
HETATM   12  C   UNL     1      40.559 -15.012   0.098  1.00  0.00     0.073 C 
HETATM   13  C   UNL     1      40.378 -14.103   3.286  1.00  0.00     0.041 A 
BRANCH   8  14
HETATM   14  C   UNL     1      42.925 -18.181   2.933  1.00  0.00     0.059 A 
HETATM   15  C   UNL     1      43.060 -19.195   1.969  1.00  0.00     0.031 A 
HETATM   16  C   UNL     1      43.842 -20.324   2.227  1.00  0.00     0.002 A 
HETATM   17  C   UNL     1      44.494 -20.456   3.449  1.00  0.00     0.000 A 
HETATM   18  C   UNL     1      44.364 -19.461   4.414  1.00  0.00     0.002 A 
HETATM   19  C   UNL     1      43.583 -18.328   4.160  1.00  0.00     0.031 A 
ENDBRANCH   8  14
ENDBRANCH   1   5
BRANCH   2  20
HETATM   20  N   UNL     1      40.923 -11.797   7.457  1.00  0.00    -0.273 N 
HETATM   21  H   UNL     1      40.056 -11.986   7.956  1.00  0.00     0.189 HD
BRANCH  20  22
HETATM   22  C   UNL     1      41.381 -10.509   7.378  1.00  0.00     0.191 C 
HETATM   23  N   UNL     1      41.959  -9.956   8.479  1.00  0.00    -0.331 N 
HETATM   24  H   UNL     1      42.055  -8.945   8.405  1.00  0.00     0.168 HD
HETATM   25  S   UNL     1      41.227  -9.540   6.014  1.00  0.00    -0.039 SA
BRANCH  23  26
HETATM   26  C   UNL     1      42.449 -10.497   9.690  1.00  0.00     0.056 A 
HETATM   27  C   UNL     1      41.542 -10.655  10.758  1.00  0.00     0.060 A 
HETATM   28 CL   UNL     1      39.874 -10.220  10.585  1.00  0.00    -0.082 Cl
HETATM   29  C   UNL     1      41.956 -11.180  11.984  1.00  0.00     0.026 A 
HETATM   30  C   UNL     1      43.288 -11.540  12.170  1.00  0.00     0.002 A 
HETATM   31  C   UNL     1      44.203 -11.354  11.136  1.00  0.00     0.002 A 
HETATM   32  C   UNL     1      43.790 -10.826   9.907  1.00  0.00     0.031 A 
ENDBRANCH  23  26
ENDBRANCH  20  22
ENDBRANCH   2  20
TORSDOF 5
ENDMDL
MODEL 10
REMARK VINA RESULT:      -8.6      5.053      7.315
REMARK  5 active torsions:
REMARK  status: ('A' for Active; 'I' for Inactive)
REMARK    1  A    between atoms: N_4  and  C_5 
REMARK    2  A    between atoms: C_14  and  C_15 
REMARK       I    between atoms: C_15  and  N_16 
REMARK    3  A    between atoms: N_16  and  N_17 
REMARK    4  A    between atoms: N_17  and  C_18 
REMARK    5  A    between atoms: N_19  and  C_20 
ROOT
HETATM    1  C   UNL     1      39.676 -15.236   1.323  1.00  0.00     0.277 C 
HETATM    2  N   UNL     1      39.990 -14.935   0.011  1.00  0.00    -0.263 N 
HETATM    3  O   UNL     1      38.569 -14.970   1.794  1.00  0.00    -0.265 OA
HETATM    4  H   UNL     1      40.916 -15.112  -0.375  1.00  0.00     0.190 HD
ENDROOT
BRANCH   1   5
HETATM    5  C   UNL     1      40.734 -15.883   2.087  1.00  0.00     0.077 A 
HETATM    6  S   UNL     1      41.310 -17.480   1.670  1.00  0.00    -0.064 SA
HETATM    7  C   UNL     1      42.367 -17.469   2.957  1.00  0.00     0.113 A 
HETATM    8  N   UNL     1      43.299 -18.272   3.566  1.00  0.00    -0.226 N 
HETATM    9  C   UNL     1      42.307 -16.331   3.654  1.00  0.00     0.027 A 
HETATM   10  N   UNL     1      43.843 -17.599   4.650  1.00  0.00    -0.171 NA
HETATM   11  C   UNL     1      43.218 -16.406   4.691  1.00  0.00     0.064 A 
HETATM   12  C   UNL     1      43.548 -15.411   5.736  1.00  0.00     0.073 C 
HETATM   13  C   UNL     1      41.391 -15.381   3.212  1.00  0.00     0.041 A 
BRANCH   8  14
HETATM   14  C   UNL     1      43.728 -19.599   3.263  1.00  0.00     0.059 A 
HETATM   15  C   UNL     1      44.423 -20.328   4.243  1.00  0.00     0.031 A 
HETATM   16  C   UNL     1      44.849 -21.635   3.991  1.00  0.00     0.002 A 
HETATM   17  C   UNL     1      44.587 -22.228   2.759  1.00  0.00     0.000 A 
HETATM   18  C   UNL     1      43.904 -21.513   1.779  1.00  0.00     0.002 A 
HETATM   19  C   UNL     1      43.475 -20.204   2.027  1.00  0.00     0.031 A 
ENDBRANCH   8  14
ENDBRANCH   1   5
BRANCH   2  20
HETATM   20  N   UNL     1      39.048 -14.312  -0.820  1.00  0.00    -0.273 N 
HETATM   21  H   UNL     1      38.378 -14.953  -1.242  1.00  0.00     0.189 HD
BRANCH  20  22
HETATM   22  C   UNL     1      39.363 -13.151  -1.473  1.00  0.00     0.191 C 
HETATM   23  N   UNL     1      39.349 -11.986  -0.770  1.00  0.00    -0.331 N 
HETATM   24  H   UNL     1      39.366 -11.165  -1.372  1.00  0.00     0.168 HD
HETATM   25  S   UNL     1      39.717 -13.062  -3.113  1.00  0.00    -0.039 SA
BRANCH  23  26
HETATM   26  C   UNL     1      39.319 -11.689   0.612  1.00  0.00     0.056 A 
HETATM   27  C   UNL     1      40.546 -11.647   1.306  1.00  0.00     0.060 A 
HETATM   28 CL   UNL     1      42.045 -11.932   0.487  1.00  0.00    -0.082 Cl
HETATM   29  C   UNL     1      40.592 -11.363   2.673  1.00  0.00     0.026 A 
HETATM   30  C   UNL     1      39.411 -11.132   3.373  1.00  0.00     0.002 A 
HETATM   31  C   UNL     1      38.190 -11.207   2.708  1.00  0.00     0.002 A 
HETATM   32  C   UNL     1      38.141 -11.494   1.339  1.00  0.00     0.031 A 
ENDBRANCH  23  26
ENDBRANCH  20  22
ENDBRANCH   2  20
TORSDOF 5
ENDMDL
