MODEL 1
REMARK VINA RESULT:      -9.2      0.000      0.000
REMARK  6 active torsions:
REMARK  status: ('A' for Active; 'I' for Inactive)
REMARK    1  A    between atoms: C_4  and  N_5 
REMARK    2  A    between atoms: C_6  and  S_7 
REMARK    3  A    between atoms: S_7  and  C_8 
REMARK    4  A    between atoms: C_8  and  C_9 
REMARK       I    between atoms: C_9  and  N_10 
REMARK    5  A    between atoms: N_10  and  C_11 
REMARK    6  A    between atoms: C_24  and  C_25 
ROOT
HETATM    1  N   UNL     1      42.791 -16.179   4.612  1.00  0.00    -0.271 N 
HETATM    2  C   UNL     1      42.630 -14.957   5.252  1.00  0.00     0.197 A 
HETATM    3  N   UNL     1      43.293 -14.943   6.384  1.00  0.00    -0.122 NA
HETATM    4  N   UNL     1      43.909 -16.149   6.527  1.00  0.00    -0.128 NA
HETATM    5  C   UNL     1      43.591 -16.913   5.495  1.00  0.00     0.169 A 
ENDROOT
BRANCH   2   6
HETATM    6  S   UNL     1      41.839 -13.555   4.599  1.00  0.00    -0.080 SA
BRANCH   6   7
HETATM    7  C   UNL     1      42.881 -13.250   3.139  1.00  0.00     0.185 C 
BRANCH   7   8
HETATM    8  C   UNL     1      42.029 -12.852   1.945  1.00  0.00     0.231 C 
HETATM    9  N   UNL     1      42.072 -13.781   0.914  1.00  0.00    -0.326 N 
HETATM   10  H   UNL     1      42.762 -14.516   1.010  1.00  0.00     0.169 HD
HETATM   11  O   UNL     1      41.353 -11.827   1.966  1.00  0.00    -0.272 OA
BRANCH   9  12
HETATM   12  C   UNL     1      41.316 -13.779  -0.278  1.00  0.00     0.037 A 
HETATM   13  C   UNL     1      39.977 -14.184  -0.345  1.00  0.00     0.061 A 
HETATM   14  C   UNL     1      39.373 -14.152  -1.582  1.00  0.00     0.065 A 
HETATM   15  C   UNL     1      40.041 -13.736  -2.730  1.00  0.00     0.063 A 
HETATM   16  N   UNL     1      38.077 -14.501  -1.945  1.00  0.00    -0.306 N 
HETATM   17  N   UNL     1      39.156 -13.827  -3.799  1.00  0.00    -0.307 N 
HETATM   18  C   UNL     1      41.350 -13.330  -2.704  1.00  0.00     0.034 A 
HETATM   19  C   UNL     1      37.925 -14.305  -3.324  1.00  0.00     0.325 A 
HETATM   20  H   UNL     1      39.333 -13.602  -4.764  1.00  0.00     0.170 HD
HETATM   21  O   UNL     1      36.924 -14.511  -3.986  1.00  0.00    -0.247 OA
HETATM   22  C   UNL     1      41.990 -13.358  -1.456  1.00  0.00     0.032 A 
HETATM   23  H   UNL     1      37.347 -14.843  -1.340  1.00  0.00     0.170 HD
ENDBRANCH   9  12
ENDBRANCH   7   8
ENDBRANCH   6   7
ENDBRANCH   2   6
BRANCH   1  24
HETATM   24  C   UNL     1      42.298 -16.597   3.343  1.00  0.00     0.043 A 
HETATM   25  C   UNL     1      43.188 -16.794   2.276  1.00  0.00     0.030 A 
HETATM   26  C   UNL     1      42.713 -17.227   1.036  1.00  0.00     0.002 A 
HETATM   27  C   UNL     1      41.352 -17.464   0.852  1.00  0.00     0.000 A 
HETATM   28  C   UNL     1      40.463 -17.269   1.908  1.00  0.00     0.002 A 
HETATM   29  C   UNL     1      40.931 -16.836   3.151  1.00  0.00     0.030 A 
ENDBRANCH   1  24
BRANCH   5  30
HETATM   30  C   UNL     1      43.972 -18.324   5.398  1.00  0.00     0.012 A 
HETATM   31  C   UNL     1      44.646 -18.833   4.277  1.00  0.00     0.017 A 
HETATM   32  C   UNL     1      44.981 -20.189   4.205  1.00  0.00     0.025 A 
HETATM   33  C   UNL     1      44.630 -21.046   5.245  1.00  0.00     0.034 A 
HETATM   34 CL   UNL     1      45.042 -22.713   5.156  1.00  0.00    -0.084 Cl
HETATM   35  C   UNL     1      43.940 -20.562   6.355  1.00  0.00     0.025 A 
HETATM   36  C   UNL     1      43.608 -19.207   6.427  1.00  0.00     0.017 A 
ENDBRANCH   5  30
TORSDOF 6
ENDMDL
MODEL 2
REMARK VINA RESULT:      -9.2      4.702      7.894
REMARK  6 active torsions:
REMARK  status: ('A' for Active; 'I' for Inactive)
REMARK    1  A    between atoms: C_4  and  N_5 
REMARK    2  A    between atoms: C_6  and  S_7 
REMARK    3  A    between atoms: S_7  and  C_8 
REMARK    4  A    between atoms: C_8  and  C_9 
REMARK       I    between atoms: C_9  and  N_10 
REMARK    5  A    between atoms: N_10  and  C_11 
REMARK    6  A    between atoms: C_24  and  C_25 
ROOT
HETATM    1  N   UNL     1      41.670 -12.684   4.878  1.00  0.00    -0.271 N 
HETATM    2  C   UNL     1      41.602 -12.432   3.514  1.00  0.00     0.197 A 
HETATM    3  N   UNL     1      41.060 -11.258   3.292  1.00  0.00    -0.122 NA
HETATM    4  N   UNL     1      40.754 -10.701   4.497  1.00  0.00    -0.128 NA
HETATM    5  C   UNL     1      41.078 -11.554   5.454  1.00  0.00     0.169 A 
ENDROOT
BRANCH   2   6
HETATM    6  S   UNL     1      42.295 -13.409   2.256  1.00  0.00    -0.080 SA
BRANCH   6   7
HETATM    7  C   UNL     1      40.856 -14.433   1.817  1.00  0.00     0.185 C 
BRANCH   7   8
HETATM    8  C   UNL     1      41.115 -15.894   2.146  1.00  0.00     0.231 C 
HETATM    9  N   UNL     1      42.467 -16.207   2.198  1.00  0.00    -0.326 N 
HETATM   10  H   UNL     1      43.100 -15.487   1.870  1.00  0.00     0.169 HD
HETATM   11  O   UNL     1      40.187 -16.661   2.385  1.00  0.00    -0.272 OA
BRANCH   9  12
HETATM   12  C   UNL     1      43.052 -17.430   2.587  1.00  0.00     0.037 A 
HETATM   13  C   UNL     1      43.045 -18.579   1.787  1.00  0.00     0.061 A 
HETATM   14  C   UNL     1      43.635 -19.710   2.307  1.00  0.00     0.065 A 
HETATM   15  C   UNL     1      44.223 -19.734   3.568  1.00  0.00     0.063 A 
HETATM   16  N   UNL     1      43.765 -20.978   1.750  1.00  0.00    -0.306 N 
HETATM   17  N   UNL     1      44.716 -21.015   3.788  1.00  0.00    -0.307 N 
HETATM   18  C   UNL     1      44.253 -18.629   4.379  1.00  0.00     0.034 A 
HETATM   19  C   UNL     1      44.437 -21.804   2.662  1.00  0.00     0.325 A 
HETATM   20  H   UNL     1      45.195 -21.358   4.605  1.00  0.00     0.170 HD
HETATM   21  O   UNL     1      44.721 -22.979   2.511  1.00  0.00    -0.247 OA
HETATM   22  C   UNL     1      43.653 -17.465   3.875  1.00  0.00     0.032 A 
HETATM   23  H   UNL     1      43.439 -21.282   0.847  1.00  0.00     0.170 HD
ENDBRANCH   9  12
ENDBRANCH   7   8
ENDBRANCH   6   7
ENDBRANCH   2   6
BRANCH   1  24
HETATM   24  C   UNL     1      42.234 -13.802   5.556  1.00  0.00     0.043 A 
HETATM   25  C   UNL     1      43.550 -13.739   6.037  1.00  0.00     0.030 A 
HETATM   26  C   UNL     1      44.100 -14.825   6.722  1.00  0.00     0.002 A 
HETATM   27  C   UNL     1      43.344 -15.976   6.931  1.00  0.00     0.000 A 
HETATM   28  C   UNL     1      42.036 -16.045   6.455  1.00  0.00     0.002 A 
HETATM   29  C   UNL     1      41.480 -14.964   5.768  1.00  0.00     0.030 A 
ENDBRANCH   1  24
BRANCH   5  30
HETATM   30  C   UNL     1      40.758 -11.330   6.866  1.00  0.00     0.012 A 
HETATM   31  C   UNL     1      39.519 -11.698   7.412  1.00  0.00     0.017 A 
HETATM   32  C   UNL     1      39.236 -11.454   8.759  1.00  0.00     0.025 A 
HETATM   33  C   UNL     1      40.184 -10.827   9.565  1.00  0.00     0.034 A 
HETATM   34 CL   UNL     1      39.835 -10.528  11.221  1.00  0.00    -0.084 Cl
HETATM   35  C   UNL     1      41.410 -10.434   9.033  1.00  0.00     0.025 A 
HETATM   36  C   UNL     1      41.693 -10.680   7.687  1.00  0.00     0.017 A 
ENDBRANCH   5  30
TORSDOF 6
ENDMDL
MODEL 3
REMARK VINA RESULT:      -9.1      4.657      8.140
REMARK  6 active torsions:
REMARK  status: ('A' for Active; 'I' for Inactive)
REMARK    1  A    between atoms: C_4  and  N_5 
REMARK    2  A    between atoms: C_6  and  S_7 
REMARK    3  A    between atoms: S_7  and  C_8 
REMARK    4  A    between atoms: C_8  and  C_9 
REMARK       I    between atoms: C_9  and  N_10 
REMARK    5  A    between atoms: N_10  and  C_11 
REMARK    6  A    between atoms: C_24  and  C_25 
ROOT
HETATM    1  N   UNL     1      41.863 -12.887   4.973  1.00  0.00    -0.271 N 
HETATM    2  C   UNL     1      41.795 -12.712   3.597  1.00  0.00     0.197 A 
HETATM    3  N   UNL     1      41.302 -11.530   3.310  1.00  0.00    -0.122 NA
HETATM    4  N   UNL     1      41.030 -10.892   4.482  1.00  0.00    -0.128 NA
HETATM    5  C   UNL     1      41.325 -11.701   5.485  1.00  0.00     0.169 A 
ENDROOT
BRANCH   2   6
HETATM    6  S   UNL     1      42.435 -13.789   2.394  1.00  0.00    -0.080 SA
BRANCH   6   7
HETATM    7  C   UNL     1      40.933 -14.728   1.973  1.00  0.00     0.185 C 
BRANCH   7   8
HETATM    8  C   UNL     1      41.189 -16.223   2.072  1.00  0.00     0.231 C 
HETATM    9  N   UNL     1      42.507 -16.529   2.382  1.00  0.00    -0.326 N 
HETATM   10  H   UNL     1      43.158 -15.753   2.356  1.00  0.00     0.169 HD
HETATM   11  O   UNL     1      40.273 -17.030   1.933  1.00  0.00    -0.272 OA
BRANCH   9  12
HETATM   12  C   UNL     1      43.053 -17.800   2.659  1.00  0.00     0.037 A 
HETATM   13  C   UNL     1      43.382 -18.235   3.948  1.00  0.00     0.061 A 
HETATM   14  C   UNL     1      43.930 -19.493   4.065  1.00  0.00     0.065 A 
HETATM   15  C   UNL     1      44.154 -20.317   2.966  1.00  0.00     0.063 A 
HETATM   16  N   UNL     1      44.357 -20.172   5.202  1.00  0.00    -0.306 N 
HETATM   17  N   UNL     1      44.716 -21.503   3.424  1.00  0.00    -0.307 N 
HETATM   18  C   UNL     1      43.842 -19.927   1.688  1.00  0.00     0.034 A 
HETATM   19  C   UNL     1      44.850 -21.427   4.819  1.00  0.00     0.325 A 
HETATM   20  H   UNL     1      44.997 -22.301   2.879  1.00  0.00     0.170 HD
HETATM   21  O   UNL     1      45.310 -22.286   5.551  1.00  0.00    -0.247 OA
HETATM   22  C   UNL     1      43.287 -18.647   1.542  1.00  0.00     0.032 A 
HETATM   23  H   UNL     1      44.331 -19.842   6.153  1.00  0.00     0.170 HD
ENDBRANCH   9  12
ENDBRANCH   7   8
ENDBRANCH   6   7
ENDBRANCH   2   6
BRANCH   1  24
HETATM   24  C   UNL     1      42.383 -13.988   5.711  1.00  0.00     0.043 A 
HETATM   25  C   UNL     1      41.606 -15.142   5.889  1.00  0.00     0.030 A 
HETATM   26  C   UNL     1      42.121 -16.234   6.592  1.00  0.00     0.002 A 
HETATM   27  C   UNL     1      43.409 -16.182   7.120  1.00  0.00     0.000 A 
HETATM   28  C   UNL     1      44.186 -15.038   6.947  1.00  0.00     0.002 A 
HETATM   29  C   UNL     1      43.678 -13.942   6.245  1.00  0.00     0.030 A 
ENDBRANCH   1  24
BRANCH   5  30
HETATM   30  C   UNL     1      41.026 -11.383   6.884  1.00  0.00     0.012 A 
HETATM   31  C   UNL     1      39.747 -11.571   7.429  1.00  0.00     0.017 A 
HETATM   32  C   UNL     1      39.488 -11.240   8.762  1.00  0.00     0.025 A 
HETATM   33  C   UNL     1      40.501 -10.704   9.554  1.00  0.00     0.034 A 
HETATM   34 CL   UNL     1      40.181 -10.297  11.193  1.00  0.00    -0.084 Cl
HETATM   35  C   UNL     1      41.771 -10.489   9.022  1.00  0.00     0.025 A 
HETATM   36  C   UNL     1      42.029 -10.822   7.690  1.00  0.00     0.017 A 
ENDBRANCH   5  30
TORSDOF 6
ENDMDL
MODEL 4
REMARK VINA RESULT:      -9.0      4.130      8.231
REMARK  6 active torsions:
REMARK  status: ('A' for Active; 'I' for Inactive)
REMARK    1  A    between atoms: C_4  and  N_5 
REMARK    2  A    between atoms: C_6  and  S_7 
REMARK    3  A    between atoms: S_7  and  C_8 
REMARK    4  A    between atoms: C_8  and  C_9 
REMARK       I    between atoms: C_9  and  N_10 
REMARK    5  A    between atoms: N_10  and  C_11 
REMARK    6  A    between atoms: C_24  and  C_25 
ROOT
HETATM    1  N   UNL     1      40.700 -13.037   2.005  1.00  0.00    -0.271 N 
HETATM    2  C   UNL     1      41.127 -13.478   3.250  1.00  0.00     0.197 A 
HETATM    3  N   UNL     1      42.438 -13.505   3.301  1.00  0.00    -0.122 NA
HETATM    4  N   UNL     1      42.915 -13.084   2.096  1.00  0.00    -0.128 NA
HETATM    5  C   UNL     1      41.891 -12.836   1.298  1.00  0.00     0.169 A 
ENDROOT
BRANCH   2   6
HETATM    6  S   UNL     1      40.118 -13.777   4.633  1.00  0.00    -0.080 SA
BRANCH   6   7
HETATM    7  C   UNL     1      41.326 -14.563   5.745  1.00  0.00     0.185 C 
BRANCH   7   8
HETATM    8  C   UNL     1      41.520 -16.026   5.380  1.00  0.00     0.231 C 
HETATM    9  N   UNL     1      42.730 -16.271   4.746  1.00  0.00    -0.326 N 
HETATM   10  H   UNL     1      43.259 -15.451   4.471  1.00  0.00     0.169 HD
HETATM   11  O   UNL     1      40.681 -16.869   5.686  1.00  0.00    -0.272 OA
BRANCH   9  12
HETATM   12  C   UNL     1      43.272 -17.521   4.380  1.00  0.00     0.037 A 
HETATM   13  C   UNL     1      42.945 -18.189   3.194  1.00  0.00     0.061 A 
HETATM   14  C   UNL     1      43.535 -19.415   2.980  1.00  0.00     0.065 A 
HETATM   15  C   UNL     1      44.423 -19.986   3.887  1.00  0.00     0.063 A 
HETATM   16  N   UNL     1      43.390 -20.294   1.912  1.00  0.00    -0.306 N 
HETATM   17  N   UNL     1      44.827 -21.214   3.377  1.00  0.00    -0.307 N 
HETATM   18  C   UNL     1      44.770 -19.362   5.057  1.00  0.00     0.034 A 
HETATM   19  C   UNL     1      44.190 -21.422   2.144  1.00  0.00     0.325 A 
HETATM   20  H   UNL     1      45.463 -21.873   3.794  1.00  0.00     0.170 HD
HETATM   21  O   UNL     1      44.308 -22.395   1.421  1.00  0.00    -0.247 OA
HETATM   22  C   UNL     1      44.179 -18.113   5.301  1.00  0.00     0.032 A 
HETATM   23  H   UNL     1      42.814 -20.169   1.095  1.00  0.00     0.170 HD
ENDBRANCH   9  12
ENDBRANCH   7   8
ENDBRANCH   6   7
ENDBRANCH   2   6
BRANCH   1  24
HETATM   24  C   UNL     1      39.373 -12.805   1.544  1.00  0.00     0.043 A 
HETATM   25  C   UNL     1      38.604 -13.871   1.055  1.00  0.00     0.030 A 
HETATM   26  C   UNL     1      37.294 -13.652   0.624  1.00  0.00     0.002 A 
HETATM   27  C   UNL     1      36.744 -12.374   0.676  1.00  0.00     0.000 A 
HETATM   28  C   UNL     1      37.503 -11.310   1.160  1.00  0.00     0.002 A 
HETATM   29  C   UNL     1      38.814 -11.520   1.593  1.00  0.00     0.030 A 
ENDBRANCH   1  24
BRANCH   5  30
HETATM   30  C   UNL     1      42.047 -12.495  -0.119  1.00  0.00     0.012 A 
HETATM   31  C   UNL     1      41.908 -13.457  -1.131  1.00  0.00     0.017 A 
HETATM   32  C   UNL     1      42.082 -13.105  -2.473  1.00  0.00     0.025 A 
HETATM   33  C   UNL     1      42.409 -11.793  -2.810  1.00  0.00     0.034 A 
HETATM   34 CL   UNL     1      42.621 -11.361  -4.460  1.00  0.00    -0.084 Cl
HETATM   35  C   UNL     1      42.572 -10.831  -1.815  1.00  0.00     0.025 A 
HETATM   36  C   UNL     1      42.397 -11.183  -0.475  1.00  0.00     0.017 A 
ENDBRANCH   5  30
TORSDOF 6
ENDMDL
MODEL 5
REMARK VINA RESULT:      -9.0      1.176      1.556
REMARK  6 active torsions:
REMARK  status: ('A' for Active; 'I' for Inactive)
REMARK    1  A    between atoms: C_4  and  N_5 
REMARK    2  A    between atoms: C_6  and  S_7 
REMARK    3  A    between atoms: S_7  and  C_8 
REMARK    4  A    between atoms: C_8  and  C_9 
REMARK       I    between atoms: C_9  and  N_10 
REMARK    5  A    between atoms: N_10  and  C_11 
REMARK    6  A    between atoms: C_24  and  C_25 
ROOT
HETATM    1  N   UNL     1      43.306 -16.178   4.955  1.00  0.00    -0.271 N 
HETATM    2  C   UNL     1      43.299 -14.971   5.642  1.00  0.00     0.197 A 
HETATM    3  N   UNL     1      43.914 -15.098   6.794  1.00  0.00    -0.122 NA
HETATM    4  N   UNL     1      44.343 -16.386   6.903  1.00  0.00    -0.128 NA
HETATM    5  C   UNL     1      43.957 -17.054   5.830  1.00  0.00     0.169 A 
ENDROOT
BRANCH   2   6
HETATM    6  S   UNL     1      42.744 -13.444   5.026  1.00  0.00    -0.080 SA
BRANCH   6   7
HETATM    7  C   UNL     1      40.944 -13.683   5.157  1.00  0.00     0.185 C 
BRANCH   7   8
HETATM    8  C   UNL     1      40.254 -13.288   3.861  1.00  0.00     0.231 C 
HETATM    9  N   UNL     1      40.937 -13.715   2.731  1.00  0.00    -0.326 N 
HETATM   10  H   UNL     1      41.863 -14.094   2.890  1.00  0.00     0.169 HD
HETATM   11  O   UNL     1      39.178 -12.696   3.874  1.00  0.00    -0.272 OA
BRANCH   9  12
HETATM   12  C   UNL     1      40.520 -13.619   1.386  1.00  0.00     0.037 A 
HETATM   13  C   UNL     1      39.317 -14.153   0.909  1.00  0.00     0.061 A 
HETATM   14  C   UNL     1      39.052 -14.004  -0.434  1.00  0.00     0.065 A 
HETATM   15  C   UNL     1      39.924 -13.351  -1.300  1.00  0.00     0.063 A 
HETATM   16  N   UNL     1      37.957 -14.436  -1.175  1.00  0.00    -0.306 N 
HETATM   17  N   UNL     1      39.366 -13.379  -2.573  1.00  0.00    -0.307 N 
HETATM   18  C   UNL     1      41.110 -12.812  -0.871  1.00  0.00     0.034 A 
HETATM   19  C   UNL     1      38.138 -14.054  -2.512  1.00  0.00     0.325 A 
HETATM   20  H   UNL     1      39.750 -12.995  -3.421  1.00  0.00     0.170 HD
HETATM   21  O   UNL     1      37.381 -14.268  -3.441  1.00  0.00    -0.247 OA
HETATM   22  C   UNL     1      41.406 -12.956   0.493  1.00  0.00     0.032 A 
HETATM   23  H   UNL     1      37.155 -14.942  -0.836  1.00  0.00     0.170 HD
ENDBRANCH   9  12
ENDBRANCH   7   8
ENDBRANCH   6   7
ENDBRANCH   2   6
BRANCH   1  24
HETATM   24  C   UNL     1      42.806 -16.471   3.653  1.00  0.00     0.043 A 
HETATM   25  C   UNL     1      43.593 -16.204   2.524  1.00  0.00     0.030 A 
HETATM   26  C   UNL     1      43.117 -16.511   1.247  1.00  0.00     0.002 A 
HETATM   27  C   UNL     1      41.857 -17.083   1.089  1.00  0.00     0.000 A 
HETATM   28  C   UNL     1      41.069 -17.349   2.208  1.00  0.00     0.002 A 
HETATM   29  C   UNL     1      41.538 -17.045   3.488  1.00  0.00     0.030 A 
ENDBRANCH   1  24
BRANCH   5  30
HETATM   30  C   UNL     1      44.134 -18.502   5.683  1.00  0.00     0.012 A 
HETATM   31  C   UNL     1      43.705 -19.403   6.669  1.00  0.00     0.017 A 
HETATM   32  C   UNL     1      43.905 -20.778   6.509  1.00  0.00     0.025 A 
HETATM   33  C   UNL     1      44.548 -21.258   5.371  1.00  0.00     0.034 A 
HETATM   34 CL   UNL     1      44.793 -22.948   5.175  1.00  0.00    -0.084 Cl
HETATM   35  C   UNL     1      45.000 -20.374   4.393  1.00  0.00     0.025 A 
HETATM   36  C   UNL     1      44.798 -19.001   4.553  1.00  0.00     0.017 A 
ENDBRANCH   5  30
TORSDOF 6
ENDMDL
MODEL 6
REMARK VINA RESULT:      -8.9      1.736      3.157
REMARK  6 active torsions:
REMARK  status: ('A' for Active; 'I' for Inactive)
REMARK    1  A    between atoms: C_4  and  N_5 
REMARK    2  A    between atoms: C_6  and  S_7 
REMARK    3  A    between atoms: S_7  and  C_8 
REMARK    4  A    between atoms: C_8  and  C_9 
REMARK       I    between atoms: C_9  and  N_10 
REMARK    5  A    between atoms: N_10  and  C_11 
REMARK    6  A    between atoms: C_24  and  C_25 
ROOT
HETATM    1  N   UNL     1      42.791 -16.463   3.497  1.00  0.00    -0.271 N 
HETATM    2  C   UNL     1      42.489 -15.346   2.730  1.00  0.00     0.197 A 
HETATM    3  N   UNL     1      42.492 -15.654   1.454  1.00  0.00    -0.122 NA
HETATM    4  N   UNL     1      42.796 -16.977   1.341  1.00  0.00    -0.128 NA
HETATM    5  C   UNL     1      43.013 -17.467   2.549  1.00  0.00     0.169 A 
ENDROOT
BRANCH   2   6
HETATM    6  S   UNL     1      41.983 -13.796   3.330  1.00  0.00    -0.080 SA
BRANCH   6   7
HETATM    7  C   UNL     1      42.167 -12.794   1.822  1.00  0.00     0.185 C 
BRANCH   7   8
HETATM    8  C   UNL     1      41.009 -13.040   0.869  1.00  0.00     0.231 C 
HETATM    9  N   UNL     1      41.405 -13.617  -0.330  1.00  0.00    -0.326 N 
HETATM   10  H   UNL     1      42.404 -13.666  -0.488  1.00  0.00     0.169 HD
HETATM   11  O   UNL     1      39.854 -12.782   1.199  1.00  0.00    -0.272 OA
BRANCH   9  12
HETATM   12  C   UNL     1      40.579 -14.079  -1.377  1.00  0.00     0.037 A 
HETATM   13  C   UNL     1      39.339 -13.511  -1.691  1.00  0.00     0.061 A 
HETATM   14  C   UNL     1      38.631 -14.081  -2.725  1.00  0.00     0.065 A 
HETATM   15  C   UNL     1      39.106 -15.174  -3.445  1.00  0.00     0.063 A 
HETATM   16  N   UNL     1      37.386 -13.738  -3.243  1.00  0.00    -0.306 N 
HETATM   17  N   UNL     1      38.157 -15.502  -4.405  1.00  0.00    -0.307 N 
HETATM   18  C   UNL     1      40.317 -15.756  -3.168  1.00  0.00     0.034 A 
HETATM   19  C   UNL     1      37.076 -14.615  -4.291  1.00  0.00     0.325 A 
HETATM   20  H   UNL     1      38.200 -16.246  -5.082  1.00  0.00     0.170 HD
HETATM   21  O   UNL     1      36.065 -14.614  -4.971  1.00  0.00    -0.247 OA
HETATM   22  C   UNL     1      41.056 -15.196  -2.115  1.00  0.00     0.032 A 
HETATM   23  H   UNL     1      36.784 -12.991  -2.935  1.00  0.00     0.170 HD
ENDBRANCH   9  12
ENDBRANCH   7   8
ENDBRANCH   6   7
ENDBRANCH   2   6
BRANCH   1  24
HETATM   24  C   UNL     1      42.837 -16.589   4.916  1.00  0.00     0.043 A 
HETATM   25  C   UNL     1      41.798 -17.241   5.595  1.00  0.00     0.030 A 
HETATM   26  C   UNL     1      41.850 -17.388   6.983  1.00  0.00     0.002 A 
HETATM   27  C   UNL     1      42.934 -16.888   7.700  1.00  0.00     0.000 A 
HETATM   28  C   UNL     1      43.969 -16.238   7.030  1.00  0.00     0.002 A 
HETATM   29  C   UNL     1      43.925 -16.087   5.642  1.00  0.00     0.030 A 
ENDBRANCH   1  24
BRANCH   5  30
HETATM   30  C   UNL     1      43.497 -18.831   2.783  1.00  0.00     0.012 A 
HETATM   31  C   UNL     1      44.305 -19.151   3.884  1.00  0.00     0.017 A 
HETATM   32  C   UNL     1      44.766 -20.458   4.070  1.00  0.00     0.025 A 
HETATM   33  C   UNL     1      44.435 -21.448   3.148  1.00  0.00     0.034 A 
HETATM   34 CL   UNL     1      45.003 -23.055   3.378  1.00  0.00    -0.084 Cl
HETATM   35  C   UNL     1      43.653 -21.142   2.037  1.00  0.00     0.025 A 
HETATM   36  C   UNL     1      43.191 -19.836   1.853  1.00  0.00     0.017 A 
ENDBRANCH   5  30
TORSDOF 6
ENDMDL
MODEL 7
REMARK VINA RESULT:      -8.8      4.318      8.170
REMARK  6 active torsions:
REMARK  status: ('A' for Active; 'I' for Inactive)
REMARK    1  A    between atoms: C_4  and  N_5 
REMARK    2  A    between atoms: C_6  and  S_7 
REMARK    3  A    between atoms: S_7  and  C_8 
REMARK    4  A    between atoms: C_8  and  C_9 
REMARK       I    between atoms: C_9  and  N_10 
REMARK    5  A    between atoms: N_10  and  C_11 
REMARK    6  A    between atoms: C_24  and  C_25 
ROOT
HETATM    1  N   UNL     1      41.137 -13.154   2.857  1.00  0.00    -0.271 N 
HETATM    2  C   UNL     1      41.959 -12.710   3.884  1.00  0.00     0.197 A 
HETATM    3  N   UNL     1      41.630 -11.490   4.239  1.00  0.00    -0.122 NA
HETATM    4  N   UNL     1      40.585 -11.093   3.459  1.00  0.00    -0.128 NA
HETATM    5  C   UNL     1      40.302 -12.060   2.604  1.00  0.00     0.169 A 
ENDROOT
BRANCH   2   6
HETATM    6  S   UNL     1      43.135 -13.661   4.740  1.00  0.00    -0.080 SA
BRANCH   6   7
HETATM    7  C   UNL     1      42.039 -14.601   5.848  1.00  0.00     0.185 C 
BRANCH   7   8
HETATM    8  C   UNL     1      42.066 -16.081   5.500  1.00  0.00     0.231 C 
HETATM    9  N   UNL     1      43.196 -16.450   4.785  1.00  0.00    -0.326 N 
HETATM   10  H   UNL     1      43.779 -15.689   4.455  1.00  0.00     0.169 HD
HETATM   11  O   UNL     1      41.176 -16.835   5.884  1.00  0.00    -0.272 OA
BRANCH   9  12
HETATM   12  C   UNL     1      43.588 -17.752   4.407  1.00  0.00     0.037 A 
HETATM   13  C   UNL     1      43.316 -18.307   3.151  1.00  0.00     0.061 A 
HETATM   14  C   UNL     1      43.739 -19.599   2.930  1.00  0.00     0.065 A 
HETATM   15  C   UNL     1      44.413 -20.341   3.896  1.00  0.00     0.063 A 
HETATM   16  N   UNL     1      43.600 -20.396   1.799  1.00  0.00    -0.306 N 
HETATM   17  N   UNL     1      44.690 -21.593   3.360  1.00  0.00    -0.307 N 
HETATM   18  C   UNL     1      44.700 -19.831   5.136  1.00  0.00     0.034 A 
HETATM   19  C   UNL     1      44.188 -21.644   2.051  1.00  0.00     0.325 A 
HETATM   20  H   UNL     1      45.165 -22.361   3.806  1.00  0.00     0.170 HD
HETATM   21  O   UNL     1      44.249 -22.590   1.287  1.00  0.00    -0.247 OA
HETATM   22  C   UNL     1      44.275 -18.518   5.388  1.00  0.00     0.032 A 
HETATM   23  H   UNL     1      43.155 -20.148   0.930  1.00  0.00     0.170 HD
ENDBRANCH   9  12
ENDBRANCH   7   8
ENDBRANCH   6   7
ENDBRANCH   2   6
BRANCH   1  24
HETATM   24  C   UNL     1      41.109 -14.427   2.219  1.00  0.00     0.043 A 
HETATM   25  C   UNL     1      42.030 -14.722   1.203  1.00  0.00     0.030 A 
HETATM   26  C   UNL     1      42.022 -15.978   0.591  1.00  0.00     0.002 A 
HETATM   27  C   UNL     1      41.099 -16.943   0.986  1.00  0.00     0.000 A 
HETATM   28  C   UNL     1      40.180 -16.655   1.994  1.00  0.00     0.002 A 
HETATM   29  C   UNL     1      40.182 -15.402   2.611  1.00  0.00     0.030 A 
ENDBRANCH   1  24
BRANCH   5  30
HETATM   30  C   UNL     1      39.319 -11.912   1.527  1.00  0.00     0.012 A 
HETATM   31  C   UNL     1      37.951 -12.142   1.738  1.00  0.00     0.017 A 
HETATM   32  C   UNL     1      37.039 -12.011   0.686  1.00  0.00     0.025 A 
HETATM   33  C   UNL     1      37.491 -11.664  -0.585  1.00  0.00     0.034 A 
HETATM   34 CL   UNL     1      36.369 -11.503  -1.878  1.00  0.00    -0.084 Cl
HETATM   35  C   UNL     1      38.849 -11.455  -0.816  1.00  0.00     0.025 A 
HETATM   36  C   UNL     1      39.759 -11.585   0.236  1.00  0.00     0.017 A 
ENDBRANCH   5  30
TORSDOF 6
ENDMDL
MODEL 8
REMARK VINA RESULT:      -8.6      4.558      9.379
REMARK  6 active torsions:
REMARK  status: ('A' for Active; 'I' for Inactive)
REMARK    1  A    between atoms: C_4  and  N_5 
REMARK    2  A    between atoms: C_6  and  S_7 
REMARK    3  A    between atoms: S_7  and  C_8 
REMARK    4  A    between atoms: C_8  and  C_9 
REMARK       I    between atoms: C_9  and  N_10 
REMARK    5  A    between atoms: N_10  and  C_11 
REMARK    6  A    between atoms: C_24  and  C_25 
ROOT
HETATM    1  N   UNL     1      41.407 -13.090  -0.854  1.00  0.00    -0.271 N 
HETATM    2  C   UNL     1      41.732 -13.376   0.465  1.00  0.00     0.197 A 
HETATM    3  N   UNL     1      42.491 -12.430   0.965  1.00  0.00    -0.122 NA
HETATM    4  N   UNL     1      42.691 -11.494  -0.005  1.00  0.00    -0.128 NA
HETATM    5  C   UNL     1      42.081 -11.890  -1.109  1.00  0.00     0.169 A 
ENDROOT
BRANCH   2   6
HETATM    6  S   UNL     1      41.094 -14.681   1.418  1.00  0.00    -0.080 SA
BRANCH   6   7
HETATM    7  C   UNL     1      41.879 -14.321   3.020  1.00  0.00     0.185 C 
BRANCH   7   8
HETATM    8  C   UNL     1      42.537 -15.568   3.588  1.00  0.00     0.231 C 
HETATM    9  N   UNL     1      42.373 -16.684   2.779  1.00  0.00    -0.326 N 
HETATM   10  H   UNL     1      41.724 -16.579   2.008  1.00  0.00     0.169 HD
HETATM   11  O   UNL     1      43.181 -15.521   4.633  1.00  0.00    -0.272 OA
BRANCH   9  12
HETATM   12  C   UNL     1      42.947 -17.962   2.949  1.00  0.00     0.037 A 
HETATM   13  C   UNL     1      43.425 -18.438   4.176  1.00  0.00     0.061 A 
HETATM   14  C   UNL     1      43.983 -19.697   4.186  1.00  0.00     0.065 A 
HETATM   15  C   UNL     1      44.077 -20.483   3.042  1.00  0.00     0.063 A 
HETATM   16  N   UNL     1      44.540 -20.411   5.242  1.00  0.00    -0.306 N 
HETATM   17  N   UNL     1      44.689 -21.681   3.392  1.00  0.00    -0.307 N 
HETATM   18  C   UNL     1      43.618 -20.053   1.823  1.00  0.00     0.034 A 
HETATM   19  C   UNL     1      44.985 -21.651   4.764  1.00  0.00     0.325 A 
HETATM   20  H   UNL     1      44.904 -22.460   2.792  1.00  0.00     0.170 HD
HETATM   21  O   UNL     1      45.527 -22.531   5.408  1.00  0.00    -0.247 OA
HETATM   22  C   UNL     1      43.049 -18.771   1.785  1.00  0.00     0.032 A 
HETATM   23  H   UNL     1      44.625 -20.113   6.201  1.00  0.00     0.170 HD
ENDBRANCH   9  12
ENDBRANCH   7   8
ENDBRANCH   6   7
ENDBRANCH   2   6
BRANCH   1  24
HETATM   24  C   UNL     1      40.563 -13.812  -1.746  1.00  0.00     0.043 A 
HETATM   25  C   UNL     1      41.060 -14.932  -2.428  1.00  0.00     0.030 A 
HETATM   26  C   UNL     1      40.230 -15.658  -3.285  1.00  0.00     0.002 A 
HETATM   27  C   UNL     1      38.904 -15.272  -3.467  1.00  0.00     0.000 A 
HETATM   28  C   UNL     1      38.404 -14.159  -2.793  1.00  0.00     0.002 A 
HETATM   29  C   UNL     1      39.229 -13.429  -1.934  1.00  0.00     0.030 A 
ENDBRANCH   1  24
BRANCH   5  30
HETATM   30  C   UNL     1      42.205 -11.185  -2.387  1.00  0.00     0.012 A 
HETATM   31  C   UNL     1      42.359 -11.873  -3.600  1.00  0.00     0.017 A 
HETATM   32  C   UNL     1      42.494 -11.172  -4.802  1.00  0.00     0.025 A 
HETATM   33  C   UNL     1      42.492  -9.779  -4.797  1.00  0.00     0.034 A 
HETATM   34 CL   UNL     1      42.658  -8.918  -6.276  1.00  0.00    -0.084 Cl
HETATM   35  C   UNL     1      42.363  -9.080  -3.599  1.00  0.00     0.025 A 
HETATM   36  C   UNL     1      42.226  -9.782  -2.398  1.00  0.00     0.017 A 
ENDBRANCH   5  30
TORSDOF 6
ENDMDL
MODEL 9
REMARK VINA RESULT:      -8.6      2.274      2.671
REMARK  6 active torsions:
REMARK  status: ('A' for Active; 'I' for Inactive)
REMARK    1  A    between atoms: C_4  and  N_5 
REMARK    2  A    between atoms: C_6  and  S_7 
REMARK    3  A    between atoms: S_7  and  C_8 
REMARK    4  A    between atoms: C_8  and  C_9 
REMARK       I    between atoms: C_9  and  N_10 
REMARK    5  A    between atoms: N_10  and  C_11 
REMARK    6  A    between atoms: C_24  and  C_25 
ROOT
HETATM    1  N   UNL     1      41.708 -13.987   3.961  1.00  0.00    -0.271 N 
HETATM    2  C   UNL     1      41.325 -12.656   3.862  1.00  0.00     0.197 A 
HETATM    3  N   UNL     1      41.635 -12.008   4.960  1.00  0.00    -0.122 NA
HETATM    4  N   UNL     1      42.229 -12.887   5.814  1.00  0.00    -0.128 NA
HETATM    5  C   UNL     1      42.248 -14.082   5.248  1.00  0.00     0.169 A 
ENDROOT
BRANCH   2   6
HETATM    6  S   UNL     1      40.700 -11.872   2.443  1.00  0.00    -0.080 SA
BRANCH   6   7
HETATM    7  C   UNL     1      42.178 -11.910   1.381  1.00  0.00     0.185 C 
BRANCH   7   8
HETATM    8  C   UNL     1      41.818 -12.364  -0.024  1.00  0.00     0.231 C 
HETATM    9  N   UNL     1      40.791 -13.297  -0.047  1.00  0.00    -0.326 N 
HETATM   10  H   UNL     1      40.514 -13.671   0.853  1.00  0.00     0.169 HD
HETATM   11  O   UNL     1      42.375 -11.880  -1.006  1.00  0.00    -0.272 OA
BRANCH   9  12
HETATM   12  C   UNL     1      40.140 -13.834  -1.178  1.00  0.00     0.037 A 
HETATM   13  C   UNL     1      38.898 -13.382  -1.642  1.00  0.00     0.061 A 
HETATM   14  C   UNL     1      38.372 -14.017  -2.745  1.00  0.00     0.065 A 
HETATM   15  C   UNL     1      39.027 -15.061  -3.391  1.00  0.00     0.063 A 
HETATM   16  N   UNL     1      37.170 -13.790  -3.409  1.00  0.00    -0.306 N 
HETATM   17  N   UNL     1      38.231 -15.476  -4.452  1.00  0.00    -0.307 N 
HETATM   18  C   UNL     1      40.244 -15.529  -2.968  1.00  0.00     0.034 A 
HETATM   19  C   UNL     1      37.067 -14.693  -4.476  1.00  0.00     0.325 A 
HETATM   20  H   UNL     1      38.421 -16.214  -5.111  1.00  0.00     0.170 HD
HETATM   21  O   UNL     1      36.147 -14.785  -5.269  1.00  0.00    -0.247 OA
HETATM   22  C   UNL     1      40.800 -14.903  -1.843  1.00  0.00     0.032 A 
HETATM   23  H   UNL     1      36.471 -13.101  -3.183  1.00  0.00     0.170 HD
ENDBRANCH   9  12
ENDBRANCH   7   8
ENDBRANCH   6   7
ENDBRANCH   2   6
BRANCH   1  24
HETATM   24  C   UNL     1      41.615 -15.021   2.985  1.00  0.00     0.043 A 
HETATM   25  C   UNL     1      42.755 -15.413   2.269  1.00  0.00     0.030 A 
HETATM   26  C   UNL     1      42.675 -16.442   1.328  1.00  0.00     0.002 A 
HETATM   27  C   UNL     1      41.461 -17.084   1.096  1.00  0.00     0.000 A 
HETATM   28  C   UNL     1      40.323 -16.698   1.804  1.00  0.00     0.002 A 
HETATM   29  C   UNL     1      40.396 -15.670   2.746  1.00  0.00     0.030 A 
ENDBRANCH   1  24
BRANCH   5  30
HETATM   30  C   UNL     1      42.695 -15.290   5.947  1.00  0.00     0.012 A 
HETATM   31  C   UNL     1      44.055 -15.561   6.162  1.00  0.00     0.017 A 
HETATM   32  C   UNL     1      44.451 -16.731   6.815  1.00  0.00     0.025 A 
HETATM   33  C   UNL     1      43.491 -17.646   7.244  1.00  0.00     0.034 A 
HETATM   34 CL   UNL     1      43.980 -19.085   8.048  1.00  0.00    -0.084 Cl
HETATM   35  C   UNL     1      42.138 -17.403   7.018  1.00  0.00     0.025 A 
HETATM   36  C   UNL     1      41.743 -16.232   6.366  1.00  0.00     0.017 A 
ENDBRANCH   5  30
TORSDOF 6
ENDMDL
MODEL 10
REMARK VINA RESULT:      -8.5      2.516      3.943
REMARK  6 active torsions:
REMARK  status: ('A' for Active; 'I' for Inactive)
REMARK    1  A    between atoms: C_4  and  N_5 
REMARK    2  A    between atoms: C_6  and  S_7 
REMARK    3  A    between atoms: S_7  and  C_8 
REMARK    4  A    between atoms: C_8  and  C_9 
REMARK       I    between atoms: C_9  and  N_10 
REMARK    5  A    between atoms: N_10  and  C_11 
REMARK    6  A    between atoms: C_24  and  C_25 
ROOT
HETATM    1  N   UNL     1      41.530 -15.092   4.276  1.00  0.00    -0.271 N 
HETATM    2  C   UNL     1      40.468 -14.230   4.041  1.00  0.00     0.197 A 
HETATM    3  N   UNL     1      39.698 -14.701   3.089  1.00  0.00    -0.122 NA
HETATM    4  N   UNL     1      40.226 -15.883   2.667  1.00  0.00    -0.128 NA
HETATM    5  C   UNL     1      41.340 -16.115   3.340  1.00  0.00     0.169 A 
ENDROOT
BRANCH   2   6
HETATM    6  S   UNL     1      40.066 -12.821   4.976  1.00  0.00    -0.080 SA
BRANCH   6   7
HETATM    7  C   UNL     1      41.179 -11.601   4.210  1.00  0.00     0.185 C 
BRANCH   7   8
HETATM    8  C   UNL     1      40.943 -11.527   2.710  1.00  0.00     0.231 C 
HETATM    9  N   UNL     1      41.978 -12.081   1.969  1.00  0.00    -0.326 N 
HETATM   10  H   UNL     1      42.813 -12.324   2.490  1.00  0.00     0.169 HD
HETATM   11  O   UNL     1      39.901 -11.060   2.258  1.00  0.00    -0.272 OA
BRANCH   9  12
HETATM   12  C   UNL     1      42.027 -12.279   0.573  1.00  0.00     0.037 A 
HETATM   13  C   UNL     1      42.331 -11.263  -0.342  1.00  0.00     0.061 A 
HETATM   14  C   UNL     1      42.318 -11.597  -1.678  1.00  0.00     0.065 A 
HETATM   15  C   UNL     1      42.023 -12.882  -2.125  1.00  0.00     0.063 A 
HETATM   16  N   UNL     1      42.567 -10.803  -2.792  1.00  0.00    -0.306 N 
HETATM   17  N   UNL     1      42.092 -12.879  -3.513  1.00  0.00    -0.307 N 
HETATM   18  C   UNL     1      41.724 -13.903  -1.260  1.00  0.00     0.034 A 
HETATM   19  C   UNL     1      42.430 -11.588  -3.945  1.00  0.00     0.325 A 
HETATM   20  H   UNL     1      41.930 -13.652  -4.138  1.00  0.00     0.170 HD
HETATM   21  O   UNL     1      42.571 -11.223  -5.099  1.00  0.00    -0.247 OA
HETATM   22  C   UNL     1      41.725 -13.587   0.107  1.00  0.00     0.032 A 
HETATM   23  H   UNL     1      42.806  -9.824  -2.801  1.00  0.00     0.170 HD
ENDBRANCH   9  12
ENDBRANCH   7   8
ENDBRANCH   6   7
ENDBRANCH   2   6
BRANCH   1  24
HETATM   24  C   UNL     1      42.562 -14.998   5.254  1.00  0.00     0.043 A 
HETATM   25  C   UNL     1      42.545 -15.842   6.373  1.00  0.00     0.030 A 
HETATM   26  C   UNL     1      43.566 -15.770   7.323  1.00  0.00     0.002 A 
HETATM   27  C   UNL     1      44.607 -14.858   7.163  1.00  0.00     0.000 A 
HETATM   28  C   UNL     1      44.629 -14.015   6.053  1.00  0.00     0.002 A 
HETATM   29  C   UNL     1      43.610 -14.082   5.099  1.00  0.00     0.030 A 
ENDBRANCH   1  24
BRANCH   5  30
HETATM   30  C   UNL     1      42.236 -17.235   3.040  1.00  0.00     0.012 A 
HETATM   31  C   UNL     1      42.855 -17.373   1.789  1.00  0.00     0.017 A 
HETATM   32  C   UNL     1      43.690 -18.464   1.527  1.00  0.00     0.025 A 
HETATM   33  C   UNL     1      43.899 -19.430   2.509  1.00  0.00     0.034 A 
HETATM   34 CL   UNL     1      44.926 -20.770   2.186  1.00  0.00    -0.084 Cl
HETATM   35  C   UNL     1      43.273 -19.319   3.749  1.00  0.00     0.025 A 
HETATM   36  C   UNL     1      42.440 -18.229   4.010  1.00  0.00     0.017 A 
ENDBRANCH   5  30
TORSDOF 6
ENDMDL
