MODEL 1
REMARK VINA RESULT:      -8.6      0.000      0.000
REMARK  6 active torsions:
REMARK  status: ('A' for Active; 'I' for Inactive)
REMARK    1  A    between atoms: C_2  and  C_3 
REMARK    2  A    between atoms: C_3  and  C_4 
REMARK    3  A    between atoms: C_5  and  O_6 
REMARK    4  A    between atoms: C_7  and  C_8 
REMARK    5  A    between atoms: N_9  and  N_10 
REMARK       I    between atoms: N_10  and  C_11 
REMARK    6  A    between atoms: C_11  and  C_12 
ROOT
HETATM    1  N   UNL     1      44.089 -14.340   7.725  1.00  0.00    -0.243 N 
HETATM    2  C   UNL     1      44.977 -13.283   7.865  1.00  0.00     0.274 C 
HETATM    3  O   UNL     1      45.977 -13.126   7.163  1.00  0.00    -0.266 OA
HETATM    4  H   UNL     1      43.278 -14.448   8.316  1.00  0.00     0.192 HD
ENDROOT
BRANCH   1   5
HETATM    5  N   UNL     1      44.325 -15.290   6.773  1.00  0.00    -0.183 NA
HETATM    6  C   UNL     1      43.732 -16.428   6.951  1.00  0.00     0.153 C 
BRANCH   6   7
HETATM    7  C   UNL     1      43.907 -17.547   6.000  1.00  0.00     0.017 A 
HETATM    8  C   UNL     1      43.180 -17.581   4.801  1.00  0.00     0.084 A 
HETATM    9  C   UNL     1      43.351 -18.640   3.892  1.00  0.00    -0.021 A 
HETATM   10  C   UNL     1      44.245 -19.674   4.231  1.00  0.00     0.010 A 
HETATM   11  C   UNL     1      44.960 -19.646   5.428  1.00  0.00     0.002 A 
HETATM   12  C   UNL     1      44.796 -18.582   6.311  1.00  0.00     0.016 A 
BRANCH   8  13
HETATM   13  O   UNL     1      42.306 -16.557   4.543  1.00  0.00    -0.359 OA
HETATM   14  H   UNL     1      41.995 -16.187   5.385  1.00  0.00     0.218 HD
ENDBRANCH   8  13
BRANCH   9  15
HETATM   15  C   UNL     1      42.636 -18.714   2.562  1.00  0.00     0.067 C 
BRANCH  15  16
HETATM   16  C   UNL     1      43.522 -18.346   1.403  1.00  0.00    -0.032 C 
HETATM   17  C   UNL     1      44.273 -17.237   1.348  1.00  0.00     0.007 C 
ENDBRANCH  15  16
ENDBRANCH   9  15
ENDBRANCH   6   7
ENDBRANCH   1   5
BRANCH   2  18
HETATM   18  C   UNL     1      44.689 -12.286   8.945  1.00  0.00     0.061 A 
HETATM   19  C   UNL     1      43.534 -11.483   8.840  1.00  0.00     0.058 A 
HETATM   20  C   UNL     1      43.177 -10.523   9.785  1.00  0.00    -0.007 A 
HETATM   21  N   UNL     1      42.560 -11.458   7.861  1.00  0.00    -0.364 N 
HETATM   22  C   UNL     1      41.966  -9.922   9.343  1.00  0.00     0.030 A 
HETATM   23  C   UNL     1      44.007 -10.335  10.906  1.00  0.00     0.014 A 
HETATM   24  C   UNL     1      41.610 -10.519   8.154  1.00  0.00     0.089 A 
HETATM   25  C   UNL     1      45.158 -11.117  11.041  1.00  0.00     0.002 A 
HETATM   26  C   UNL     1      45.493 -12.074  10.080  1.00  0.00     0.019 A 
HETATM   27  H   UNL     1      42.582 -12.070   7.050  1.00  0.00     0.165 HD
ENDBRANCH   2  18
TORSDOF 6
ENDMDL
MODEL 2
REMARK VINA RESULT:      -8.5      1.181      2.030
REMARK  6 active torsions:
REMARK  status: ('A' for Active; 'I' for Inactive)
REMARK    1  A    between atoms: C_2  and  C_3 
REMARK    2  A    between atoms: C_3  and  C_4 
REMARK    3  A    between atoms: C_5  and  O_6 
REMARK    4  A    between atoms: C_7  and  C_8 
REMARK    5  A    between atoms: N_9  and  N_10 
REMARK       I    between atoms: N_10  and  C_11 
REMARK    6  A    between atoms: C_11  and  C_12 
ROOT
HETATM    1  N   UNL     1      44.023 -14.451   7.504  1.00  0.00    -0.243 N 
HETATM    2  C   UNL     1      44.942 -13.413   7.577  1.00  0.00     0.274 C 
HETATM    3  O   UNL     1      45.859 -13.248   6.772  1.00  0.00    -0.266 OA
HETATM    4  H   UNL     1      43.281 -14.566   8.178  1.00  0.00     0.192 HD
ENDROOT
BRANCH   1   5
HETATM    5  N   UNL     1      44.131 -15.370   6.501  1.00  0.00    -0.183 NA
HETATM    6  C   UNL     1      43.015 -15.836   6.038  1.00  0.00     0.153 C 
BRANCH   6   7
HETATM    7  C   UNL     1      42.987 -16.845   4.957  1.00  0.00     0.017 A 
HETATM    8  C   UNL     1      43.831 -17.964   5.010  1.00  0.00     0.084 A 
HETATM    9  C   UNL     1      43.801 -18.929   3.987  1.00  0.00    -0.021 A 
HETATM   10  C   UNL     1      42.927 -18.727   2.901  1.00  0.00     0.010 A 
HETATM   11  C   UNL     1      42.096 -17.608   2.844  1.00  0.00     0.002 A 
HETATM   12  C   UNL     1      42.122 -16.669   3.872  1.00  0.00     0.016 A 
BRANCH   8  13
HETATM   13  O   UNL     1      44.678 -18.091   6.080  1.00  0.00    -0.359 OA
HETATM   14  H   UNL     1      45.498 -18.520   5.786  1.00  0.00     0.218 HD
ENDBRANCH   8  13
BRANCH   9  15
HETATM   15  C   UNL     1      44.648 -20.183   4.005  1.00  0.00     0.067 C 
BRANCH  15  16
HETATM   16  C   UNL     1      44.779 -20.816   2.647  1.00  0.00    -0.032 C 
HETATM   17  C   UNL     1      44.384 -22.063   2.353  1.00  0.00     0.007 C 
ENDBRANCH  15  16
ENDBRANCH   9  15
ENDBRANCH   6   7
ENDBRANCH   1   5
BRANCH   2  18
HETATM   18  C   UNL     1      44.796 -12.449   8.714  1.00  0.00     0.061 A 
HETATM   19  C   UNL     1      43.656 -11.620   8.762  1.00  0.00     0.058 A 
HETATM   20  C   UNL     1      43.428 -10.686   9.772  1.00  0.00    -0.007 A 
HETATM   21  N   UNL     1      42.584 -11.539   7.896  1.00  0.00    -0.364 N 
HETATM   22  C   UNL     1      42.191 -10.044   9.484  1.00  0.00     0.030 A 
HETATM   23  C   UNL     1      44.377 -10.557  10.802  1.00  0.00     0.014 A 
HETATM   24  C   UNL     1      41.694 -10.591   8.322  1.00  0.00     0.089 A 
HETATM   25  C   UNL     1      45.517 -11.366  10.785  1.00  0.00     0.002 A 
HETATM   26  C   UNL     1      45.723 -12.296   9.762  1.00  0.00     0.019 A 
HETATM   27  H   UNL     1      42.504 -12.121   7.067  1.00  0.00     0.165 HD
ENDBRANCH   2  18
TORSDOF 6
ENDMDL
MODEL 3
REMARK VINA RESULT:      -8.0      6.045      9.027
REMARK  6 active torsions:
REMARK  status: ('A' for Active; 'I' for Inactive)
REMARK    1  A    between atoms: C_2  and  C_3 
REMARK    2  A    between atoms: C_3  and  C_4 
REMARK    3  A    between atoms: C_5  and  O_6 
REMARK    4  A    between atoms: C_7  and  C_8 
REMARK    5  A    between atoms: N_9  and  N_10 
REMARK       I    between atoms: N_10  and  C_11 
REMARK    6  A    between atoms: C_11  and  C_12 
ROOT
HETATM    1  N   UNL     1      42.302 -16.886   3.109  1.00  0.00    -0.243 N 
HETATM    2  C   UNL     1      43.413 -17.578   2.647  1.00  0.00     0.274 C 
HETATM    3  O   UNL     1      43.976 -17.342   1.577  1.00  0.00    -0.266 OA
HETATM    4  H   UNL     1      41.858 -17.102   3.989  1.00  0.00     0.192 HD
ENDROOT
BRANCH   1   5
HETATM    5  N   UNL     1      41.767 -15.892   2.342  1.00  0.00    -0.183 NA
HETATM    6  C   UNL     1      40.596 -16.132   1.843  1.00  0.00     0.153 C 
BRANCH   6   7
HETATM    7  C   UNL     1      39.905 -15.144   0.985  1.00  0.00     0.017 A 
HETATM    8  C   UNL     1      40.512 -14.676  -0.189  1.00  0.00     0.084 A 
HETATM    9  C   UNL     1      39.852 -13.744  -1.010  1.00  0.00    -0.021 A 
HETATM   10  C   UNL     1      38.588 -13.273  -0.607  1.00  0.00     0.010 A 
HETATM   11  C   UNL     1      37.990 -13.731   0.567  1.00  0.00     0.002 A 
HETATM   12  C   UNL     1      38.644 -14.668   1.361  1.00  0.00     0.016 A 
BRANCH   8  13
HETATM   13  O   UNL     1      41.756 -15.153  -0.513  1.00  0.00    -0.359 OA
HETATM   14  H   UNL     1      41.915 -15.976  -0.023  1.00  0.00     0.218 HD
ENDBRANCH   8  13
BRANCH   9  15
HETATM   15  C   UNL     1      40.428 -13.235  -2.313  1.00  0.00     0.067 C 
BRANCH  15  16
HETATM   16  C   UNL     1      39.927 -13.998  -3.509  1.00  0.00    -0.032 C 
HETATM   17  C   UNL     1      39.717 -15.321  -3.526  1.00  0.00     0.007 C 
ENDBRANCH  15  16
ENDBRANCH   9  15
ENDBRANCH   6   7
ENDBRANCH   1   5
BRANCH   2  18
HETATM   18  C   UNL     1      43.942 -18.680   3.513  1.00  0.00     0.061 A 
HETATM   19  C   UNL     1      44.038 -19.981   2.977  1.00  0.00     0.058 A 
HETATM   20  C   UNL     1      44.511 -21.077   3.698  1.00  0.00    -0.007 A 
HETATM   21  N   UNL     1      43.715 -20.445   1.716  1.00  0.00    -0.364 N 
HETATM   22  C   UNL     1      44.459 -22.207   2.835  1.00  0.00     0.030 A 
HETATM   23  C   UNL     1      44.916 -20.885   5.031  1.00  0.00     0.014 A 
HETATM   24  C   UNL     1      43.965 -21.786   1.621  1.00  0.00     0.089 A 
HETATM   25  C   UNL     1      44.837 -19.607   5.592  1.00  0.00     0.002 A 
HETATM   26  C   UNL     1      44.360 -18.524   4.847  1.00  0.00     0.019 A 
HETATM   27  H   UNL     1      43.345 -19.841   0.988  1.00  0.00     0.165 HD
ENDBRANCH   2  18
TORSDOF 6
ENDMDL
MODEL 4
REMARK VINA RESULT:      -8.0      6.056      8.557
REMARK  6 active torsions:
REMARK  status: ('A' for Active; 'I' for Inactive)
REMARK    1  A    between atoms: C_2  and  C_3 
REMARK    2  A    between atoms: C_3  and  C_4 
REMARK    3  A    between atoms: C_5  and  O_6 
REMARK    4  A    between atoms: C_7  and  C_8 
REMARK    5  A    between atoms: N_9  and  N_10 
REMARK       I    between atoms: N_10  and  C_11 
REMARK    6  A    between atoms: C_11  and  C_12 
ROOT
HETATM    1  N   UNL     1      40.382 -16.619   1.261  1.00  0.00    -0.243 N 
HETATM    2  C   UNL     1      40.832 -15.352   0.916  1.00  0.00     0.274 C 
HETATM    3  O   UNL     1      41.895 -14.868   1.308  1.00  0.00    -0.266 OA
HETATM    4  H   UNL     1      39.505 -16.991   0.928  1.00  0.00     0.192 HD
ENDROOT
BRANCH   1   5
HETATM    5  N   UNL     1      41.133 -17.389   2.102  1.00  0.00    -0.183 NA
HETATM    6  C   UNL     1      42.148 -17.987   1.565  1.00  0.00     0.153 C 
BRANCH   6   7
HETATM    7  C   UNL     1      43.040 -18.860   2.359  1.00  0.00     0.017 A 
HETATM    8  C   UNL     1      43.491 -18.451   3.623  1.00  0.00     0.084 A 
HETATM    9  C   UNL     1      44.333 -19.283   4.383  1.00  0.00    -0.021 A 
HETATM   10  C   UNL     1      44.731 -20.516   3.832  1.00  0.00     0.010 A 
HETATM   11  C   UNL     1      44.290 -20.917   2.570  1.00  0.00     0.002 A 
HETATM   12  C   UNL     1      43.442 -20.093   1.835  1.00  0.00     0.016 A 
BRANCH   8  13
HETATM   13  O   UNL     1      43.089 -17.228   4.092  1.00  0.00    -0.359 OA
HETATM   14  H   UNL     1      42.141 -17.117   3.912  1.00  0.00     0.218 HD
ENDBRANCH   8  13
BRANCH   9  15
HETATM   15  C   UNL     1      44.816 -18.926   5.771  1.00  0.00     0.067 C 
BRANCH  15  16
HETATM   16  C   UNL     1      43.841 -19.320   6.846  1.00  0.00    -0.032 C 
HETATM   17  C   UNL     1      43.669 -20.573   7.288  1.00  0.00     0.007 C 
ENDBRANCH  15  16
ENDBRANCH   9  15
ENDBRANCH   6   7
ENDBRANCH   1   5
BRANCH   2  18
HETATM   18  C   UNL     1      39.957 -14.536   0.016  1.00  0.00     0.061 A 
HETATM   19  C   UNL     1      40.398 -14.258  -1.295  1.00  0.00     0.058 A 
HETATM   20  C   UNL     1      39.664 -13.504  -2.209  1.00  0.00    -0.007 A 
HETATM   21  N   UNL     1      41.565 -14.632  -1.933  1.00  0.00    -0.364 N 
HETATM   22  C   UNL     1      40.424 -13.437  -3.410  1.00  0.00     0.030 A 
HETATM   23  C   UNL     1      38.415 -12.990  -1.815  1.00  0.00     0.014 A 
HETATM   24  C   UNL     1      41.590 -14.142  -3.210  1.00  0.00     0.089 A 
HETATM   25  C   UNL     1      37.947 -13.251  -0.524  1.00  0.00     0.002 A 
HETATM   26  C   UNL     1      38.702 -14.010   0.375  1.00  0.00     0.019 A 
HETATM   27  H   UNL     1      42.280 -15.195  -1.482  1.00  0.00     0.165 HD
ENDBRANCH   2  18
TORSDOF 6
ENDMDL
MODEL 5
REMARK VINA RESULT:      -7.9      5.076      8.330
REMARK  6 active torsions:
REMARK  status: ('A' for Active; 'I' for Inactive)
REMARK    1  A    between atoms: C_2  and  C_3 
REMARK    2  A    between atoms: C_3  and  C_4 
REMARK    3  A    between atoms: C_5  and  O_6 
REMARK    4  A    between atoms: C_7  and  C_8 
REMARK    5  A    between atoms: N_9  and  N_10 
REMARK       I    between atoms: N_10  and  C_11 
REMARK    6  A    between atoms: C_11  and  C_12 
ROOT
HETATM    1  N   UNL     1      42.346 -16.640   0.177  1.00  0.00    -0.243 N 
HETATM    2  C   UNL     1      41.742 -15.408   0.377  1.00  0.00     0.274 C 
HETATM    3  O   UNL     1      41.913 -14.710   1.377  1.00  0.00    -0.266 OA
HETATM    4  H   UNL     1      42.186 -17.194  -0.652  1.00  0.00     0.192 HD
ENDROOT
BRANCH   1   5
HETATM    5  N   UNL     1      43.170 -17.145   1.140  1.00  0.00    -0.183 NA
HETATM    6  C   UNL     1      42.750 -18.213   1.742  1.00  0.00     0.153 C 
BRANCH   6   7
HETATM    7  C   UNL     1      43.540 -18.858   2.812  1.00  0.00     0.017 A 
HETATM    8  C   UNL     1      43.868 -18.150   3.978  1.00  0.00     0.084 A 
HETATM    9  C   UNL     1      44.612 -18.765   5.001  1.00  0.00    -0.021 A 
HETATM   10  C   UNL     1      45.041 -20.093   4.811  1.00  0.00     0.010 A 
HETATM   11  C   UNL     1      44.724 -20.793   3.647  1.00  0.00     0.002 A 
HETATM   12  C   UNL     1      43.971 -20.180   2.650  1.00  0.00     0.016 A 
BRANCH   8  13
HETATM   13  O   UNL     1      43.442 -16.852   4.091  1.00  0.00    -0.359 OA
HETATM   14  H   UNL     1      43.813 -16.333   3.358  1.00  0.00     0.218 HD
ENDBRANCH   8  13
BRANCH   9  15
HETATM   15  C   UNL     1      44.958 -18.076   6.302  1.00  0.00     0.067 C 
BRANCH  15  16
HETATM   16  C   UNL     1      43.931 -18.310   7.376  1.00  0.00    -0.032 C 
HETATM   17  C   UNL     1      42.897 -17.493   7.624  1.00  0.00     0.007 C 
ENDBRANCH  15  16
ENDBRANCH   9  15
ENDBRANCH   6   7
ENDBRANCH   1   5
BRANCH   2  18
HETATM   18  C   UNL     1      40.822 -14.913  -0.697  1.00  0.00     0.061 A 
HETATM   19  C   UNL     1      39.646 -14.229  -0.326  1.00  0.00     0.058 A 
HETATM   20  C   UNL     1      38.722 -13.734  -1.245  1.00  0.00    -0.007 A 
HETATM   21  N   UNL     1      39.167 -13.911   0.930  1.00  0.00    -0.364 N 
HETATM   22  C   UNL     1      37.678 -13.114  -0.504  1.00  0.00     0.030 A 
HETATM   23  C   UNL     1      38.966 -13.921  -2.618  1.00  0.00     0.014 A 
HETATM   24  C   UNL     1      37.980 -13.239   0.834  1.00  0.00     0.089 A 
HETATM   25  C   UNL     1      40.124 -14.593  -3.020  1.00  0.00     0.002 A 
HETATM   26  C   UNL     1      41.036 -15.079  -2.078  1.00  0.00     0.019 A 
HETATM   27  H   UNL     1      39.659 -14.160   1.783  1.00  0.00     0.165 HD
ENDBRANCH   2  18
TORSDOF 6
ENDMDL
MODEL 6
REMARK VINA RESULT:      -7.8      1.613      8.773
REMARK  6 active torsions:
REMARK  status: ('A' for Active; 'I' for Inactive)
REMARK    1  A    between atoms: C_2  and  C_3 
REMARK    2  A    between atoms: C_3  and  C_4 
REMARK    3  A    between atoms: C_5  and  O_6 
REMARK    4  A    between atoms: C_7  and  C_8 
REMARK    5  A    between atoms: N_9  and  N_10 
REMARK       I    between atoms: N_10  and  C_11 
REMARK    6  A    between atoms: C_11  and  C_12 
ROOT
HETATM    1  N   UNL     1      43.989 -14.900   5.916  1.00  0.00    -0.243 N 
HETATM    2  C   UNL     1      43.205 -16.023   5.696  1.00  0.00     0.274 C 
HETATM    3  O   UNL     1      42.319 -16.406   6.461  1.00  0.00    -0.266 OA
HETATM    4  H   UNL     1      44.712 -14.609   5.274  1.00  0.00     0.192 HD
ENDROOT
BRANCH   1   5
HETATM    5  N   UNL     1      43.802 -14.166   7.052  1.00  0.00    -0.183 NA
HETATM    6  C   UNL     1      44.708 -13.276   7.305  1.00  0.00     0.153 C 
BRANCH   6   7
HETATM    7  C   UNL     1      44.634 -12.418   8.508  1.00  0.00     0.017 A 
HETATM    8  C   UNL     1      43.512 -11.607   8.733  1.00  0.00     0.084 A 
HETATM    9  C   UNL     1      43.435 -10.797   9.880  1.00  0.00    -0.021 A 
HETATM   10  C   UNL     1      44.522 -10.800  10.776  1.00  0.00     0.010 A 
HETATM   11  C   UNL     1      45.642 -11.599  10.546  1.00  0.00     0.002 A 
HETATM   12  C   UNL     1      45.698 -12.411   9.416  1.00  0.00     0.016 A 
BRANCH   8  13
HETATM   13  O   UNL     1      42.499 -11.629   7.810  1.00  0.00    -0.359 OA
HETATM   14  H   UNL     1      42.875 -11.810   6.933  1.00  0.00     0.218 HD
ENDBRANCH   8  13
BRANCH   9  15
HETATM   15  C   UNL     1      42.235  -9.936  10.207  1.00  0.00     0.067 C 
BRANCH  15  16
HETATM   16  C   UNL     1      41.079 -10.731  10.748  1.00  0.00    -0.032 C 
HETATM   17  C   UNL     1      40.964 -11.127  12.023  1.00  0.00     0.007 C 
ENDBRANCH  15  16
ENDBRANCH   9  15
ENDBRANCH   6   7
ENDBRANCH   1   5
BRANCH   2  18
HETATM   18  C   UNL     1      43.471 -16.810   4.450  1.00  0.00     0.061 A 
HETATM   19  C   UNL     1      43.880 -18.155   4.567  1.00  0.00     0.058 A 
HETATM   20  C   UNL     1      44.158 -18.973   3.473  1.00  0.00    -0.007 A 
HETATM   21  N   UNL     1      44.085 -18.922   5.698  1.00  0.00    -0.364 N 
HETATM   22  C   UNL     1      44.537 -20.247   3.981  1.00  0.00     0.030 A 
HETATM   23  C   UNL     1      44.027 -18.438   2.178  1.00  0.00     0.014 A 
HETATM   24  C   UNL     1      44.482 -20.185   5.355  1.00  0.00     0.089 A 
HETATM   25  C   UNL     1      43.621 -17.109   2.027  1.00  0.00     0.002 A 
HETATM   26  C   UNL     1      43.347 -16.309   3.140  1.00  0.00     0.019 A 
HETATM   27  H   UNL     1      43.948 -18.560   6.638  1.00  0.00     0.165 HD
ENDBRANCH   2  18
TORSDOF 6
ENDMDL
MODEL 7
REMARK VINA RESULT:      -7.8      5.359      8.809
REMARK  6 active torsions:
REMARK  status: ('A' for Active; 'I' for Inactive)
REMARK    1  A    between atoms: C_2  and  C_3 
REMARK    2  A    between atoms: C_3  and  C_4 
REMARK    3  A    between atoms: C_5  and  O_6 
REMARK    4  A    between atoms: C_7  and  C_8 
REMARK    5  A    between atoms: N_9  and  N_10 
REMARK       I    between atoms: N_10  and  C_11 
REMARK    6  A    between atoms: C_11  and  C_12 
ROOT
HETATM    1  N   UNL     1      41.705 -18.010   1.894  1.00  0.00    -0.243 N 
HETATM    2  C   UNL     1      43.064 -18.232   1.727  1.00  0.00     0.274 C 
HETATM    3  O   UNL     1      43.753 -17.674   0.871  1.00  0.00    -0.266 OA
HETATM    4  H   UNL     1      41.162 -18.483   2.602  1.00  0.00     0.192 HD
ENDROOT
BRANCH   1   5
HETATM    5  N   UNL     1      41.061 -17.142   1.060  1.00  0.00    -0.183 NA
HETATM    6  C   UNL     1      40.645 -16.042   1.602  1.00  0.00     0.153 C 
BRANCH   6   7
HETATM    7  C   UNL     1      39.924 -15.017   0.814  1.00  0.00     0.017 A 
HETATM    8  C   UNL     1      40.475 -14.521  -0.377  1.00  0.00     0.084 A 
HETATM    9  C   UNL     1      39.787 -13.553  -1.131  1.00  0.00    -0.021 A 
HETATM   10  C   UNL     1      38.554 -13.077  -0.645  1.00  0.00     0.010 A 
HETATM   11  C   UNL     1      38.013 -13.564   0.545  1.00  0.00     0.002 A 
HETATM   12  C   UNL     1      38.694 -14.536   1.273  1.00  0.00     0.016 A 
BRANCH   8  13
HETATM   13  O   UNL     1      41.691 -15.005  -0.782  1.00  0.00    -0.359 OA
HETATM   14  H   UNL     1      42.108 -14.357  -1.373  1.00  0.00     0.218 HD
ENDBRANCH   8  13
BRANCH   9  15
HETATM   15  C   UNL     1      40.300 -13.011  -2.447  1.00  0.00     0.067 C 
BRANCH  15  16
HETATM   16  C   UNL     1      40.198 -14.009  -3.567  1.00  0.00    -0.032 C 
HETATM   17  C   UNL     1      39.213 -14.910  -3.688  1.00  0.00     0.007 C 
ENDBRANCH  15  16
ENDBRANCH   9  15
ENDBRANCH   6   7
ENDBRANCH   1   5
BRANCH   2  18
HETATM   18  C   UNL     1      43.716 -19.217   2.649  1.00  0.00     0.061 A 
HETATM   19  C   UNL     1      44.021 -18.817   3.966  1.00  0.00     0.058 A 
HETATM   20  C   UNL     1      44.632 -19.653   4.901  1.00  0.00    -0.007 A 
HETATM   21  N   UNL     1      43.808 -17.606   4.596  1.00  0.00    -0.364 N 
HETATM   22  C   UNL     1      44.779 -18.907   6.104  1.00  0.00     0.030 A 
HETATM   23  C   UNL     1      44.964 -20.965   4.519  1.00  0.00     0.014 A 
HETATM   24  C   UNL     1      44.262 -17.650   5.885  1.00  0.00     0.089 A 
HETATM   25  C   UNL     1      44.672 -21.394   3.221  1.00  0.00     0.002 A 
HETATM   26  C   UNL     1      44.058 -20.537   2.303  1.00  0.00     0.019 A 
HETATM   27  H   UNL     1      43.371 -16.816   4.130  1.00  0.00     0.165 HD
ENDBRANCH   2  18
TORSDOF 6
ENDMDL
MODEL 8
REMARK VINA RESULT:      -7.5      1.413      2.259
REMARK  6 active torsions:
REMARK  status: ('A' for Active; 'I' for Inactive)
REMARK    1  A    between atoms: C_2  and  C_3 
REMARK    2  A    between atoms: C_3  and  C_4 
REMARK    3  A    between atoms: C_5  and  O_6 
REMARK    4  A    between atoms: C_7  and  C_8 
REMARK    5  A    between atoms: N_9  and  N_10 
REMARK       I    between atoms: N_10  and  C_11 
REMARK    6  A    between atoms: C_11  and  C_12 
ROOT
HETATM    1  N   UNL     1      43.151 -13.468   6.882  1.00  0.00    -0.243 N 
HETATM    2  C   UNL     1      43.876 -12.872   7.904  1.00  0.00     0.274 C 
HETATM    3  O   UNL     1      45.006 -13.224   8.244  1.00  0.00    -0.266 OA
HETATM    4  H   UNL     1      42.225 -13.162   6.625  1.00  0.00     0.192 HD
ENDROOT
BRANCH   1   5
HETATM    5  N   UNL     1      43.692 -14.525   6.208  1.00  0.00    -0.183 NA
HETATM    6  C   UNL     1      43.195 -15.688   6.488  1.00  0.00     0.153 C 
BRANCH   6   7
HETATM    7  C   UNL     1      43.694 -16.919   5.837  1.00  0.00     0.017 A 
HETATM    8  C   UNL     1      43.181 -17.323   4.595  1.00  0.00     0.084 A 
HETATM    9  C   UNL     1      43.661 -18.488   3.971  1.00  0.00    -0.021 A 
HETATM   10  C   UNL     1      44.642 -19.249   4.636  1.00  0.00     0.010 A 
HETATM   11  C   UNL     1      45.144 -18.852   5.876  1.00  0.00     0.002 A 
HETATM   12  C   UNL     1      44.675 -17.686   6.475  1.00  0.00     0.016 A 
BRANCH   8  13
HETATM   13  O   UNL     1      42.209 -16.553   4.012  1.00  0.00    -0.359 OA
HETATM   14  H   UNL     1      42.622 -15.961   3.363  1.00  0.00     0.218 HD
ENDBRANCH   8  13
BRANCH   9  15
HETATM   15  C   UNL     1      43.187 -18.955   2.612  1.00  0.00     0.067 C 
BRANCH  15  16
HETATM   16  C   UNL     1      43.985 -20.115   2.084  1.00  0.00    -0.032 C 
HETATM   17  C   UNL     1      43.475 -21.326   1.821  1.00  0.00     0.007 C 
ENDBRANCH  15  16
ENDBRANCH   9  15
ENDBRANCH   6   7
ENDBRANCH   1   5
BRANCH   2  18
HETATM   18  C   UNL     1      43.225 -11.736   8.633  1.00  0.00     0.061 A 
HETATM   19  C   UNL     1      43.306 -11.694  10.040  1.00  0.00     0.058 A 
HETATM   20  C   UNL     1      42.732 -10.686  10.813  1.00  0.00    -0.007 A 
HETATM   21  N   UNL     1      43.922 -12.566  10.917  1.00  0.00    -0.364 N 
HETATM   22  C   UNL     1      43.019 -10.981  12.175  1.00  0.00     0.030 A 
HETATM   23  C   UNL     1      42.032  -9.652  10.165  1.00  0.00     0.014 A 
HETATM   24  C   UNL     1      43.754 -12.145  12.208  1.00  0.00     0.089 A 
HETATM   25  C   UNL     1      41.936  -9.663   8.771  1.00  0.00     0.002 A 
HETATM   26  C   UNL     1      42.522 -10.685   8.018  1.00  0.00     0.019 A 
HETATM   27  H   UNL     1      44.421 -13.394  10.607  1.00  0.00     0.165 HD
ENDBRANCH   2  18
TORSDOF 6
ENDMDL
MODEL 9
REMARK VINA RESULT:      -7.4      1.488      8.825
REMARK  6 active torsions:
REMARK  status: ('A' for Active; 'I' for Inactive)
REMARK    1  A    between atoms: C_2  and  C_3 
REMARK    2  A    between atoms: C_3  and  C_4 
REMARK    3  A    between atoms: C_5  and  O_6 
REMARK    4  A    between atoms: C_7  and  C_8 
REMARK    5  A    between atoms: N_9  and  N_10 
REMARK       I    between atoms: N_10  and  C_11 
REMARK    6  A    between atoms: C_11  and  C_12 
ROOT
HETATM    1  N   UNL     1      44.089 -15.890   5.971  1.00  0.00    -0.243 N 
HETATM    2  C   UNL     1      43.226 -16.951   5.740  1.00  0.00     0.274 C 
HETATM    3  O   UNL     1      42.141 -17.094   6.307  1.00  0.00    -0.266 OA
HETATM    4  H   UNL     1      44.974 -15.798   5.495  1.00  0.00     0.192 HD
ENDROOT
BRANCH   1   5
HETATM    5  N   UNL     1      43.750 -14.941   6.892  1.00  0.00    -0.183 NA
HETATM    6  C   UNL     1      43.749 -13.717   6.468  1.00  0.00     0.153 C 
BRANCH   6   7
HETATM    7  C   UNL     1      43.410 -12.589   7.364  1.00  0.00     0.017 A 
HETATM    8  C   UNL     1      44.179 -12.337   8.509  1.00  0.00     0.084 A 
HETATM    9  C   UNL     1      43.864 -11.260   9.357  1.00  0.00    -0.021 A 
HETATM   10  C   UNL     1      42.744 -10.467   9.043  1.00  0.00     0.010 A 
HETATM   11  C   UNL     1      41.972 -10.725   7.910  1.00  0.00     0.002 A 
HETATM   12  C   UNL     1      42.306 -11.782   7.068  1.00  0.00     0.016 A 
BRANCH   8  13
HETATM   13  O   UNL     1      45.241 -13.162   8.773  1.00  0.00    -0.359 OA
HETATM   14  H   UNL     1      46.037 -12.798   8.352  1.00  0.00     0.218 HD
ENDBRANCH   8  13
BRANCH   9  15
HETATM   15  C   UNL     1      44.679 -10.903  10.580  1.00  0.00     0.067 C 
BRANCH  15  16
HETATM   16  C   UNL     1      43.871 -10.934  11.848  1.00  0.00    -0.032 C 
HETATM   17  C   UNL     1      43.531  -9.846  12.555  1.00  0.00     0.007 C 
ENDBRANCH  15  16
ENDBRANCH   9  15
ENDBRANCH   6   7
ENDBRANCH   1   5
BRANCH   2  18
HETATM   18  C   UNL     1      43.658 -17.981   4.742  1.00  0.00     0.061 A 
HETATM   19  C   UNL     1      43.572 -17.676   3.368  1.00  0.00     0.058 A 
HETATM   20  C   UNL     1      43.943 -18.564   2.359  1.00  0.00    -0.007 A 
HETATM   21  N   UNL     1      43.137 -16.523   2.743  1.00  0.00    -0.364 N 
HETATM   22  C   UNL     1      43.715 -17.910   1.115  1.00  0.00     0.030 A 
HETATM   23  C   UNL     1      44.430 -19.833   2.719  1.00  0.00     0.014 A 
HETATM   24  C   UNL     1      43.219 -16.654   1.384  1.00  0.00     0.089 A 
HETATM   25  C   UNL     1      44.531 -20.166   4.073  1.00  0.00     0.002 A 
HETATM   26  C   UNL     1      44.153 -19.258   5.067  1.00  0.00     0.019 A 
HETATM   27  H   UNL     1      42.809 -15.711   3.258  1.00  0.00     0.165 HD
ENDBRANCH   2  18
TORSDOF 6
ENDMDL
MODEL 10
REMARK VINA RESULT:      -7.4      5.621      7.960
REMARK  6 active torsions:
REMARK  status: ('A' for Active; 'I' for Inactive)
REMARK    1  A    between atoms: C_2  and  C_3 
REMARK    2  A    between atoms: C_3  and  C_4 
REMARK    3  A    between atoms: C_5  and  O_6 
REMARK    4  A    between atoms: C_7  and  C_8 
REMARK    5  A    between atoms: N_9  and  N_10 
REMARK       I    between atoms: N_10  and  C_11 
REMARK    6  A    between atoms: C_11  and  C_12 
ROOT
HETATM    1  N   UNL     1      40.540 -15.143   2.540  1.00  0.00    -0.243 N 
HETATM    2  C   UNL     1      40.524 -14.731   1.216  1.00  0.00     0.274 C 
HETATM    3  O   UNL     1      41.385 -15.033   0.389  1.00  0.00    -0.266 OA
HETATM    4  H   UNL     1      39.822 -14.879   3.199  1.00  0.00     0.192 HD
ENDROOT
BRANCH   1   5
HETATM    5  N   UNL     1      41.574 -15.915   2.987  1.00  0.00    -0.183 NA
HETATM    6  C   UNL     1      41.251 -16.894   3.771  1.00  0.00     0.153 C 
BRANCH   6   7
HETATM    7  C   UNL     1      42.273 -17.802   4.335  1.00  0.00     0.017 A 
HETATM    8  C   UNL     1      43.024 -18.635   3.493  1.00  0.00     0.084 A 
HETATM    9  C   UNL     1      44.003 -19.493   4.026  1.00  0.00    -0.021 A 
HETATM   10  C   UNL     1      44.185 -19.515   5.422  1.00  0.00     0.010 A 
HETATM   11  C   UNL     1      43.429 -18.695   6.260  1.00  0.00     0.002 A 
HETATM   12  C   UNL     1      42.477 -17.836   5.719  1.00  0.00     0.016 A 
BRANCH   8  13
HETATM   13  O   UNL     1      42.781 -18.586   2.145  1.00  0.00    -0.359 OA
HETATM   14  H   UNL     1      43.629 -18.585   1.671  1.00  0.00     0.218 HD
ENDBRANCH   8  13
BRANCH   9  15
HETATM   15  C   UNL     1      44.881 -20.380   3.172  1.00  0.00     0.067 C 
BRANCH  15  16
HETATM   16  C   UNL     1      44.144 -21.570   2.620  1.00  0.00    -0.032 C 
HETATM   17  C   UNL     1      44.154 -21.933   1.330  1.00  0.00     0.007 C 
ENDBRANCH  15  16
ENDBRANCH   9  15
ENDBRANCH   6   7
ENDBRANCH   1   5
BRANCH   2  18
HETATM   18  C   UNL     1      39.383 -13.861   0.784  1.00  0.00     0.061 A 
HETATM   19  C   UNL     1      38.996 -13.870  -0.572  1.00  0.00     0.058 A 
HETATM   20  C   UNL     1      37.953 -13.094  -1.078  1.00  0.00    -0.007 A 
HETATM   21  N   UNL     1      39.511 -14.586  -1.635  1.00  0.00    -0.364 N 
HETATM   22  C   UNL     1      37.861 -13.366  -2.472  1.00  0.00     0.030 A 
HETATM   23  C   UNL     1      37.244 -12.257  -0.199  1.00  0.00     0.014 A 
HETATM   24  C   UNL     1      38.834 -14.289  -2.786  1.00  0.00     0.089 A 
HETATM   25  C   UNL     1      37.601 -12.228   1.152  1.00  0.00     0.002 A 
HETATM   26  C   UNL     1      38.650 -13.015   1.636  1.00  0.00     0.019 A 
HETATM   27  H   UNL     1      40.286 -15.234  -1.535  1.00  0.00     0.165 HD
ENDBRANCH   2  18
TORSDOF 6
ENDMDL
