MODEL 1
REMARK VINA RESULT:      -9.6      0.000      0.000
REMARK  10 active torsions:
REMARK  status: ('A' for Active; 'I' for Inactive)
REMARK    1  A    between atoms: N_1  and  C_2 
REMARK    2  A    between atoms: C_2  and  C_3 
REMARK    3  A    between atoms: C_6  and  C_33 
REMARK    4  A    between atoms: C_8  and  C_9 
REMARK    5  A    between atoms: C_13  and  C_15 
REMARK       I    between atoms: C_15  and  N_17 
REMARK    6  A    between atoms: N_17  and  C_18 
REMARK    7  A    between atoms: C_22  and  C_23 
REMARK    8  A    between atoms: C_23  and  O_25 
REMARK    9  A    between atoms: O_25  and  C_26 
REMARK       I    between atoms: C_33  and  N_35 
REMARK   10  A    between atoms: N_35  and  C_36 
ROOT
HETATM    1  C   UNL     1      42.352 -13.198   5.258  1.00  0.00    -0.024 A 
HETATM    2  C   UNL     1      41.717 -12.288   6.120  1.00  0.00     0.012 A 
HETATM    3  C   UNL     1      41.019 -11.176   5.632  1.00  0.00     0.002 A 
HETATM    4  C   UNL     1      40.894 -10.971   4.260  1.00  0.00     0.017 A 
HETATM    5  C   UNL     1      41.482 -11.880   3.379  1.00  0.00     0.033 A 
HETATM    6  C   UNL     1      42.220 -12.965   3.876  1.00  0.00     0.029 A 
ENDROOT
BRANCH   1   7
HETATM    7  C   UNL     1      43.066 -14.402   5.755  1.00  0.00    -0.017 A 
HETATM    8  C   UNL     1      44.058 -14.383   6.768  1.00  0.00    -0.020 A 
HETATM    9  C   UNL     1      44.676 -15.592   7.159  1.00  0.00     0.011 A 
HETATM   10  C   UNL     1      44.366 -16.801   6.538  1.00  0.00     0.017 A 
HETATM   11  C   UNL     1      43.411 -16.837   5.526  1.00  0.00     0.033 A 
HETATM   12  C   UNL     1      42.765 -15.650   5.153  1.00  0.00     0.030 A 
BRANCH   8  13
HETATM   13  C   UNL     1      44.537 -13.123   7.457  1.00  0.00     0.306 C 
BRANCH  13  14
HETATM   14  N   UNL     1      44.202 -13.127   8.877  1.00  0.00     0.082 N 
HETATM   15  H   UNL     1      44.272 -14.079   9.231  1.00  0.00     0.313 HD
HETATM   16  H   UNL     1      43.227 -12.854   8.992  1.00  0.00     0.313 HD
ENDBRANCH  13  14
ENDBRANCH   8  13
BRANCH  11  17
HETATM   17  C   UNL     1      43.187 -18.126   4.806  1.00  0.00     0.256 C 
HETATM   18  O   UNL     1      42.032 -18.481   4.595  1.00  0.00    -0.267 OA
HETATM   19  N   UNL     1      44.323 -18.813   4.425  1.00  0.00    -0.320 N 
HETATM   20  H   UNL     1      45.216 -18.333   4.478  1.00  0.00     0.169 HD
BRANCH  19  21
HETATM   21  C   UNL     1      44.386 -20.124   3.897  1.00  0.00     0.076 A 
HETATM   22  C   UNL     1      44.688 -21.257   4.650  1.00  0.00     0.052 A 
HETATM   23  C   UNL     1      44.749 -22.486   4.003  1.00  0.00     0.118 A 
HETATM   24  N   UNL     1      44.532 -22.658   2.680  1.00  0.00    -0.270 NA
HETATM   25  C   UNL     1      44.244 -21.544   1.970  1.00  0.00     0.160 A 
HETATM   26  C   UNL     1      44.165 -20.281   2.529  1.00  0.00     0.160 A 
HETATM   27  F   UNL     1      43.881 -19.218   1.761  1.00  0.00    -0.202 F 
ENDBRANCH  19  21
ENDBRANCH  11  17
ENDBRANCH   1   7
BRANCH   5  28
HETATM   28  C   UNL     1      41.229 -11.819   1.917  1.00  0.00     0.256 C 
HETATM   29  O   UNL     1      40.466 -10.950   1.506  1.00  0.00    -0.267 OA
HETATM   30  N   UNL     1      41.868 -12.773   1.150  1.00  0.00    -0.320 N 
HETATM   31  H   UNL     1      42.252 -13.585   1.624  1.00  0.00     0.169 HD
BRANCH  30  32
HETATM   32  C   UNL     1      41.892 -12.819  -0.266  1.00  0.00     0.075 A 
HETATM   33  C   UNL     1      42.663 -11.948  -1.043  1.00  0.00     0.033 A 
HETATM   34  C   UNL     1      42.652 -12.041  -2.436  1.00  0.00     0.003 A 
HETATM   35  C   UNL     1      41.863 -13.002  -3.064  1.00  0.00     0.021 A 
HETATM   36  C   UNL     1      41.093 -13.891  -2.301  1.00  0.00     0.080 A 
HETATM   37  C   UNL     1      41.121 -13.800  -0.907  1.00  0.00     0.159 A 
HETATM   38  F   UNL     1      40.376 -14.616  -0.142  1.00  0.00    -0.203 F 
BRANCH  36  39
HETATM   39  C   UNL     1      40.245 -14.855  -3.033  1.00  0.00     0.296 C 
HETATM   40  O   UNL     1      40.712 -15.706  -3.776  1.00  0.00    -0.259 OA
BRANCH  39  41
HETATM   41  O   UNL     1      38.936 -14.700  -2.728  1.00  0.00    -0.312 OA
BRANCH  41  42
HETATM   42  C   UNL     1      38.147 -14.082  -3.748  1.00  0.00     0.132 C 
HETATM   43  C   UNL     1      36.830 -14.811  -3.986  1.00  0.00     0.032 C 
HETATM   44  C   UNL     1      35.977 -13.750  -4.659  1.00  0.00     0.002 C 
HETATM   45  C   UNL     1      36.334 -12.459  -3.929  1.00  0.00     0.002 C 
HETATM   46  C   UNL     1      37.703 -12.693  -3.292  1.00  0.00     0.032 C 
ENDBRANCH  41  42
ENDBRANCH  39  41
ENDBRANCH  36  39
ENDBRANCH  30  32
ENDBRANCH   5  28
TORSDOF 10
ENDMDL
MODEL 2
REMARK VINA RESULT:      -9.5      5.743     10.123
REMARK  10 active torsions:
REMARK  status: ('A' for Active; 'I' for Inactive)
REMARK    1  A    between atoms: N_1  and  C_2 
REMARK    2  A    between atoms: C_2  and  C_3 
REMARK    3  A    between atoms: C_6  and  C_33 
REMARK    4  A    between atoms: C_8  and  C_9 
REMARK    5  A    between atoms: C_13  and  C_15 
REMARK       I    between atoms: C_15  and  N_17 
REMARK    6  A    between atoms: N_17  and  C_18 
REMARK    7  A    between atoms: C_22  and  C_23 
REMARK    8  A    between atoms: C_23  and  O_25 
REMARK    9  A    between atoms: O_25  and  C_26 
REMARK       I    between atoms: C_33  and  N_35 
REMARK   10  A    between atoms: N_35  and  C_36 
ROOT
HETATM    1  C   UNL     1      43.669 -11.117   9.999  1.00  0.00    -0.024 A 
HETATM    2  C   UNL     1      44.868 -10.537  10.444  1.00  0.00     0.012 A 
HETATM    3  C   UNL     1      46.112 -10.943   9.945  1.00  0.00     0.002 A 
HETATM    4  C   UNL     1      46.187 -11.911   8.945  1.00  0.00     0.017 A 
HETATM    5  C   UNL     1      45.009 -12.478   8.457  1.00  0.00     0.033 A 
HETATM    6  C   UNL     1      43.770 -12.099   8.996  1.00  0.00     0.029 A 
ENDROOT
BRANCH   1   7
HETATM    7  C   UNL     1      42.338 -10.675  10.491  1.00  0.00    -0.017 A 
HETATM    8  C   UNL     1      41.950 -10.670  11.854  1.00  0.00    -0.020 A 
HETATM    9  C   UNL     1      40.654 -10.231  12.206  1.00  0.00     0.011 A 
HETATM   10  C   UNL     1      39.728  -9.847  11.238  1.00  0.00     0.017 A 
HETATM   11  C   UNL     1      40.082  -9.866   9.892  1.00  0.00     0.033 A 
HETATM   12  C   UNL     1      41.378 -10.266   9.532  1.00  0.00     0.030 A 
BRANCH   8  13
HETATM   13  C   UNL     1      42.837 -11.142  12.987  1.00  0.00     0.306 C 
BRANCH  13  14
HETATM   14  N   UNL     1      42.471 -10.515  14.252  1.00  0.00     0.082 N 
HETATM   15  H   UNL     1      41.536 -10.821  14.515  1.00  0.00     0.313 HD
HETATM   16  H   UNL     1      42.411  -9.506  14.122  1.00  0.00     0.313 HD
ENDBRANCH  13  14
ENDBRANCH   8  13
BRANCH  11  17
HETATM   17  C   UNL     1      39.032  -9.558   8.875  1.00  0.00     0.256 C 
HETATM   18  O   UNL     1      37.903 -10.002   9.054  1.00  0.00    -0.267 OA
HETATM   19  N   UNL     1      39.432  -8.776   7.809  1.00  0.00    -0.320 N 
HETATM   20  H   UNL     1      40.330  -8.308   7.866  1.00  0.00     0.169 HD
BRANCH  19  21
HETATM   21  C   UNL     1      38.690  -8.496   6.637  1.00  0.00     0.076 A 
HETATM   22  C   UNL     1      37.706  -7.514   6.550  1.00  0.00     0.052 A 
HETATM   23  C   UNL     1      37.027  -7.361   5.347  1.00  0.00     0.118 A 
HETATM   24  N   UNL     1      37.260  -8.108   4.244  1.00  0.00    -0.270 NA
HETATM   25  C   UNL     1      38.217  -9.056   4.354  1.00  0.00     0.160 A 
HETATM   26  C   UNL     1      38.941  -9.280   5.512  1.00  0.00     0.160 A 
HETATM   27  F   UNL     1      39.871 -10.246   5.551  1.00  0.00    -0.202 F 
ENDBRANCH  19  21
ENDBRANCH  11  17
ENDBRANCH   1   7
BRANCH   5  28
HETATM   28  C   UNL     1      45.011 -13.373   7.271  1.00  0.00     0.256 C 
HETATM   29  O   UNL     1      46.038 -13.429   6.602  1.00  0.00    -0.267 OA
HETATM   30  N   UNL     1      43.833 -14.047   7.017  1.00  0.00    -0.320 N 
HETATM   31  H   UNL     1      42.989 -13.718   7.476  1.00  0.00     0.169 HD
BRANCH  30  32
HETATM   32  C   UNL     1      43.649 -15.054   6.039  1.00  0.00     0.075 A 
HETATM   33  C   UNL     1      43.185 -14.787   4.747  1.00  0.00     0.033 A 
HETATM   34  C   UNL     1      43.026 -15.820   3.821  1.00  0.00     0.003 A 
HETATM   35  C   UNL     1      43.324 -17.132   4.183  1.00  0.00     0.021 A 
HETATM   36  C   UNL     1      43.800 -17.418   5.470  1.00  0.00     0.080 A 
HETATM   37  C   UNL     1      43.970 -16.376   6.386  1.00  0.00     0.159 A 
HETATM   38  F   UNL     1      44.399 -16.613   7.637  1.00  0.00    -0.203 F 
BRANCH  36  39
HETATM   39  C   UNL     1      44.053 -18.836   5.800  1.00  0.00     0.296 C 
HETATM   40  O   UNL     1      43.552 -19.381   6.772  1.00  0.00    -0.259 OA
BRANCH  39  41
HETATM   41  O   UNL     1      44.842 -19.431   4.875  1.00  0.00    -0.312 OA
BRANCH  41  42
HETATM   42  C   UNL     1      44.235 -20.519   4.174  1.00  0.00     0.132 C 
HETATM   43  C   UNL     1      44.549 -20.497   2.683  1.00  0.00     0.032 C 
HETATM   44  C   UNL     1      44.287 -21.933   2.265  1.00  0.00     0.002 C 
HETATM   45  C   UNL     1      44.818 -22.768   3.425  1.00  0.00     0.002 C 
HETATM   46  C   UNL     1      44.842 -21.841   4.642  1.00  0.00     0.032 C 
ENDBRANCH  41  42
ENDBRANCH  39  41
ENDBRANCH  36  39
ENDBRANCH  30  32
ENDBRANCH   5  28
TORSDOF 10
ENDMDL
MODEL 3
REMARK VINA RESULT:      -9.3      4.869     10.006
REMARK  10 active torsions:
REMARK  status: ('A' for Active; 'I' for Inactive)
REMARK    1  A    between atoms: N_1  and  C_2 
REMARK    2  A    between atoms: C_2  and  C_3 
REMARK    3  A    between atoms: C_6  and  C_33 
REMARK    4  A    between atoms: C_8  and  C_9 
REMARK    5  A    between atoms: C_13  and  C_15 
REMARK       I    between atoms: C_15  and  N_17 
REMARK    6  A    between atoms: N_17  and  C_18 
REMARK    7  A    between atoms: C_22  and  C_23 
REMARK    8  A    between atoms: C_23  and  O_25 
REMARK    9  A    between atoms: O_25  and  C_26 
REMARK       I    between atoms: C_33  and  N_35 
REMARK   10  A    between atoms: N_35  and  C_36 
ROOT
HETATM    1  C   UNL     1      40.258 -12.371   4.146  1.00  0.00    -0.024 A 
HETATM    2  C   UNL     1      41.016 -11.292   3.662  1.00  0.00     0.012 A 
HETATM    3  C   UNL     1      41.156 -10.105   4.392  1.00  0.00     0.002 A 
HETATM    4  C   UNL     1      40.579  -9.983   5.654  1.00  0.00     0.017 A 
HETATM    5  C   UNL     1      39.852 -11.053   6.177  1.00  0.00     0.033 A 
HETATM    6  C   UNL     1      39.677 -12.222   5.420  1.00  0.00     0.029 A 
ENDROOT
BRANCH   1   7
HETATM    7  C   UNL     1      40.128 -13.652   3.404  1.00  0.00    -0.017 A 
HETATM    8  C   UNL     1      39.298 -13.837   2.269  1.00  0.00    -0.020 A 
HETATM    9  C   UNL     1      39.249 -15.104   1.644  1.00  0.00     0.011 A 
HETATM   10  C   UNL     1      39.964 -16.190   2.145  1.00  0.00     0.017 A 
HETATM   11  C   UNL     1      40.767 -16.034   3.271  1.00  0.00     0.033 A 
HETATM   12  C   UNL     1      40.852 -14.773   3.880  1.00  0.00     0.030 A 
BRANCH   8  13
HETATM   13  C   UNL     1      38.413 -12.758   1.683  1.00  0.00     0.306 C 
BRANCH  13  14
HETATM   14  N   UNL     1      37.248 -13.324   1.013  1.00  0.00     0.082 N 
HETATM   15  H   UNL     1      37.538 -14.140   0.478  1.00  0.00     0.313 HD
HETATM   16  H   UNL     1      36.893 -12.653   0.334  1.00  0.00     0.313 HD
ENDBRANCH  13  14
ENDBRANCH   8  13
BRANCH  11  17
HETATM   17  C   UNL     1      41.427 -17.243   3.848  1.00  0.00     0.256 C 
HETATM   18  O   UNL     1      40.920 -17.768   4.833  1.00  0.00    -0.267 OA
HETATM   19  N   UNL     1      42.568 -17.677   3.200  1.00  0.00    -0.320 N 
HETATM   20  H   UNL     1      42.782 -17.286   2.289  1.00  0.00     0.169 HD
BRANCH  19  21
HETATM   21  C   UNL     1      43.468 -18.674   3.644  1.00  0.00     0.076 A 
HETATM   22  C   UNL     1      44.131 -18.642   4.869  1.00  0.00     0.052 A 
HETATM   23  C   UNL     1      45.015 -19.670   5.172  1.00  0.00     0.118 A 
HETATM   24  N   UNL     1      45.280 -20.710   4.349  1.00  0.00    -0.270 NA
HETATM   25  C   UNL     1      44.628 -20.719   3.165  1.00  0.00     0.160 A 
HETATM   26  C   UNL     1      43.732 -19.736   2.780  1.00  0.00     0.160 A 
HETATM   27  F   UNL     1      43.127 -19.805   1.584  1.00  0.00    -0.202 F 
ENDBRANCH  19  21
ENDBRANCH  11  17
ENDBRANCH   1   7
BRANCH   5  28
HETATM   28  C   UNL     1      39.373 -11.054   7.583  1.00  0.00     0.256 C 
HETATM   29  O   UNL     1      38.841 -12.076   8.004  1.00  0.00    -0.267 OA
HETATM   30  N   UNL     1      39.552  -9.878   8.285  1.00  0.00    -0.320 N 
HETATM   31  H   UNL     1      39.756  -9.035   7.757  1.00  0.00     0.169 HD
BRANCH  30  32
HETATM   32  C   UNL     1      39.310  -9.694   9.669  1.00  0.00     0.075 A 
HETATM   33  C   UNL     1      38.353  -8.803  10.163  1.00  0.00     0.033 A 
HETATM   34  C   UNL     1      38.154  -8.664  11.538  1.00  0.00     0.003 A 
HETATM   35  C   UNL     1      38.916  -9.414  12.431  1.00  0.00     0.021 A 
HETATM   36  C   UNL     1      39.872 -10.321  11.954  1.00  0.00     0.080 A 
HETATM   37  C   UNL     1      40.055 -10.463  10.576  1.00  0.00     0.159 A 
HETATM   38  F   UNL     1      40.980 -11.302  10.081  1.00  0.00    -0.203 F 
BRANCH  36  39
HETATM   39  C   UNL     1      40.676 -11.049  12.957  1.00  0.00     0.296 C 
HETATM   40  O   UNL     1      40.503 -12.234  13.201  1.00  0.00    -0.259 OA
BRANCH  39  41
HETATM   41  O   UNL     1      41.631 -10.259  13.502  1.00  0.00    -0.312 OA
BRANCH  41  42
HETATM   42  C   UNL     1      42.951 -10.472  12.997  1.00  0.00     0.132 C 
HETATM   43  C   UNL     1      43.104 -11.832  12.326  1.00  0.00     0.032 C 
HETATM   44  C   UNL     1      44.324 -11.635  11.444  1.00  0.00     0.002 C 
HETATM   45  C   UNL     1      44.172 -10.219  10.899  1.00  0.00     0.002 C 
HETATM   46  C   UNL     1      43.240  -9.487  11.865  1.00  0.00     0.032 C 
ENDBRANCH  41  42
ENDBRANCH  39  41
ENDBRANCH  36  39
ENDBRANCH  30  32
ENDBRANCH   5  28
TORSDOF 10
ENDMDL
MODEL 4
REMARK VINA RESULT:      -9.2      3.100     10.340
REMARK  10 active torsions:
REMARK  status: ('A' for Active; 'I' for Inactive)
REMARK    1  A    between atoms: N_1  and  C_2 
REMARK    2  A    between atoms: C_2  and  C_3 
REMARK    3  A    between atoms: C_6  and  C_33 
REMARK    4  A    between atoms: C_8  and  C_9 
REMARK    5  A    between atoms: C_13  and  C_15 
REMARK       I    between atoms: C_15  and  N_17 
REMARK    6  A    between atoms: N_17  and  C_18 
REMARK    7  A    between atoms: C_22  and  C_23 
REMARK    8  A    between atoms: C_23  and  O_25 
REMARK    9  A    between atoms: O_25  and  C_26 
REMARK       I    between atoms: C_33  and  N_35 
REMARK   10  A    between atoms: N_35  and  C_36 
ROOT
HETATM    1  C   UNL     1      39.133 -13.306   0.785  1.00  0.00    -0.024 A 
HETATM    2  C   UNL     1      38.501 -12.063   0.951  1.00  0.00     0.012 A 
HETATM    3  C   UNL     1      38.370 -11.466   2.211  1.00  0.00     0.002 A 
HETATM    4  C   UNL     1      38.915 -12.075   3.338  1.00  0.00     0.017 A 
HETATM    5  C   UNL     1      39.583 -13.293   3.198  1.00  0.00     0.033 A 
HETATM    6  C   UNL     1      39.669 -13.907   1.939  1.00  0.00     0.029 A 
ENDROOT
BRANCH   1   7
HETATM    7  C   UNL     1      39.314 -13.938  -0.548  1.00  0.00    -0.017 A 
HETATM    8  C   UNL     1      40.487 -14.619  -0.958  1.00  0.00    -0.020 A 
HETATM    9  C   UNL     1      40.549 -15.178  -2.254  1.00  0.00     0.011 A 
HETATM   10  C   UNL     1      39.498 -15.037  -3.158  1.00  0.00     0.017 A 
HETATM   11  C   UNL     1      38.346 -14.353  -2.782  1.00  0.00     0.033 A 
HETATM   12  C   UNL     1      38.257 -13.823  -1.486  1.00  0.00     0.030 A 
BRANCH   8  13
HETATM   13  C   UNL     1      41.724 -14.765  -0.097  1.00  0.00     0.306 C 
BRANCH  13  14
HETATM   14  N   UNL     1      42.096 -16.166   0.075  1.00  0.00     0.082 N 
HETATM   15  H   UNL     1      43.108 -16.231   0.162  1.00  0.00     0.313 HD
HETATM   16  H   UNL     1      41.851 -16.683  -0.768  1.00  0.00     0.313 HD
ENDBRANCH  13  14
ENDBRANCH   8  13
BRANCH  11  17
HETATM   17  C   UNL     1      37.288 -14.122  -3.811  1.00  0.00     0.256 C 
HETATM   18  O   UNL     1      37.068 -15.010  -4.628  1.00  0.00    -0.267 OA
HETATM   19  N   UNL     1      36.631 -12.908  -3.742  1.00  0.00    -0.320 N 
HETATM   20  H   UNL     1      36.759 -12.338  -2.913  1.00  0.00     0.169 HD
BRANCH  19  21
HETATM   21  C   UNL     1      35.729 -12.377  -4.694  1.00  0.00     0.076 A 
HETATM   22  C   UNL     1      34.393 -12.759  -4.805  1.00  0.00     0.052 A 
HETATM   23  C   UNL     1      33.620 -12.183  -5.805  1.00  0.00     0.118 A 
HETATM   24  N   UNL     1      34.080 -11.267  -6.688  1.00  0.00    -0.270 NA
HETATM   25  C   UNL     1      35.379 -10.915  -6.563  1.00  0.00     0.160 A 
HETATM   26  C   UNL     1      36.223 -11.438  -5.599  1.00  0.00     0.160 A 
HETATM   27  F   UNL     1      37.505 -11.048  -5.539  1.00  0.00    -0.202 F 
ENDBRANCH  19  21
ENDBRANCH  11  17
ENDBRANCH   1   7
BRANCH   5  28
HETATM   28  C   UNL     1      40.341 -13.897   4.323  1.00  0.00     0.256 C 
HETATM   29  O   UNL     1      39.700 -14.316   5.283  1.00  0.00    -0.267 OA
HETATM   30  N   UNL     1      41.715 -13.908   4.193  1.00  0.00    -0.320 N 
HETATM   31  H   UNL     1      42.131 -13.303   3.491  1.00  0.00     0.169 HD
BRANCH  30  32
HETATM   32  C   UNL     1      42.625 -14.557   5.063  1.00  0.00     0.075 A 
HETATM   33  C   UNL     1      43.391 -13.873   6.013  1.00  0.00     0.033 A 
HETATM   34  C   UNL     1      44.271 -14.565   6.848  1.00  0.00     0.003 A 
HETATM   35  C   UNL     1      44.396 -15.948   6.735  1.00  0.00     0.021 A 
HETATM   36  C   UNL     1      43.629 -16.652   5.796  1.00  0.00     0.080 A 
HETATM   37  C   UNL     1      42.741 -15.953   4.974  1.00  0.00     0.159 A 
HETATM   38  F   UNL     1      42.008 -16.588   4.044  1.00  0.00    -0.203 F 
BRANCH  36  39
HETATM   39  C   UNL     1      43.845 -18.110   5.699  1.00  0.00     0.296 C 
HETATM   40  O   UNL     1      43.477 -18.887   6.568  1.00  0.00    -0.259 OA
BRANCH  39  41
HETATM   41  O   UNL     1      44.435 -18.451   4.529  1.00  0.00    -0.312 OA
BRANCH  41  42
HETATM   42  C   UNL     1      43.821 -19.542   3.839  1.00  0.00     0.132 C 
HETATM   43  C   UNL     1      43.605 -19.246   2.359  1.00  0.00     0.032 C 
HETATM   44  C   UNL     1      43.466 -20.634   1.758  1.00  0.00     0.002 C 
HETATM   45  C   UNL     1      44.491 -21.476   2.509  1.00  0.00     0.002 C 
HETATM   46  C   UNL     1      44.766 -20.743   3.823  1.00  0.00     0.032 C 
ENDBRANCH  41  42
ENDBRANCH  39  41
ENDBRANCH  36  39
ENDBRANCH  30  32
ENDBRANCH   5  28
TORSDOF 10
ENDMDL
MODEL 5
REMARK VINA RESULT:      -9.2      4.174      8.595
REMARK  10 active torsions:
REMARK  status: ('A' for Active; 'I' for Inactive)
REMARK    1  A    between atoms: N_1  and  C_2 
REMARK    2  A    between atoms: C_2  and  C_3 
REMARK    3  A    between atoms: C_6  and  C_33 
REMARK    4  A    between atoms: C_8  and  C_9 
REMARK    5  A    between atoms: C_13  and  C_15 
REMARK       I    between atoms: C_15  and  N_17 
REMARK    6  A    between atoms: N_17  and  C_18 
REMARK    7  A    between atoms: C_22  and  C_23 
REMARK    8  A    between atoms: C_23  and  O_25 
REMARK    9  A    between atoms: O_25  and  C_26 
REMARK       I    between atoms: C_33  and  N_35 
REMARK   10  A    between atoms: N_35  and  C_36 
ROOT
HETATM    1  C   UNL     1      43.250 -11.016   9.415  1.00  0.00    -0.024 A 
HETATM    2  C   UNL     1      44.366 -10.482  10.081  1.00  0.00     0.012 A 
HETATM    3  C   UNL     1      45.639 -11.054   9.958  1.00  0.00     0.002 A 
HETATM    4  C   UNL     1      45.840 -12.150   9.122  1.00  0.00     0.017 A 
HETATM    5  C   UNL     1      44.756 -12.677   8.418  1.00  0.00     0.033 A 
HETATM    6  C   UNL     1      43.476 -12.128   8.583  1.00  0.00     0.029 A 
ENDROOT
BRANCH   1   7
HETATM    7  C   UNL     1      41.899 -10.402   9.504  1.00  0.00    -0.017 A 
HETATM    8  C   UNL     1      41.192 -10.198  10.716  1.00  0.00    -0.020 A 
HETATM    9  C   UNL     1      39.908  -9.609  10.680  1.00  0.00     0.011 A 
HETATM   10  C   UNL     1      39.299  -9.264   9.475  1.00  0.00     0.017 A 
HETATM   11  C   UNL     1      39.968  -9.477   8.273  1.00  0.00     0.033 A 
HETATM   12  C   UNL     1      41.257 -10.029   8.297  1.00  0.00     0.030 A 
BRANCH   8  13
HETATM   13  C   UNL     1      41.713 -10.606  12.078  1.00  0.00     0.306 C 
BRANCH  13  14
HETATM   14  N   UNL     1      41.064 -11.820  12.559  1.00  0.00     0.082 N 
HETATM   15  H   UNL     1      41.554 -12.629  12.183  1.00  0.00     0.313 HD
HETATM   16  H   UNL     1      40.117 -11.865  12.186  1.00  0.00     0.313 HD
ENDBRANCH  13  14
ENDBRANCH   8  13
BRANCH  11  17
HETATM   17  C   UNL     1      39.242  -9.203   6.997  1.00  0.00     0.256 C 
HETATM   18  O   UNL     1      38.156  -8.637   7.056  1.00  0.00    -0.267 OA
HETATM   19  N   UNL     1      39.876  -9.612   5.840  1.00  0.00    -0.320 N 
HETATM   20  H   UNL     1      40.851  -9.890   5.897  1.00  0.00     0.169 HD
BRANCH  19  21
HETATM   21  C   UNL     1      39.330  -9.633   4.535  1.00  0.00     0.076 A 
HETATM   22  C   UNL     1      39.353  -8.550   3.658  1.00  0.00     0.052 A 
HETATM   23  C   UNL     1      38.751  -8.692   2.414  1.00  0.00     0.118 A 
HETATM   24  N   UNL     1      38.138  -9.821   1.991  1.00  0.00    -0.270 NA
HETATM   25  C   UNL     1      38.126 -10.857   2.859  1.00  0.00     0.160 A 
HETATM   26  C   UNL     1      38.698 -10.804   4.119  1.00  0.00     0.160 A 
HETATM   27  F   UNL     1      38.640 -11.870   4.932  1.00  0.00    -0.202 F 
ENDBRANCH  19  21
ENDBRANCH  11  17
ENDBRANCH   1   7
BRANCH   5  28
HETATM   28  C   UNL     1      44.941 -13.720   7.376  1.00  0.00     0.256 C 
HETATM   29  O   UNL     1      45.892 -13.600   6.611  1.00  0.00    -0.267 OA
HETATM   30  N   UNL     1      43.996 -14.727   7.352  1.00  0.00    -0.320 N 
HETATM   31  H   UNL     1      43.125 -14.575   7.852  1.00  0.00     0.169 HD
BRANCH  30  32
HETATM   32  C   UNL     1      44.050 -15.894   6.551  1.00  0.00     0.075 A 
HETATM   33  C   UNL     1      44.538 -17.118   7.020  1.00  0.00     0.033 A 
HETATM   34  C   UNL     1      44.564 -18.239   6.187  1.00  0.00     0.003 A 
HETATM   35  C   UNL     1      44.107 -18.141   4.874  1.00  0.00     0.021 A 
HETATM   36  C   UNL     1      43.603 -16.926   4.391  1.00  0.00     0.080 A 
HETATM   37  C   UNL     1      43.568 -15.813   5.236  1.00  0.00     0.159 A 
HETATM   38  F   UNL     1      43.118 -14.624   4.801  1.00  0.00    -0.203 F 
BRANCH  36  39
HETATM   39  C   UNL     1      43.178 -16.882   2.976  1.00  0.00     0.296 C 
HETATM   40  O   UNL     1      43.970 -16.967   2.050  1.00  0.00    -0.259 OA
BRANCH  39  41
HETATM   41  O   UNL     1      41.832 -16.796   2.862  1.00  0.00    -0.312 OA
BRANCH  41  42
HETATM   42  C   UNL     1      41.352 -15.579   2.286  1.00  0.00     0.132 C 
HETATM   43  C   UNL     1      40.712 -15.796   0.919  1.00  0.00     0.032 C 
HETATM   44  C   UNL     1      39.845 -14.560   0.756  1.00  0.00     0.002 C 
HETATM   45  C   UNL     1      39.268 -14.316   2.146  1.00  0.00     0.002 C 
HETATM   46  C   UNL     1      40.203 -15.023   3.127  1.00  0.00     0.032 C 
ENDBRANCH  41  42
ENDBRANCH  39  41
ENDBRANCH  36  39
ENDBRANCH  30  32
ENDBRANCH   5  28
TORSDOF 10
ENDMDL
MODEL 6
REMARK VINA RESULT:      -9.1      3.021      6.866
REMARK  10 active torsions:
REMARK  status: ('A' for Active; 'I' for Inactive)
REMARK    1  A    between atoms: N_1  and  C_2 
REMARK    2  A    between atoms: C_2  and  C_3 
REMARK    3  A    between atoms: C_6  and  C_33 
REMARK    4  A    between atoms: C_8  and  C_9 
REMARK    5  A    between atoms: C_13  and  C_15 
REMARK       I    between atoms: C_15  and  N_17 
REMARK    6  A    between atoms: N_17  and  C_18 
REMARK    7  A    between atoms: C_22  and  C_23 
REMARK    8  A    between atoms: C_23  and  O_25 
REMARK    9  A    between atoms: O_25  and  C_26 
REMARK       I    between atoms: C_33  and  N_35 
REMARK   10  A    between atoms: N_35  and  C_36 
ROOT
HETATM    1  C   UNL     1      43.424 -18.308   4.041  1.00  0.00    -0.024 A 
HETATM    2  C   UNL     1      44.249 -19.271   3.436  1.00  0.00     0.012 A 
HETATM    3  C   UNL     1      44.081 -19.649   2.097  1.00  0.00     0.002 A 
HETATM    4  C   UNL     1      43.110 -19.034   1.310  1.00  0.00     0.017 A 
HETATM    5  C   UNL     1      42.300 -18.047   1.874  1.00  0.00     0.033 A 
HETATM    6  C   UNL     1      42.444 -17.708   3.228  1.00  0.00     0.029 A 
ENDROOT
BRANCH   1   7
HETATM    7  C   UNL     1      43.610 -17.869   5.448  1.00  0.00    -0.017 A 
HETATM    8  C   UNL     1      43.587 -18.739   6.567  1.00  0.00    -0.020 A 
HETATM    9  C   UNL     1      43.771 -18.208   7.864  1.00  0.00     0.011 A 
HETATM   10  C   UNL     1      43.929 -16.839   8.073  1.00  0.00     0.017 A 
HETATM   11  C   UNL     1      43.931 -15.966   6.989  1.00  0.00     0.033 A 
HETATM   12  C   UNL     1      43.785 -16.484   5.694  1.00  0.00     0.030 A 
BRANCH   8  13
HETATM   13  C   UNL     1      43.342 -20.230   6.474  1.00  0.00     0.306 C 
BRANCH  13  14
HETATM   14  N   UNL     1      43.482 -20.879   7.773  1.00  0.00     0.082 N 
HETATM   15  H   UNL     1      43.786 -20.189   8.457  1.00  0.00     0.313 HD
HETATM   16  H   UNL     1      44.225 -21.574   7.723  1.00  0.00     0.313 HD
ENDBRANCH  13  14
ENDBRANCH   8  13
BRANCH  11  17
HETATM   17  C   UNL     1      43.987 -14.498   7.258  1.00  0.00     0.256 C 
HETATM   18  O   UNL     1      43.651 -13.730   6.363  1.00  0.00    -0.267 OA
HETATM   19  N   UNL     1      44.413 -14.129   8.520  1.00  0.00    -0.320 N 
HETATM   20  H   UNL     1      44.477 -14.846   9.235  1.00  0.00     0.169 HD
BRANCH  19  21
HETATM   21  C   UNL     1      44.722 -12.821   8.962  1.00  0.00     0.076 A 
HETATM   22  C   UNL     1      43.889 -12.050   9.769  1.00  0.00     0.052 A 
HETATM   23  C   UNL     1      44.297 -10.765  10.107  1.00  0.00     0.118 A 
HETATM   24  N   UNL     1      45.460 -10.207   9.702  1.00  0.00    -0.270 NA
HETATM   25  C   UNL     1      46.251 -10.973   8.917  1.00  0.00     0.160 A 
HETATM   26  C   UNL     1      45.923 -12.261   8.529  1.00  0.00     0.160 A 
HETATM   27  F   UNL     1      46.754 -12.960   7.741  1.00  0.00    -0.202 F 
ENDBRANCH  19  21
ENDBRANCH  11  17
ENDBRANCH   1   7
BRANCH   5  28
HETATM   28  C   UNL     1      41.379 -17.230   1.043  1.00  0.00     0.256 C 
HETATM   29  O   UNL     1      40.192 -17.216   1.354  1.00  0.00    -0.267 OA
HETATM   30  N   UNL     1      41.950 -16.574  -0.030  1.00  0.00    -0.320 N 
HETATM   31  H   UNL     1      42.872 -16.873  -0.334  1.00  0.00     0.169 HD
BRANCH  30  32
HETATM   32  C   UNL     1      41.302 -15.631  -0.865  1.00  0.00     0.075 A 
HETATM   33  C   UNL     1      40.966 -15.897  -2.196  1.00  0.00     0.033 A 
HETATM   34  C   UNL     1      40.324 -14.930  -2.973  1.00  0.00     0.003 A 
HETATM   35  C   UNL     1      40.018 -13.686  -2.425  1.00  0.00     0.021 A 
HETATM   36  C   UNL     1      40.337 -13.406  -1.089  1.00  0.00     0.080 A 
HETATM   37  C   UNL     1      40.968 -14.384  -0.315  1.00  0.00     0.159 A 
HETATM   38  F   UNL     1      41.313 -14.144   0.961  1.00  0.00    -0.203 F 
BRANCH  36  39
HETATM   39  C   UNL     1      40.025 -12.052  -0.587  1.00  0.00     0.296 C 
HETATM   40  O   UNL     1      38.881 -11.635  -0.492  1.00  0.00    -0.259 OA
BRANCH  39  41
HETATM   41  O   UNL     1      41.144 -11.390  -0.208  1.00  0.00    -0.312 OA
BRANCH  41  42
HETATM   42  C   UNL     1      41.825 -10.705  -1.261  1.00  0.00     0.132 C 
HETATM   43  C   UNL     1      41.380  -9.253  -1.395  1.00  0.00     0.032 C 
HETATM   44  C   UNL     1      42.537  -8.616  -2.143  1.00  0.00     0.002 C 
HETATM   45  C   UNL     1      43.779  -9.271  -1.549  1.00  0.00     0.002 C 
HETATM   46  C   UNL     1      43.312 -10.587  -0.928  1.00  0.00     0.032 C 
ENDBRANCH  41  42
ENDBRANCH  39  41
ENDBRANCH  36  39
ENDBRANCH  30  32
ENDBRANCH   5  28
TORSDOF 10
ENDMDL
MODEL 7
REMARK VINA RESULT:      -9.0      1.521      2.910
REMARK  10 active torsions:
REMARK  status: ('A' for Active; 'I' for Inactive)
REMARK    1  A    between atoms: N_1  and  C_2 
REMARK    2  A    between atoms: C_2  and  C_3 
REMARK    3  A    between atoms: C_6  and  C_33 
REMARK    4  A    between atoms: C_8  and  C_9 
REMARK    5  A    between atoms: C_13  and  C_15 
REMARK       I    between atoms: C_15  and  N_17 
REMARK    6  A    between atoms: N_17  and  C_18 
REMARK    7  A    between atoms: C_22  and  C_23 
REMARK    8  A    between atoms: C_23  and  O_25 
REMARK    9  A    between atoms: O_25  and  C_26 
REMARK       I    between atoms: C_33  and  N_35 
REMARK   10  A    between atoms: N_35  and  C_36 
ROOT
HETATM    1  C   UNL     1      41.129 -13.675   5.036  1.00  0.00    -0.024 A 
HETATM    2  C   UNL     1      40.219 -13.192   5.991  1.00  0.00     0.012 A 
HETATM    3  C   UNL     1      39.212 -12.280   5.652  1.00  0.00     0.002 A 
HETATM    4  C   UNL     1      39.055 -11.863   4.332  1.00  0.00     0.017 A 
HETATM    5  C   UNL     1      39.921 -12.356   3.355  1.00  0.00     0.033 A 
HETATM    6  C   UNL     1      40.957 -13.233   3.710  1.00  0.00     0.029 A 
ENDROOT
BRANCH   1   7
HETATM    7  C   UNL     1      42.181 -14.670   5.368  1.00  0.00    -0.017 A 
HETATM    8  C   UNL     1      43.245 -14.437   6.275  1.00  0.00    -0.020 A 
HETATM    9  C   UNL     1      44.194 -15.457   6.511  1.00  0.00     0.011 A 
HETATM   10  C   UNL     1      44.135 -16.675   5.837  1.00  0.00     0.017 A 
HETATM   11  C   UNL     1      43.111 -16.916   4.926  1.00  0.00     0.033 A 
HETATM   12  C   UNL     1      42.142 -15.925   4.708  1.00  0.00     0.030 A 
BRANCH   8  13
HETATM   13  C   UNL     1      43.462 -13.128   7.004  1.00  0.00     0.306 C 
BRANCH  13  14
HETATM   14  N   UNL     1      44.436 -13.268   8.081  1.00  0.00     0.082 N 
HETATM   15  H   UNL     1      44.653 -12.345   8.453  1.00  0.00     0.313 HD
HETATM   16  H   UNL     1      45.308 -13.631   7.700  1.00  0.00     0.313 HD
ENDBRANCH  13  14
ENDBRANCH   8  13
BRANCH  11  17
HETATM   17  C   UNL     1      43.143 -18.184   4.138  1.00  0.00     0.256 C 
HETATM   18  O   UNL     1      42.205 -18.424   3.384  1.00  0.00    -0.267 OA
HETATM   19  N   UNL     1      44.252 -18.986   4.324  1.00  0.00    -0.320 N 
HETATM   20  H   UNL     1      45.049 -18.597   4.819  1.00  0.00     0.169 HD
BRANCH  19  21
HETATM   21  C   UNL     1      44.438 -20.303   3.843  1.00  0.00     0.076 A 
HETATM   22  C   UNL     1      44.450 -20.649   2.494  1.00  0.00     0.052 A 
HETATM   23  C   UNL     1      44.610 -21.987   2.154  1.00  0.00     0.118 A 
HETATM   24  N   UNL     1      44.758 -22.986   3.053  1.00  0.00    -0.270 NA
HETATM   25  C   UNL     1      44.740 -22.627   4.356  1.00  0.00     0.160 A 
HETATM   26  C   UNL     1      44.583 -21.320   4.786  1.00  0.00     0.160 A 
HETATM   27  F   UNL     1      44.567 -21.037   6.097  1.00  0.00    -0.202 F 
ENDBRANCH  19  21
ENDBRANCH  11  17
ENDBRANCH   1   7
BRANCH   5  28
HETATM   28  C   UNL     1      39.691 -12.095   1.911  1.00  0.00     0.256 C 
HETATM   29  O   UNL     1      40.047 -11.009   1.464  1.00  0.00    -0.267 OA
HETATM   30  N   UNL     1      39.068 -13.104   1.203  1.00  0.00    -0.320 N 
HETATM   31  H   UNL     1      38.591 -13.829   1.730  1.00  0.00     0.169 HD
BRANCH  30  32
HETATM   32  C   UNL     1      38.880 -13.139  -0.200  1.00  0.00     0.075 A 
HETATM   33  C   UNL     1      37.785 -12.546  -0.837  1.00  0.00     0.033 A 
HETATM   34  C   UNL     1      37.652 -12.608  -2.225  1.00  0.00     0.003 A 
HETATM   35  C   UNL     1      38.612 -13.268  -2.989  1.00  0.00     0.021 A 
HETATM   36  C   UNL     1      39.722 -13.858  -2.369  1.00  0.00     0.080 A 
HETATM   37  C   UNL     1      39.854 -13.780  -0.980  1.00  0.00     0.159 A 
HETATM   38  F   UNL     1      40.890 -14.355  -0.347  1.00  0.00    -0.203 F 
BRANCH  36  39
HETATM   39  C   UNL     1      40.678 -14.581  -3.234  1.00  0.00     0.296 C 
HETATM   40  O   UNL     1      40.453 -15.702  -3.665  1.00  0.00    -0.259 OA
BRANCH  39  41
HETATM   41  O   UNL     1      41.767 -13.827  -3.515  1.00  0.00    -0.312 OA
BRANCH  41  42
HETATM   42  C   UNL     1      41.707 -12.480  -3.040  1.00  0.00     0.132 C 
HETATM   43  C   UNL     1      42.873 -12.135  -2.120  1.00  0.00     0.032 C 
HETATM   44  C   UNL     1      42.907 -10.618  -2.178  1.00  0.00     0.002 C 
HETATM   45  C   UNL     1      42.600 -10.288  -3.635  1.00  0.00     0.002 C 
HETATM   46  C   UNL     1      41.881 -11.509  -4.208  1.00  0.00     0.032 C 
ENDBRANCH  41  42
ENDBRANCH  39  41
ENDBRANCH  36  39
ENDBRANCH  30  32
ENDBRANCH   5  28
TORSDOF 10
ENDMDL
MODEL 8
REMARK VINA RESULT:      -8.9      2.779      6.945
REMARK  10 active torsions:
REMARK  status: ('A' for Active; 'I' for Inactive)
REMARK    1  A    between atoms: N_1  and  C_2 
REMARK    2  A    between atoms: C_2  and  C_3 
REMARK    3  A    between atoms: C_6  and  C_33 
REMARK    4  A    between atoms: C_8  and  C_9 
REMARK    5  A    between atoms: C_13  and  C_15 
REMARK       I    between atoms: C_15  and  N_17 
REMARK    6  A    between atoms: N_17  and  C_18 
REMARK    7  A    between atoms: C_22  and  C_23 
REMARK    8  A    between atoms: C_23  and  O_25 
REMARK    9  A    between atoms: O_25  and  C_26 
REMARK       I    between atoms: C_33  and  N_35 
REMARK   10  A    between atoms: N_35  and  C_36 
ROOT
HETATM    1  C   UNL     1      43.429 -18.279   4.117  1.00  0.00    -0.024 A 
HETATM    2  C   UNL     1      44.263 -19.238   3.517  1.00  0.00     0.012 A 
HETATM    3  C   UNL     1      44.098 -19.624   2.181  1.00  0.00     0.002 A 
HETATM    4  C   UNL     1      43.121 -19.023   1.390  1.00  0.00     0.017 A 
HETATM    5  C   UNL     1      42.302 -18.041   1.949  1.00  0.00     0.033 A 
HETATM    6  C   UNL     1      42.443 -17.693   3.301  1.00  0.00     0.029 A 
ENDROOT
BRANCH   1   7
HETATM    7  C   UNL     1      43.610 -17.830   5.522  1.00  0.00    -0.017 A 
HETATM    8  C   UNL     1      43.582 -18.692   6.647  1.00  0.00    -0.020 A 
HETATM    9  C   UNL     1      43.762 -18.152   7.940  1.00  0.00     0.011 A 
HETATM   10  C   UNL     1      43.922 -16.782   8.141  1.00  0.00     0.017 A 
HETATM   11  C   UNL     1      43.930 -15.917   7.051  1.00  0.00     0.033 A 
HETATM   12  C   UNL     1      43.787 -16.444   5.759  1.00  0.00     0.030 A 
BRANCH   8  13
HETATM   13  C   UNL     1      43.334 -20.183   6.563  1.00  0.00     0.306 C 
BRANCH  13  14
HETATM   14  N   UNL     1      43.451 -20.821   7.871  1.00  0.00     0.082 N 
HETATM   15  H   UNL     1      44.374 -21.242   7.952  1.00  0.00     0.313 HD
HETATM   16  H   UNL     1      42.784 -21.589   7.930  1.00  0.00     0.313 HD
ENDBRANCH  13  14
ENDBRANCH   8  13
BRANCH  11  17
HETATM   17  C   UNL     1      43.988 -14.447   7.309  1.00  0.00     0.256 C 
HETATM   18  O   UNL     1      43.705 -13.684   6.392  1.00  0.00    -0.267 OA
HETATM   19  N   UNL     1      44.353 -14.071   8.587  1.00  0.00    -0.320 N 
HETATM   20  H   UNL     1      44.374 -14.782   9.311  1.00  0.00     0.169 HD
BRANCH  19  21
HETATM   21  C   UNL     1      44.654 -12.762   9.033  1.00  0.00     0.076 A 
HETATM   22  C   UNL     1      43.794 -11.980   9.801  1.00  0.00     0.052 A 
HETATM   23  C   UNL     1      44.197 -10.696  10.147  1.00  0.00     0.118 A 
HETATM   24  N   UNL     1      45.380 -10.148   9.786  1.00  0.00    -0.270 NA
HETATM   25  C   UNL     1      46.196 -10.925   9.038  1.00  0.00     0.160 A 
HETATM   26  C   UNL     1      45.875 -12.213   8.646  1.00  0.00     0.160 A 
HETATM   27  F   UNL     1      46.732 -12.924   7.896  1.00  0.00    -0.202 F 
ENDBRANCH  19  21
ENDBRANCH  11  17
ENDBRANCH   1   7
BRANCH   5  28
HETATM   28  C   UNL     1      41.373 -17.238   1.114  1.00  0.00     0.256 C 
HETATM   29  O   UNL     1      40.175 -17.302   1.371  1.00  0.00    -0.267 OA
HETATM   30  N   UNL     1      41.952 -16.503   0.097  1.00  0.00    -0.320 N 
HETATM   31  H   UNL     1      42.900 -16.737  -0.178  1.00  0.00     0.169 HD
BRANCH  30  32
HETATM   32  C   UNL     1      41.288 -15.559  -0.724  1.00  0.00     0.075 A 
HETATM   33  C   UNL     1      40.949 -15.814  -2.057  1.00  0.00     0.033 A 
HETATM   34  C   UNL     1      40.291 -14.848  -2.820  1.00  0.00     0.003 A 
HETATM   35  C   UNL     1      39.972 -13.614  -2.257  1.00  0.00     0.021 A 
HETATM   36  C   UNL     1      40.294 -13.344  -0.920  1.00  0.00     0.080 A 
HETATM   37  C   UNL     1      40.940 -14.323  -0.160  1.00  0.00     0.159 A 
HETATM   38  F   UNL     1      41.289 -14.093   1.117  1.00  0.00    -0.203 F 
BRANCH  36  39
HETATM   39  C   UNL     1      39.968 -12.000  -0.401  1.00  0.00     0.296 C 
HETATM   40  O   UNL     1      40.413 -10.978  -0.902  1.00  0.00    -0.259 OA
BRANCH  39  41
HETATM   41  O   UNL     1      39.095 -12.061   0.632  1.00  0.00    -0.312 OA
BRANCH  41  42
HETATM   42  C   UNL     1      39.285 -11.069   1.643  1.00  0.00     0.132 C 
HETATM   43  C   UNL     1      38.284 -11.203   2.785  1.00  0.00     0.032 C 
HETATM   44  C   UNL     1      38.968 -10.460   3.919  1.00  0.00     0.002 C 
HETATM   45  C   UNL     1      40.441 -10.831   3.780  1.00  0.00     0.002 C 
HETATM   46  C   UNL     1      40.633 -11.281   2.331  1.00  0.00     0.032 C 
ENDBRANCH  41  42
ENDBRANCH  39  41
ENDBRANCH  36  39
ENDBRANCH  30  32
ENDBRANCH   5  28
TORSDOF 10
ENDMDL
MODEL 9
REMARK VINA RESULT:      -8.8      1.813      2.868
REMARK  10 active torsions:
REMARK  status: ('A' for Active; 'I' for Inactive)
REMARK    1  A    between atoms: N_1  and  C_2 
REMARK    2  A    between atoms: C_2  and  C_3 
REMARK    3  A    between atoms: C_6  and  C_33 
REMARK    4  A    between atoms: C_8  and  C_9 
REMARK    5  A    between atoms: C_13  and  C_15 
REMARK       I    between atoms: C_15  and  N_17 
REMARK    6  A    between atoms: N_17  and  C_18 
REMARK    7  A    between atoms: C_22  and  C_23 
REMARK    8  A    between atoms: C_23  and  O_25 
REMARK    9  A    between atoms: O_25  and  C_26 
REMARK       I    between atoms: C_33  and  N_35 
REMARK   10  A    between atoms: N_35  and  C_36 
ROOT
HETATM    1  C   UNL     1      42.440 -13.430   4.772  1.00  0.00    -0.024 A 
HETATM    2  C   UNL     1      41.650 -12.488   5.451  1.00  0.00     0.012 A 
HETATM    3  C   UNL     1      41.000 -11.448   4.774  1.00  0.00     0.002 A 
HETATM    4  C   UNL     1      41.082 -11.351   3.387  1.00  0.00     0.017 A 
HETATM    5  C   UNL     1      41.830 -12.296   2.682  1.00  0.00     0.033 A 
HETATM    6  C   UNL     1      42.516 -13.307   3.371  1.00  0.00     0.029 A 
ENDROOT
BRANCH   1   7
HETATM    7  C   UNL     1      43.108 -14.561   5.467  1.00  0.00    -0.017 A 
HETATM    8  C   UNL     1      44.039 -14.411   6.525  1.00  0.00    -0.020 A 
HETATM    9  C   UNL     1      44.616 -15.560   7.110  1.00  0.00     0.011 A 
HETATM   10  C   UNL     1      44.327 -16.839   6.640  1.00  0.00     0.017 A 
HETATM   11  C   UNL     1      43.432 -17.006   5.587  1.00  0.00     0.033 A 
HETATM   12  C   UNL     1      42.825 -15.876   5.020  1.00  0.00     0.030 A 
BRANCH   8  13
HETATM   13  C   UNL     1      44.495 -13.073   7.067  1.00  0.00     0.306 C 
BRANCH  13  14
HETATM   14  N   UNL     1      43.949 -12.816   8.395  1.00  0.00     0.082 N 
HETATM   15  H   UNL     1      44.577 -13.212   9.093  1.00  0.00     0.313 HD
HETATM   16  H   UNL     1      43.065 -13.313   8.496  1.00  0.00     0.313 HD
ENDBRANCH  13  14
ENDBRANCH   8  13
BRANCH  11  17
HETATM   17  C   UNL     1      43.232 -18.379   5.034  1.00  0.00     0.256 C 
HETATM   18  O   UNL     1      42.105 -18.862   5.069  1.00  0.00    -0.267 OA
HETATM   19  N   UNL     1      44.355 -18.991   4.512  1.00  0.00    -0.320 N 
HETATM   20  H   UNL     1      45.184 -18.427   4.360  1.00  0.00     0.169 HD
BRANCH  19  21
HETATM   21  C   UNL     1      44.472 -20.339   4.098  1.00  0.00     0.076 A 
HETATM   22  C   UNL     1      44.786 -21.396   4.949  1.00  0.00     0.052 A 
HETATM   23  C   UNL     1      44.902 -22.671   4.409  1.00  0.00     0.118 A 
HETATM   24  N   UNL     1      44.728 -22.959   3.099  1.00  0.00    -0.270 NA
HETATM   25  C   UNL     1      44.427 -21.917   2.292  1.00  0.00     0.160 A 
HETATM   26  C   UNL     1      44.294 -20.615   2.742  1.00  0.00     0.160 A 
HETATM   27  F   UNL     1      44.001 -19.629   1.881  1.00  0.00    -0.202 F 
ENDBRANCH  19  21
ENDBRANCH  11  17
ENDBRANCH   1   7
BRANCH   5  28
HETATM   28  C   UNL     1      41.805 -12.355   1.198  1.00  0.00     0.256 C 
HETATM   29  O   UNL     1      42.607 -11.657   0.586  1.00  0.00    -0.267 OA
HETATM   30  N   UNL     1      40.852 -13.184   0.640  1.00  0.00    -0.320 N 
HETATM   31  H   UNL     1      40.087 -13.496   1.231  1.00  0.00     0.169 HD
BRANCH  30  32
HETATM   32  C   UNL     1      40.738 -13.509  -0.734  1.00  0.00     0.075 A 
HETATM   33  C   UNL     1      41.159 -14.733  -1.265  1.00  0.00     0.033 A 
HETATM   34  C   UNL     1      41.020 -15.002  -2.628  1.00  0.00     0.003 A 
HETATM   35  C   UNL     1      40.463 -14.045  -3.474  1.00  0.00     0.021 A 
HETATM   36  C   UNL     1      40.026 -12.817  -2.958  1.00  0.00     0.080 A 
HETATM   37  C   UNL     1      40.156 -12.562  -1.590  1.00  0.00     0.159 A 
HETATM   38  F   UNL     1      39.773 -11.387  -1.062  1.00  0.00    -0.203 F 
BRANCH  36  39
HETATM   39  C   UNL     1      39.487 -11.831  -3.918  1.00  0.00     0.296 C 
HETATM   40  O   UNL     1      38.291 -11.608  -4.027  1.00  0.00    -0.259 OA
BRANCH  39  41
HETATM   41  O   UNL     1      40.477 -11.196  -4.589  1.00  0.00    -0.312 OA
BRANCH  41  42
HETATM   42  C   UNL     1      40.874  -9.940  -4.032  1.00  0.00     0.132 C 
HETATM   43  C   UNL     1      42.243 -10.006  -3.365  1.00  0.00     0.032 C 
HETATM   44  C   UNL     1      42.672  -8.550  -3.338  1.00  0.00     0.002 C 
HETATM   45  C   UNL     1      42.193  -7.989  -4.673  1.00  0.00     0.002 C 
HETATM   46  C   UNL     1      41.077  -8.918  -5.150  1.00  0.00     0.032 C 
ENDBRANCH  41  42
ENDBRANCH  39  41
ENDBRANCH  36  39
ENDBRANCH  30  32
ENDBRANCH   5  28
TORSDOF 10
ENDMDL
MODEL 10
REMARK VINA RESULT:      -8.8      1.671      2.386
REMARK  10 active torsions:
REMARK  status: ('A' for Active; 'I' for Inactive)
REMARK    1  A    between atoms: N_1  and  C_2 
REMARK    2  A    between atoms: C_2  and  C_3 
REMARK    3  A    between atoms: C_6  and  C_33 
REMARK    4  A    between atoms: C_8  and  C_9 
REMARK    5  A    between atoms: C_13  and  C_15 
REMARK       I    between atoms: C_15  and  N_17 
REMARK    6  A    between atoms: N_17  and  C_18 
REMARK    7  A    between atoms: C_22  and  C_23 
REMARK    8  A    between atoms: C_23  and  O_25 
REMARK    9  A    between atoms: O_25  and  C_26 
REMARK       I    between atoms: C_33  and  N_35 
REMARK   10  A    between atoms: N_35  and  C_36 
ROOT
HETATM    1  C   UNL     1      42.366 -13.306   5.124  1.00  0.00    -0.024 A 
HETATM    2  C   UNL     1      41.630 -12.424   5.933  1.00  0.00     0.012 A 
HETATM    3  C   UNL     1      40.967 -11.313   5.396  1.00  0.00     0.002 A 
HETATM    4  C   UNL     1      40.982 -11.081   4.023  1.00  0.00     0.017 A 
HETATM    5  C   UNL     1      41.674 -11.962   3.190  1.00  0.00     0.033 A 
HETATM    6  C   UNL     1      42.374 -13.047   3.741  1.00  0.00     0.029 A 
ENDROOT
BRANCH   1   7
HETATM    7  C   UNL     1      43.045 -14.510   5.670  1.00  0.00    -0.017 A 
HETATM    8  C   UNL     1      44.009 -14.483   6.708  1.00  0.00    -0.020 A 
HETATM    9  C   UNL     1      44.595 -15.693   7.145  1.00  0.00     0.011 A 
HETATM   10  C   UNL     1      44.280 -16.911   6.546  1.00  0.00     0.017 A 
HETATM   11  C   UNL     1      43.352 -16.956   5.510  1.00  0.00     0.033 A 
HETATM   12  C   UNL     1      42.737 -15.767   5.090  1.00  0.00     0.030 A 
BRANCH   8  13
HETATM   13  C   UNL     1      44.494 -13.215   7.379  1.00  0.00     0.306 C 
BRANCH  13  14
HETATM   14  N   UNL     1      45.949 -13.119   7.359  1.00  0.00     0.082 N 
HETATM   15  H   UNL     1      46.215 -12.164   7.126  1.00  0.00     0.313 HD
HETATM   16  H   UNL     1      46.314 -13.705   6.609  1.00  0.00     0.313 HD
ENDBRANCH  13  14
ENDBRANCH   8  13
BRANCH  11  17
HETATM   17  C   UNL     1      43.123 -18.258   4.815  1.00  0.00     0.256 C 
HETATM   18  O   UNL     1      42.016 -18.779   4.906  1.00  0.00    -0.267 OA
HETATM   19  N   UNL     1      44.197 -18.766   4.110  1.00  0.00    -0.320 N 
HETATM   20  H   UNL     1      44.994 -18.159   3.945  1.00  0.00     0.169 HD
BRANCH  19  21
HETATM   21  C   UNL     1      44.297 -20.049   3.524  1.00  0.00     0.076 A 
HETATM   22  C   UNL     1      44.020 -20.324   2.187  1.00  0.00     0.052 A 
HETATM   23  C   UNL     1      44.126 -21.636   1.743  1.00  0.00     0.118 A 
HETATM   24  N   UNL     1      44.485 -22.676   2.529  1.00  0.00    -0.270 NA
HETATM   25  C   UNL     1      44.746 -22.387   3.823  1.00  0.00     0.160 A 
HETATM   26  C   UNL     1      44.664 -21.110   4.352  1.00  0.00     0.160 A 
HETATM   27  F   UNL     1      44.930 -20.898   5.650  1.00  0.00    -0.202 F 
ENDBRANCH  19  21
ENDBRANCH  11  17
ENDBRANCH   1   7
BRANCH   5  28
HETATM   28  C   UNL     1      41.573 -11.874   1.711  1.00  0.00     0.256 C 
HETATM   29  O   UNL     1      42.336 -12.568   1.045  1.00  0.00    -0.267 OA
HETATM   30  N   UNL     1      40.634 -10.989   1.219  1.00  0.00    -0.320 N 
HETATM   31  H   UNL     1      40.260 -10.291   1.853  1.00  0.00     0.169 HD
BRANCH  30  32
HETATM   32  C   UNL     1      40.263 -10.847  -0.141  1.00  0.00     0.075 A 
HETATM   33  C   UNL     1      40.977 -10.056  -1.047  1.00  0.00     0.033 A 
HETATM   34  C   UNL     1      40.567  -9.954  -2.378  1.00  0.00     0.003 A 
HETATM   35  C   UNL     1      39.435 -10.640  -2.812  1.00  0.00     0.021 A 
HETATM   36  C   UNL     1      38.713 -11.446  -1.922  1.00  0.00     0.080 A 
HETATM   37  C   UNL     1      39.138 -11.553  -0.594  1.00  0.00     0.159 A 
HETATM   38  F   UNL     1      38.458 -12.295   0.296  1.00  0.00    -0.203 F 
BRANCH  36  39
HETATM   39  C   UNL     1      37.497 -12.108  -2.438  1.00  0.00     0.296 C 
HETATM   40  O   UNL     1      36.567 -11.483  -2.924  1.00  0.00    -0.259 OA
BRANCH  39  41
HETATM   41  O   UNL     1      37.587 -13.456  -2.349  1.00  0.00    -0.312 OA
BRANCH  41  42
HETATM   42  C   UNL     1      38.529 -14.058  -3.240  1.00  0.00     0.132 C 
HETATM   43  C   UNL     1      39.680 -14.730  -2.500  1.00  0.00     0.032 C 
HETATM   44  C   UNL     1      40.220 -15.703  -3.534  1.00  0.00     0.002 C 
HETATM   45  C   UNL     1      38.975 -16.245  -4.229  1.00  0.00     0.002 C 
HETATM   46  C   UNL     1      37.870 -15.216  -3.989  1.00  0.00     0.032 C 
ENDBRANCH  41  42
ENDBRANCH  39  41
ENDBRANCH  36  39
ENDBRANCH  30  32
ENDBRANCH   5  28
TORSDOF 10
ENDMDL
