MODEL 1
REMARK VINA RESULT:      -8.8      0.000      0.000
REMARK  2 active torsions:
REMARK  status: ('A' for Active; 'I' for Inactive)
REMARK    1  A    between atoms: N_9  and  N_11 
REMARK       I    between atoms: N_11  and  C_12 
REMARK    2  A    between atoms: C_12  and  C_13 
ROOT
HETATM    1  C   UNL     1      42.884 -13.529   3.129  1.00  0.00     0.033 C 
HETATM    2  C   UNL     1      42.246 -14.097   1.860  1.00  0.00     0.086 C 
HETATM    3  N   UNL     1      41.909 -13.012   0.919  1.00  0.00    -0.379 N 
HETATM    4  C   UNL     1      40.961 -11.966   1.304  1.00  0.00     0.150 C 
HETATM    5  C   UNL     1      41.810 -13.346  -0.448  1.00  0.00     0.052 A 
HETATM    6  C   UNL     1      40.974 -14.365  -0.970  1.00  0.00     0.040 A 
HETATM    7  N   UNL     1      40.120 -15.160  -0.129  1.00  0.00    -0.246 NA
HETATM    8  C   UNL     1      40.709 -15.783   1.016  1.00  0.00     0.077 C 
HETATM    9  N   UNL     1      40.982 -17.070   0.885  1.00  0.00    -0.291 N 
HETATM   10  H   UNL     1      40.707 -17.468  -0.021  1.00  0.00     0.188 HD
HETATM   11  C   UNL     1      41.044 -14.983   2.208  1.00  0.00     0.096 C 
HETATM   12  C   UNL     1      42.545 -12.568  -1.358  1.00  0.00     0.031 A 
HETATM   13  C   UNL     1      42.461 -12.785  -2.735  1.00  0.00     0.002 A 
HETATM   14  C   UNL     1      41.625 -13.780  -3.233  1.00  0.00     0.002 A 
HETATM   15  C   UNL     1      40.877 -14.562  -2.354  1.00  0.00     0.026 A 
HETATM   16  H   UNL     1      39.497 -14.429   0.226  1.00  0.00     0.135 HD
ENDROOT
BRANCH   9  17
HETATM   17  N   UNL     1      41.582 -17.864   1.757  1.00  0.00    -0.265 N 
HETATM   18  C   UNL     1      42.939 -18.080   1.585  1.00  0.00     0.270 C 
HETATM   19  O   UNL     1      43.572 -17.575   0.663  1.00  0.00    -0.266 OA
HETATM   20  H   UNL     1      41.090 -18.192   2.579  1.00  0.00     0.190 HD
BRANCH  18  21
HETATM   21  C   UNL     1      43.606 -18.924   2.611  1.00  0.00     0.033 A 
HETATM   22  C   UNL     1      43.909 -18.443   3.893  1.00  0.00     0.017 A 
HETATM   23  C   UNL     1      44.556 -19.271   4.812  1.00  0.00     0.001 A 
HETATM   24  C   UNL     1      44.893 -20.578   4.462  1.00  0.00     0.000 A 
HETATM   25  C   UNL     1      44.573 -21.067   3.196  1.00  0.00     0.001 A 
HETATM   26  C   UNL     1      43.926 -20.244   2.272  1.00  0.00     0.017 A 
ENDBRANCH  18  21
ENDBRANCH   9  17
TORSDOF 2
ENDMDL
MODEL 2
REMARK VINA RESULT:      -8.1      4.574      6.952
REMARK  2 active torsions:
REMARK  status: ('A' for Active; 'I' for Inactive)
REMARK    1  A    between atoms: N_9  and  N_11 
REMARK       I    between atoms: N_11  and  C_12 
REMARK    2  A    between atoms: C_12  and  C_13 
ROOT
HETATM    1  C   UNL     1      41.622 -12.778   4.105  1.00  0.00     0.033 C 
HETATM    2  C   UNL     1      42.140 -14.199   4.331  1.00  0.00     0.086 C 
HETATM    3  N   UNL     1      41.813 -15.058   3.177  1.00  0.00    -0.379 N 
HETATM    4  C   UNL     1      40.419 -15.291   2.798  1.00  0.00     0.150 C 
HETATM    5  C   UNL     1      42.621 -16.196   2.966  1.00  0.00     0.052 A 
HETATM    6  C   UNL     1      42.865 -17.202   3.935  1.00  0.00     0.040 A 
HETATM    7  N   UNL     1      42.284 -17.155   5.250  1.00  0.00    -0.246 NA
HETATM    8  C   UNL     1      42.431 -15.946   5.999  1.00  0.00     0.077 C 
HETATM    9  N   UNL     1      43.368 -15.965   6.931  1.00  0.00    -0.291 N 
HETATM   10  H   UNL     1      43.856 -16.864   7.018  1.00  0.00     0.188 HD
HETATM   11  C   UNL     1      41.624 -14.759   5.661  1.00  0.00     0.096 C 
HETATM   12  C   UNL     1      43.165 -16.372   1.684  1.00  0.00     0.031 A 
HETATM   13  C   UNL     1      43.925 -17.499   1.364  1.00  0.00     0.002 A 
HETATM   14  C   UNL     1      44.145 -18.485   2.322  1.00  0.00     0.002 A 
HETATM   15  C   UNL     1      43.609 -18.341   3.600  1.00  0.00     0.026 A 
HETATM   16  H   UNL     1      41.292 -17.226   5.003  1.00  0.00     0.135 HD
ENDROOT
BRANCH   9  17
HETATM   17  N   UNL     1      43.752 -14.970   7.714  1.00  0.00    -0.265 N 
HETATM   18  C   UNL     1      44.773 -14.158   7.249  1.00  0.00     0.270 C 
HETATM   19  O   UNL     1      45.318 -14.345   6.165  1.00  0.00    -0.266 OA
HETATM   20  H   UNL     1      43.235 -14.746   8.555  1.00  0.00     0.190 HD
BRANCH  18  21
HETATM   21  C   UNL     1      45.148 -13.010   8.115  1.00  0.00     0.033 A 
HETATM   22  C   UNL     1      46.373 -12.341   7.981  1.00  0.00     0.017 A 
HETATM   23  C   UNL     1      46.685 -11.281   8.835  1.00  0.00     0.001 A 
HETATM   24  C   UNL     1      45.777 -10.881   9.815  1.00  0.00     0.000 A 
HETATM   25  C   UNL     1      44.548 -11.530   9.937  1.00  0.00     0.001 A 
HETATM   26  C   UNL     1      44.231 -12.590   9.086  1.00  0.00     0.017 A 
ENDBRANCH  18  21
ENDBRANCH   9  17
TORSDOF 2
ENDMDL
MODEL 3
REMARK VINA RESULT:      -8.0      2.582      4.595
REMARK  2 active torsions:
REMARK  status: ('A' for Active; 'I' for Inactive)
REMARK    1  A    between atoms: N_9  and  N_11 
REMARK       I    between atoms: N_11  and  C_12 
REMARK    2  A    between atoms: C_12  and  C_13 
ROOT
HETATM    1  C   UNL     1      41.780 -15.501   0.466  1.00  0.00     0.033 C 
HETATM    2  C   UNL     1      41.875 -15.180   1.959  1.00  0.00     0.086 C 
HETATM    3  N   UNL     1      41.416 -13.802   2.221  1.00  0.00    -0.379 N 
HETATM    4  C   UNL     1      42.103 -12.663   1.612  1.00  0.00     0.150 C 
HETATM    5  C   UNL     1      40.947 -13.512   3.520  1.00  0.00     0.052 A 
HETATM    6  C   UNL     1      41.684 -13.735   4.711  1.00  0.00     0.040 A 
HETATM    7  N   UNL     1      43.014 -14.281   4.697  1.00  0.00    -0.246 NA
HETATM    8  C   UNL     1      43.231 -15.485   3.956  1.00  0.00     0.077 C 
HETATM    9  N   UNL     1      43.295 -16.592   4.674  1.00  0.00    -0.291 N 
HETATM   10  H   UNL     1      43.209 -16.441   5.687  1.00  0.00     0.188 HD
HETATM   11  C   UNL     1      43.290 -15.450   2.483  1.00  0.00     0.096 C 
HETATM   12  C   UNL     1      39.690 -12.897   3.630  1.00  0.00     0.031 A 
HETATM   13  C   UNL     1      39.172 -12.516   4.870  1.00  0.00     0.002 A 
HETATM   14  C   UNL     1      39.913 -12.729   6.029  1.00  0.00     0.002 A 
HETATM   15  C   UNL     1      41.168 -13.329   5.949  1.00  0.00     0.026 A 
HETATM   16  H   UNL     1      43.502 -13.536   4.191  1.00  0.00     0.135 HD
ENDROOT
BRANCH   9  17
HETATM   17  N   UNL     1      43.421 -17.835   4.239  1.00  0.00    -0.265 N 
HETATM   18  C   UNL     1      44.376 -18.626   4.856  1.00  0.00     0.270 C 
HETATM   19  O   UNL     1      45.091 -18.206   5.761  1.00  0.00    -0.266 OA
HETATM   20  H   UNL     1      42.763 -18.218   3.572  1.00  0.00     0.190 HD
BRANCH  18  21
HETATM   21  C   UNL     1      44.460 -20.036   4.395  1.00  0.00     0.033 A 
HETATM   22  C   UNL     1      44.671 -21.101   5.283  1.00  0.00     0.017 A 
HETATM   23  C   UNL     1      44.764 -22.406   4.795  1.00  0.00     0.001 A 
HETATM   24  C   UNL     1      44.638 -22.654   3.428  1.00  0.00     0.000 A 
HETATM   25  C   UNL     1      44.405 -21.600   2.545  1.00  0.00     0.001 A 
HETATM   26  C   UNL     1      44.311 -20.293   3.027  1.00  0.00     0.017 A 
ENDBRANCH  18  21
ENDBRANCH   9  17
TORSDOF 2
ENDMDL
MODEL 4
REMARK VINA RESULT:      -8.0      1.919      2.270
REMARK  2 active torsions:
REMARK  status: ('A' for Active; 'I' for Inactive)
REMARK    1  A    between atoms: N_9  and  N_11 
REMARK       I    between atoms: N_11  and  C_12 
REMARK    2  A    between atoms: C_12  and  C_13 
ROOT
HETATM    1  C   UNL     1      41.945 -12.787   3.329  1.00  0.00     0.033 C 
HETATM    2  C   UNL     1      40.912 -13.372   2.365  1.00  0.00     0.086 C 
HETATM    3  N   UNL     1      40.244 -12.296   1.608  1.00  0.00    -0.379 N 
HETATM    4  C   UNL     1      39.472 -11.268   2.307  1.00  0.00     0.150 C 
HETATM    5  C   UNL     1      39.676 -12.636   0.362  1.00  0.00     0.052 A 
HETATM    6  C   UNL     1      38.730 -13.672   0.163  1.00  0.00     0.040 A 
HETATM    7  N   UNL     1      38.243 -14.482   1.248  1.00  0.00    -0.246 NA
HETATM    8  C   UNL     1      39.209 -15.090   2.109  1.00  0.00     0.077 C 
HETATM    9  N   UNL     1      39.445 -16.372   1.884  1.00  0.00    -0.291 N 
HETATM   10  H   UNL     1      38.876 -16.777   1.131  1.00  0.00     0.188 HD
HETATM   11  C   UNL     1      39.928 -14.280   3.110  1.00  0.00     0.096 C 
HETATM   12  C   UNL     1      40.028 -11.845  -0.745  1.00  0.00     0.031 A 
HETATM   13  C   UNL     1      39.468 -12.067  -2.005  1.00  0.00     0.002 A 
HETATM   14  C   UNL     1      38.529 -13.080  -2.181  1.00  0.00     0.002 A 
HETATM   15  C   UNL     1      38.155 -13.874  -1.099  1.00  0.00     0.026 A 
HETATM   16  H   UNL     1      37.771 -13.762   1.803  1.00  0.00     0.135 HD
ENDROOT
BRANCH   9  17
HETATM   17  N   UNL     1      40.329 -17.151   2.486  1.00  0.00    -0.265 N 
HETATM   18  C   UNL     1      41.538 -17.348   1.840  1.00  0.00     0.270 C 
HETATM   19  O   UNL     1      41.792 -16.841   0.752  1.00  0.00    -0.266 OA
HETATM   20  H   UNL     1      40.169 -17.481   3.429  1.00  0.00     0.190 HD
BRANCH  18  21
HETATM   21  C   UNL     1      42.541 -18.176   2.560  1.00  0.00     0.033 A 
HETATM   22  C   UNL     1      43.171 -19.277   1.961  1.00  0.00     0.017 A 
HETATM   23  C   UNL     1      44.090 -20.034   2.689  1.00  0.00     0.001 A 
HETATM   24  C   UNL     1      44.390 -19.694   4.008  1.00  0.00     0.000 A 
HETATM   25  C   UNL     1      43.782 -18.587   4.600  1.00  0.00     0.001 A 
HETATM   26  C   UNL     1      42.863 -17.826   3.877  1.00  0.00     0.017 A 
ENDBRANCH  18  21
ENDBRANCH   9  17
TORSDOF 2
ENDMDL
MODEL 5
REMARK VINA RESULT:      -7.8      3.188      3.756
REMARK  2 active torsions:
REMARK  status: ('A' for Active; 'I' for Inactive)
REMARK    1  A    between atoms: N_9  and  N_11 
REMARK       I    between atoms: N_11  and  C_12 
REMARK    2  A    between atoms: C_12  and  C_13 
ROOT
HETATM    1  C   UNL     1      44.017 -14.026   5.895  1.00  0.00     0.033 C 
HETATM    2  C   UNL     1      42.680 -14.136   5.161  1.00  0.00     0.086 C 
HETATM    3  N   UNL     1      42.069 -12.803   4.997  1.00  0.00    -0.379 N 
HETATM    4  C   UNL     1      41.717 -12.001   6.168  1.00  0.00     0.150 C 
HETATM    5  C   UNL     1      41.150 -12.637   3.939  1.00  0.00     0.052 A 
HETATM    6  C   UNL     1      39.998 -13.439   3.739  1.00  0.00     0.040 A 
HETATM    7  N   UNL     1      39.651 -14.515   4.628  1.00  0.00    -0.246 NA
HETATM    8  C   UNL     1      40.663 -15.478   4.935  1.00  0.00     0.077 C 
HETATM    9  N   UNL     1      40.576 -16.623   4.280  1.00  0.00    -0.291 N 
HETATM   10  H   UNL     1      39.767 -16.686   3.650  1.00  0.00     0.188 HD
HETATM   11  C   UNL     1      41.756 -15.137   5.864  1.00  0.00     0.096 C 
HETATM   12  C   UNL     1      41.360 -11.558   3.065  1.00  0.00     0.031 A 
HETATM   13  C   UNL     1      40.468 -11.278   2.027  1.00  0.00     0.002 A 
HETATM   14  C   UNL     1      39.335 -12.067   1.851  1.00  0.00     0.002 A 
HETATM   15  C   UNL     1      39.096 -13.139   2.710  1.00  0.00     0.026 A 
HETATM   16  H   UNL     1      39.485 -13.983   5.488  1.00  0.00     0.135 HD
ENDROOT
BRANCH   9  17
HETATM   17  N   UNL     1      41.411 -17.648   4.326  1.00  0.00    -0.265 N 
HETATM   18  C   UNL     1      42.302 -17.784   3.274  1.00  0.00     0.270 C 
HETATM   19  O   UNL     1      42.322 -17.004   2.327  1.00  0.00    -0.266 OA
HETATM   20  H   UNL     1      41.473 -18.227   5.154  1.00  0.00     0.190 HD
BRANCH  18  21
HETATM   21  C   UNL     1      43.272 -18.905   3.375  1.00  0.00     0.033 A 
HETATM   22  C   UNL     1      43.478 -19.812   2.325  1.00  0.00     0.017 A 
HETATM   23  C   UNL     1      44.386 -20.861   2.478  1.00  0.00     0.001 A 
HETATM   24  C   UNL     1      45.096 -21.004   3.671  1.00  0.00     0.000 A 
HETATM   25  C   UNL     1      44.910 -20.092   4.709  1.00  0.00     0.001 A 
HETATM   26  C   UNL     1      44.004 -19.041   4.561  1.00  0.00     0.017 A 
ENDBRANCH  18  21
ENDBRANCH   9  17
TORSDOF 2
ENDMDL
MODEL 6
REMARK VINA RESULT:      -7.8      2.283      7.597
REMARK  2 active torsions:
REMARK  status: ('A' for Active; 'I' for Inactive)
REMARK    1  A    between atoms: N_9  and  N_11 
REMARK       I    between atoms: N_11  and  C_12 
REMARK    2  A    between atoms: C_12  and  C_13 
ROOT
HETATM    1  C   UNL     1      42.197 -16.505   6.599  1.00  0.00     0.033 C 
HETATM    2  C   UNL     1      42.745 -17.440   5.520  1.00  0.00     0.086 C 
HETATM    3  N   UNL     1      43.809 -18.300   6.073  1.00  0.00    -0.379 N 
HETATM    4  C   UNL     1      45.029 -17.708   6.622  1.00  0.00     0.150 C 
HETATM    5  C   UNL     1      44.057 -19.525   5.419  1.00  0.00     0.052 A 
HETATM    6  C   UNL     1      44.355 -19.657   4.039  1.00  0.00     0.040 A 
HETATM    7  N   UNL     1      44.443 -18.519   3.163  1.00  0.00    -0.246 NA
HETATM    8  C   UNL     1      43.358 -17.588   3.171  1.00  0.00     0.077 C 
HETATM    9  N   UNL     1      42.508 -17.699   2.165  1.00  0.00    -0.291 N 
HETATM   10  H   UNL     1      42.754 -18.427   1.484  1.00  0.00     0.188 HD
HETATM   11  C   UNL     1      43.196 -16.643   4.291  1.00  0.00     0.096 C 
HETATM   12  C   UNL     1      44.074 -20.686   6.209  1.00  0.00     0.031 A 
HETATM   13  C   UNL     1      44.373 -21.935   5.661  1.00  0.00     0.002 A 
HETATM   14  C   UNL     1      44.676 -22.047   4.307  1.00  0.00     0.002 A 
HETATM   15  C   UNL     1      44.676 -20.910   3.500  1.00  0.00     0.026 A 
HETATM   16  H   UNL     1      45.243 -18.037   3.586  1.00  0.00     0.135 HD
ENDROOT
BRANCH   9  17
HETATM   17  N   UNL     1      41.393 -17.014   1.966  1.00  0.00    -0.265 N 
HETATM   18  C   UNL     1      41.469 -15.914   1.127  1.00  0.00     0.270 C 
HETATM   19  O   UNL     1      42.518 -15.569   0.591  1.00  0.00    -0.266 OA
HETATM   20  H   UNL     1      40.507 -17.357   2.315  1.00  0.00     0.190 HD
BRANCH  18  21
HETATM   21  C   UNL     1      40.194 -15.195   0.868  1.00  0.00     0.033 A 
HETATM   22  C   UNL     1      39.122 -15.227   1.771  1.00  0.00     0.017 A 
HETATM   23  C   UNL     1      37.937 -14.552   1.470  1.00  0.00     0.001 A 
HETATM   24  C   UNL     1      37.823 -13.837   0.278  1.00  0.00     0.000 A 
HETATM   25  C   UNL     1      38.895 -13.784  -0.612  1.00  0.00     0.001 A 
HETATM   26  C   UNL     1      40.081 -14.458  -0.316  1.00  0.00     0.017 A 
ENDBRANCH  18  21
ENDBRANCH   9  17
TORSDOF 2
ENDMDL
MODEL 7
REMARK VINA RESULT:      -7.7      2.421      7.292
REMARK  2 active torsions:
REMARK  status: ('A' for Active; 'I' for Inactive)
REMARK    1  A    between atoms: N_9  and  N_11 
REMARK       I    between atoms: N_11  and  C_12 
REMARK    2  A    between atoms: C_12  and  C_13 
ROOT
HETATM    1  C   UNL     1      40.211 -14.309   3.454  1.00  0.00     0.033 C 
HETATM    2  C   UNL     1      41.079 -15.257   2.625  1.00  0.00     0.086 C 
HETATM    3  N   UNL     1      42.099 -15.901   3.474  1.00  0.00    -0.379 N 
HETATM    4  C   UNL     1      43.099 -15.093   4.173  1.00  0.00     0.150 C 
HETATM    5  C   UNL     1      42.620 -17.137   3.037  1.00  0.00     0.052 A 
HETATM    6  C   UNL     1      43.212 -17.358   1.768  1.00  0.00     0.040 A 
HETATM    7  N   UNL     1      43.346 -16.309   0.792  1.00  0.00    -0.246 NA
HETATM    8  C   UNL     1      42.180 -15.544   0.475  1.00  0.00     0.077 C 
HETATM    9  N   UNL     1      41.577 -15.869  -0.656  1.00  0.00    -0.291 N 
HETATM   10  H   UNL     1      42.044 -16.618  -1.181  1.00  0.00     0.188 HD
HETATM   11  C   UNL     1      41.678 -14.528   1.418  1.00  0.00     0.096 C 
HETATM   12  C   UNL     1      42.610 -18.202   3.952  1.00  0.00     0.031 A 
HETATM   13  C   UNL     1      43.162 -19.444   3.629  1.00  0.00     0.002 A 
HETATM   14  C   UNL     1      43.751 -19.642   2.384  1.00  0.00     0.002 A 
HETATM   15  C   UNL     1      43.784 -18.600   1.459  1.00  0.00     0.026 A 
HETATM   16  H   UNL     1      43.977 -15.681   1.300  1.00  0.00     0.135 HD
ENDROOT
BRANCH   9  17
HETATM   17  N   UNL     1      40.455 -15.371  -1.148  1.00  0.00    -0.265 N 
HETATM   18  C   UNL     1      40.418 -15.128  -2.512  1.00  0.00     0.270 C 
HETATM   19  O   UNL     1      41.378 -15.349  -3.244  1.00  0.00    -0.266 OA
HETATM   20  H   UNL     1      39.628 -15.291  -0.571  1.00  0.00     0.190 HD
BRANCH  18  21
HETATM   21  C   UNL     1      39.128 -14.626  -3.055  1.00  0.00     0.033 A 
HETATM   22  C   UNL     1      38.251 -15.449  -3.777  1.00  0.00     0.017 A 
HETATM   23  C   UNL     1      37.062 -14.922  -4.285  1.00  0.00     0.001 A 
HETATM   24  C   UNL     1      36.741 -13.582  -4.068  1.00  0.00     0.000 A 
HETATM   25  C   UNL     1      37.600 -12.767  -3.331  1.00  0.00     0.001 A 
HETATM   26  C   UNL     1      38.790 -13.288  -2.821  1.00  0.00     0.017 A 
ENDBRANCH  18  21
ENDBRANCH   9  17
TORSDOF 2
ENDMDL
MODEL 8
REMARK VINA RESULT:      -7.5      7.502     10.132
REMARK  2 active torsions:
REMARK  status: ('A' for Active; 'I' for Inactive)
REMARK    1  A    between atoms: N_9  and  N_11 
REMARK       I    between atoms: N_11  and  C_12 
REMARK    2  A    between atoms: C_12  and  C_13 
ROOT
HETATM    1  C   UNL     1      39.354 -10.323   8.148  1.00  0.00     0.033 C 
HETATM    2  C   UNL     1      40.631 -10.457   8.979  1.00  0.00     0.086 C 
HETATM    3  N   UNL     1      40.592  -9.545  10.138  1.00  0.00    -0.379 N 
HETATM    4  C   UNL     1      40.499  -8.098   9.939  1.00  0.00     0.150 C 
HETATM    5  C   UNL     1      41.386  -9.881  11.255  1.00  0.00     0.052 A 
HETATM    6  C   UNL     1      42.782 -10.125  11.207  1.00  0.00     0.040 A 
HETATM    7  N   UNL     1      43.532 -10.037   9.983  1.00  0.00    -0.246 NA
HETATM    8  C   UNL     1      43.042 -10.757   8.849  1.00  0.00     0.077 C 
HETATM    9  N   UNL     1      43.657 -11.897   8.589  1.00  0.00    -0.291 N 
HETATM   10  H   UNL     1      44.436 -12.108   9.224  1.00  0.00     0.188 HD
HETATM   11  C   UNL     1      41.872 -10.259   8.102  1.00  0.00     0.096 C 
HETATM   12  C   UNL     1      40.756  -9.910  12.510  1.00  0.00     0.031 A 
HETATM   13  C   UNL     1      41.475 -10.171  13.679  1.00  0.00     0.002 A 
HETATM   14  C   UNL     1      42.847 -10.395  13.617  1.00  0.00     0.002 A 
HETATM   15  C   UNL     1      43.500 -10.364  12.386  1.00  0.00     0.026 A 
HETATM   16  H   UNL     1      43.406  -9.042   9.773  1.00  0.00     0.135 HD
ENDROOT
BRANCH   9  17
HETATM   17  N   UNL     1      43.364 -12.780   7.648  1.00  0.00    -0.265 N 
HETATM   18  C   UNL     1      44.359 -13.675   7.290  1.00  0.00     0.270 C 
HETATM   19  O   UNL     1      45.474 -13.657   7.804  1.00  0.00    -0.266 OA
HETATM   20  H   UNL     1      42.417 -12.871   7.302  1.00  0.00     0.190 HD
BRANCH  18  21
HETATM   21  C   UNL     1      43.991 -14.698   6.277  1.00  0.00     0.033 A 
HETATM   22  C   UNL     1      44.098 -16.073   6.530  1.00  0.00     0.017 A 
HETATM   23  C   UNL     1      43.759 -16.993   5.536  1.00  0.00     0.001 A 
HETATM   24  C   UNL     1      43.305 -16.546   4.294  1.00  0.00     0.000 A 
HETATM   25  C   UNL     1      43.176 -15.180   4.047  1.00  0.00     0.001 A 
HETATM   26  C   UNL     1      43.513 -14.256   5.037  1.00  0.00     0.017 A 
ENDBRANCH  18  21
ENDBRANCH   9  17
TORSDOF 2
ENDMDL
MODEL 9
REMARK VINA RESULT:      -7.5      6.143      8.799
REMARK  2 active torsions:
REMARK  status: ('A' for Active; 'I' for Inactive)
REMARK    1  A    between atoms: N_9  and  N_11 
REMARK       I    between atoms: N_11  and  C_12 
REMARK    2  A    between atoms: C_12  and  C_13 
ROOT
HETATM    1  C   UNL     1      43.327 -17.065   8.216  1.00  0.00     0.033 C 
HETATM    2  C   UNL     1      43.172 -15.953   7.178  1.00  0.00     0.086 C 
HETATM    3  N   UNL     1      42.967 -16.525   5.834  1.00  0.00    -0.379 N 
HETATM    4  C   UNL     1      43.990 -17.378   5.228  1.00  0.00     0.150 C 
HETATM    5  C   UNL     1      42.308 -15.720   4.880  1.00  0.00     0.052 A 
HETATM    6  C   UNL     1      42.716 -14.414   4.510  1.00  0.00     0.040 A 
HETATM    7  N   UNL     1      43.875 -13.782   5.081  1.00  0.00    -0.246 NA
HETATM    8  C   UNL     1      43.986 -13.761   6.507  1.00  0.00     0.077 C 
HETATM    9  N   UNL     1      43.664 -12.616   7.085  1.00  0.00    -0.291 N 
HETATM   10  H   UNL     1      43.401 -11.873   6.427  1.00  0.00     0.188 HD
HETATM   11  C   UNL     1      44.358 -14.983   7.242  1.00  0.00     0.096 C 
HETATM   12  C   UNL     1      41.212 -16.283   4.207  1.00  0.00     0.031 A 
HETATM   13  C   UNL     1      40.538 -15.584   3.203  1.00  0.00     0.002 A 
HETATM   14  C   UNL     1      40.958 -14.308   2.840  1.00  0.00     0.002 A 
HETATM   15  C   UNL     1      42.049 -13.728   3.486  1.00  0.00     0.026 A 
HETATM   16  H   UNL     1      44.603 -14.419   4.742  1.00  0.00     0.135 HD
ENDROOT
BRANCH   9  17
HETATM   17  N   UNL     1      43.616 -12.347   8.379  1.00  0.00    -0.265 N 
HETATM   18  C   UNL     1      43.013 -11.158   8.755  1.00  0.00     0.270 C 
HETATM   19  O   UNL     1      42.548 -10.371   7.936  1.00  0.00    -0.266 OA
HETATM   20  H   UNL     1      43.896 -13.041   9.061  1.00  0.00     0.190 HD
BRANCH  18  21
HETATM   21  C   UNL     1      42.914 -10.904  10.216  1.00  0.00     0.033 A 
HETATM   22  C   UNL     1      44.016 -10.495  10.980  1.00  0.00     0.017 A 
HETATM   23  C   UNL     1      43.874 -10.290  12.353  1.00  0.00     0.001 A 
HETATM   24  C   UNL     1      42.636 -10.483  12.966  1.00  0.00     0.000 A 
HETATM   25  C   UNL     1      41.532 -10.868  12.206  1.00  0.00     0.001 A 
HETATM   26  C   UNL     1      41.668 -11.074  10.832  1.00  0.00     0.017 A 
ENDBRANCH  18  21
ENDBRANCH   9  17
TORSDOF 2
ENDMDL
MODEL 10
REMARK VINA RESULT:      -7.5      2.773      7.749
REMARK  2 active torsions:
REMARK  status: ('A' for Active; 'I' for Inactive)
REMARK    1  A    between atoms: N_9  and  N_11 
REMARK       I    between atoms: N_11  and  C_12 
REMARK    2  A    between atoms: C_12  and  C_13 
ROOT
HETATM    1  C   UNL     1      44.282 -17.388   1.396  1.00  0.00     0.033 C 
HETATM    2  C   UNL     1      43.392 -17.203   2.627  1.00  0.00     0.086 C 
HETATM    3  N   UNL     1      43.802 -18.124   3.704  1.00  0.00    -0.379 N 
HETATM    4  C   UNL     1      43.754 -19.572   3.498  1.00  0.00     0.150 C 
HETATM    5  C   UNL     1      43.474 -17.761   5.027  1.00  0.00     0.052 A 
HETATM    6  C   UNL     1      42.165 -17.455   5.478  1.00  0.00     0.040 A 
HETATM    7  N   UNL     1      41.024 -17.501   4.603  1.00  0.00    -0.246 NA
HETATM    8  C   UNL     1      41.109 -16.796   3.362  1.00  0.00     0.077 C 
HETATM    9  N   UNL     1      40.493 -15.627   3.328  1.00  0.00    -0.291 N 
HETATM   10  H   UNL     1      40.001 -15.386   4.197  1.00  0.00     0.188 HD
HETATM   11  C   UNL     1      41.913 -17.340   2.251  1.00  0.00     0.096 C 
HETATM   12  C   UNL     1      44.510 -17.770   5.975  1.00  0.00     0.031 A 
HETATM   13  C   UNL     1      44.268 -17.486   7.321  1.00  0.00     0.002 A 
HETATM   14  C   UNL     1      42.975 -17.200   7.750  1.00  0.00     0.002 A 
HETATM   15  C   UNL     1      41.925 -17.194   6.834  1.00  0.00     0.026 A 
HETATM   16  H   UNL     1      41.024 -18.499   4.371  1.00  0.00     0.135 HD
ENDROOT
BRANCH   9  17
HETATM   17  N   UNL     1      40.469 -14.751   2.336  1.00  0.00    -0.265 N 
HETATM   18  C   UNL     1      39.313 -14.689   1.576  1.00  0.00     0.270 C 
HETATM   19  O   UNL     1      38.347 -15.415   1.790  1.00  0.00    -0.266 OA
HETATM   20  H   UNL     1      41.216 -14.078   2.225  1.00  0.00     0.190 HD
BRANCH  18  21
HETATM   21  C   UNL     1      39.284 -13.657   0.507  1.00  0.00     0.033 A 
HETATM   22  C   UNL     1      40.391 -12.846   0.220  1.00  0.00     0.017 A 
HETATM   23  C   UNL     1      40.304 -11.876  -0.780  1.00  0.00     0.001 A 
HETATM   24  C   UNL     1      39.120 -11.718  -1.501  1.00  0.00     0.000 A 
HETATM   25  C   UNL     1      38.024 -12.538  -1.234  1.00  0.00     0.001 A 
HETATM   26  C   UNL     1      38.106 -13.509  -0.235  1.00  0.00     0.017 A 
ENDBRANCH  18  21
ENDBRANCH   9  17
TORSDOF 2
ENDMDL
