MODEL 1
REMARK VINA RESULT:      -8.7      0.000      0.000
REMARK  7 active torsions:
REMARK  status: ('A' for Active; 'I' for Inactive)
REMARK    1  A    between atoms: C_2  and  C_3 
REMARK    2  A    between atoms: C_2  and  C_20 
REMARK    3  A    between atoms: C_3  and  C_4 
REMARK       I    between atoms: C_4  and  N_5 
REMARK    4  A    between atoms: N_5  and  C_6 
REMARK    5  A    between atoms: C_13  and  C_14 
REMARK       I    between atoms: C_14  and  N_15 
REMARK    6  A    between atoms: C_20  and  C_21 
REMARK    7  A    between atoms: C_22  and  O_23 
ROOT
HETATM    1  C   UNL     1      43.591 -16.784   7.567  1.00  0.00     0.222 C 
HETATM    2  N   UNL     1      42.948 -15.704   7.036  1.00  0.00    -0.327 N 
HETATM    3  O   UNL     1      43.349 -17.062   8.747  1.00  0.00    -0.273 OA
HETATM    4  H   UNL     1      42.477 -15.181   7.765  1.00  0.00     0.169 HD
ENDROOT
BRANCH   2   5
HETATM    5  C   UNL     1      42.841 -15.192   5.732  1.00  0.00     0.035 A 
HETATM    6  C   UNL     1      41.913 -15.640   4.787  1.00  0.00     0.046 A 
HETATM    7  C   UNL     1      41.917 -15.091   3.486  1.00  0.00     0.030 A 
HETATM    8  C   UNL     1      42.805 -14.067   3.192  1.00  0.00     0.063 A 
HETATM    9  C   UNL     1      41.197 -15.318   2.276  1.00  0.00     0.156 A 
HETATM   10  N   UNL     1      42.573 -13.750   1.882  1.00  0.00    -0.277 N 
HETATM   11  C   UNL     1      43.698 -13.545   4.129  1.00  0.00     0.034 A 
HETATM   12  H   UNL     1      43.040 -13.040   1.329  1.00  0.00     0.189 HD
HETATM   13  N   UNL     1      41.614 -14.487   1.294  1.00  0.00    -0.168 NA
HETATM   14  C   UNL     1      43.691 -14.127   5.405  1.00  0.00     0.032 A 
BRANCH   9  15
HETATM   15  C   UNL     1      40.150 -16.323   2.041  1.00  0.00     0.270 C 
HETATM   16  N   UNL     1      38.879 -15.821   2.057  1.00  0.00    -0.365 N 
HETATM   17  H   UNL     1      38.751 -14.825   2.202  1.00  0.00     0.159 HD
HETATM   18  H   UNL     1      38.096 -16.428   1.872  1.00  0.00     0.159 HD
HETATM   19  O   UNL     1      40.365 -17.512   1.832  1.00  0.00    -0.266 OA
ENDBRANCH   9  15
ENDBRANCH   2   5
BRANCH   1  20
HETATM   20  C   UNL     1      44.671 -17.528   6.803  1.00  0.00     0.107 C 
BRANCH  20  21
HETATM   21  C   UNL     1      44.189 -18.754   6.002  1.00  0.00    -0.006 C 
HETATM   22  C   UNL     1      43.705 -19.910   6.884  1.00  0.00     0.011 C 
BRANCH  21  23
HETATM   23  C   UNL     1      45.245 -19.258   4.989  1.00  0.00     0.046 C 
BRANCH  23  24
HETATM   24  C   UNL     1      44.663 -20.067   3.838  1.00  0.00    -0.024 A 
HETATM   25  C   UNL     1      43.942 -19.458   2.792  1.00  0.00     0.074 A 
HETATM   26  C   UNL     1      43.393 -20.251   1.777  1.00  0.00     0.037 A 
HETATM   27  C   UNL     1      43.568 -21.637   1.783  1.00  0.00     0.003 A 
HETATM   28  C   UNL     1      44.304 -22.241   2.793  1.00  0.00     0.001 A 
HETATM   29  C   UNL     1      44.857 -21.461   3.808  1.00  0.00     0.010 A 
BRANCH  25  30
HETATM   30  O   UNL     1      43.819 -18.095   2.854  1.00  0.00    -0.355 OA
HETATM   31  C   UNL     1      44.176 -17.345   1.703  1.00  0.00     0.210 C 
ENDBRANCH  25  30
ENDBRANCH  23  24
ENDBRANCH  21  23
ENDBRANCH  20  21
ENDBRANCH   1  20
TORSDOF 7
ENDMDL
MODEL 2
REMARK VINA RESULT:      -8.4      1.998      3.054
REMARK  7 active torsions:
REMARK  status: ('A' for Active; 'I' for Inactive)
REMARK    1  A    between atoms: C_2  and  C_3 
REMARK    2  A    between atoms: C_2  and  C_20 
REMARK    3  A    between atoms: C_3  and  C_4 
REMARK       I    between atoms: C_4  and  N_5 
REMARK    4  A    between atoms: N_5  and  C_6 
REMARK    5  A    between atoms: C_13  and  C_14 
REMARK       I    between atoms: C_14  and  N_15 
REMARK    6  A    between atoms: C_20  and  C_21 
REMARK    7  A    between atoms: C_22  and  O_23 
ROOT
HETATM    1  C   UNL     1      44.239 -14.472   7.095  1.00  0.00     0.222 C 
HETATM    2  N   UNL     1      43.218 -13.800   6.487  1.00  0.00    -0.327 N 
HETATM    3  O   UNL     1      44.816 -13.899   8.026  1.00  0.00    -0.273 OA
HETATM    4  H   UNL     1      43.196 -12.836   6.798  1.00  0.00     0.169 HD
ENDROOT
BRANCH   2   5
HETATM    5  C   UNL     1      42.252 -14.171   5.536  1.00  0.00     0.035 A 
HETATM    6  C   UNL     1      42.383 -13.956   4.161  1.00  0.00     0.046 A 
HETATM    7  C   UNL     1      41.334 -14.326   3.292  1.00  0.00     0.030 A 
HETATM    8  C   UNL     1      40.216 -14.956   3.817  1.00  0.00     0.063 A 
HETATM    9  C   UNL     1      41.077 -14.219   1.893  1.00  0.00     0.156 A 
HETATM   10  N   UNL     1      39.393 -15.186   2.750  1.00  0.00    -0.277 N 
HETATM   11  C   UNL     1      40.080 -15.251   5.175  1.00  0.00     0.034 A 
HETATM   12  H   UNL     1      38.483 -15.633   2.760  1.00  0.00     0.189 HD
HETATM   13  N   UNL     1      39.874 -14.749   1.573  1.00  0.00    -0.168 NA
HETATM   14  C   UNL     1      41.125 -14.850   6.019  1.00  0.00     0.032 A 
BRANCH   9  15
HETATM   15  C   UNL     1      41.940 -13.600   0.876  1.00  0.00     0.270 C 
HETATM   16  N   UNL     1      42.028 -14.310  -0.290  1.00  0.00    -0.365 N 
HETATM   17  H   UNL     1      41.496 -15.168  -0.377  1.00  0.00     0.159 HD
HETATM   18  H   UNL     1      42.570 -13.948  -1.058  1.00  0.00     0.159 HD
HETATM   19  O   UNL     1      42.532 -12.537   1.023  1.00  0.00    -0.266 OA
ENDBRANCH   9  15
ENDBRANCH   2   5
BRANCH   1  20
HETATM   20  C   UNL     1      44.753 -15.797   6.564  1.00  0.00     0.107 C 
BRANCH  20  21
HETATM   21  C   UNL     1      43.798 -16.995   6.742  1.00  0.00    -0.006 C 
HETATM   22  C   UNL     1      43.378 -17.232   8.197  1.00  0.00     0.011 C 
BRANCH  21  23
HETATM   23  C   UNL     1      44.356 -18.301   6.126  1.00  0.00     0.046 C 
BRANCH  23  24
HETATM   24  C   UNL     1      43.860 -18.583   4.716  1.00  0.00    -0.024 A 
HETATM   25  C   UNL     1      44.361 -19.656   3.952  1.00  0.00     0.074 A 
HETATM   26  C   UNL     1      43.901 -19.849   2.644  1.00  0.00     0.037 A 
HETATM   27  C   UNL     1      42.937 -18.998   2.096  1.00  0.00     0.003 A 
HETATM   28  C   UNL     1      42.415 -17.958   2.853  1.00  0.00     0.001 A 
HETATM   29  C   UNL     1      42.865 -17.758   4.157  1.00  0.00     0.010 A 
BRANCH  25  30
HETATM   30  O   UNL     1      45.299 -20.447   4.562  1.00  0.00    -0.355 OA
HETATM   31  C   UNL     1      44.900 -21.745   4.977  1.00  0.00     0.210 C 
ENDBRANCH  25  30
ENDBRANCH  23  24
ENDBRANCH  21  23
ENDBRANCH  20  21
ENDBRANCH   1  20
TORSDOF 7
ENDMDL
MODEL 3
REMARK VINA RESULT:      -8.1      2.375      3.601
REMARK  7 active torsions:
REMARK  status: ('A' for Active; 'I' for Inactive)
REMARK    1  A    between atoms: C_2  and  C_3 
REMARK    2  A    between atoms: C_2  and  C_20 
REMARK    3  A    between atoms: C_3  and  C_4 
REMARK       I    between atoms: C_4  and  N_5 
REMARK    4  A    between atoms: N_5  and  C_6 
REMARK    5  A    between atoms: C_13  and  C_14 
REMARK       I    between atoms: C_14  and  N_15 
REMARK    6  A    between atoms: C_20  and  C_21 
REMARK    7  A    between atoms: C_22  and  O_23 
ROOT
HETATM    1  C   UNL     1      41.119 -16.527   5.409  1.00  0.00     0.222 C 
HETATM    2  N   UNL     1      40.422 -16.040   4.341  1.00  0.00    -0.327 N 
HETATM    3  O   UNL     1      40.493 -16.698   6.461  1.00  0.00    -0.273 OA
HETATM    4  H   UNL     1      39.503 -15.728   4.632  1.00  0.00     0.169 HD
ENDROOT
BRANCH   2   5
HETATM    5  C   UNL     1      40.735 -15.873   2.981  1.00  0.00     0.035 A 
HETATM    6  C   UNL     1      41.094 -14.651   2.404  1.00  0.00     0.046 A 
HETATM    7  C   UNL     1      41.346 -14.580   1.017  1.00  0.00     0.030 A 
HETATM    8  C   UNL     1      41.294 -15.743   0.263  1.00  0.00     0.063 A 
HETATM    9  C   UNL     1      41.666 -13.548   0.085  1.00  0.00     0.156 A 
HETATM   10  N   UNL     1      41.579 -15.359  -1.018  1.00  0.00    -0.277 N 
HETATM   11  C   UNL     1      41.008 -16.993   0.816  1.00  0.00     0.034 A 
HETATM   12  H   UNL     1      41.631 -15.951  -1.839  1.00  0.00     0.189 HD
HETATM   13  N   UNL     1      41.803 -14.042  -1.166  1.00  0.00    -0.168 NA
HETATM   14  C   UNL     1      40.736 -17.031   2.191  1.00  0.00     0.032 A 
BRANCH   9  15
HETATM   15  C   UNL     1      41.815 -12.112   0.367  1.00  0.00     0.270 C 
HETATM   16  N   UNL     1      40.656 -11.494   0.748  1.00  0.00    -0.365 N 
HETATM   17  H   UNL     1      39.812 -12.051   0.828  1.00  0.00     0.159 HD
HETATM   18  H   UNL     1      40.665 -10.517   0.994  1.00  0.00     0.159 HD
HETATM   19  O   UNL     1      42.872 -11.496   0.289  1.00  0.00    -0.266 OA
ENDBRANCH   9  15
ENDBRANCH   2   5
BRANCH   1  20
HETATM   20  C   UNL     1      42.624 -16.712   5.365  1.00  0.00     0.107 C 
BRANCH  20  21
HETATM   21  C   UNL     1      43.129 -18.118   5.749  1.00  0.00    -0.006 C 
HETATM   22  C   UNL     1      43.334 -18.304   7.256  1.00  0.00     0.011 C 
BRANCH  21  23
HETATM   23  C   UNL     1      44.410 -18.523   4.981  1.00  0.00     0.046 C 
BRANCH  23  24
HETATM   24  C   UNL     1      44.163 -19.486   3.829  1.00  0.00    -0.024 A 
HETATM   25  C   UNL     1      44.637 -20.813   3.855  1.00  0.00     0.074 A 
HETATM   26  C   UNL     1      44.419 -21.648   2.753  1.00  0.00     0.037 A 
HETATM   27  C   UNL     1      43.721 -21.184   1.635  1.00  0.00     0.003 A 
HETATM   28  C   UNL     1      43.223 -19.888   1.615  1.00  0.00     0.001 A 
HETATM   29  C   UNL     1      43.433 -19.048   2.708  1.00  0.00     0.010 A 
BRANCH  25  30
HETATM   30  O   UNL     1      45.307 -21.194   4.988  1.00  0.00    -0.355 OA
HETATM   31  C   UNL     1      45.219 -22.555   5.382  1.00  0.00     0.210 C 
ENDBRANCH  25  30
ENDBRANCH  23  24
ENDBRANCH  21  23
ENDBRANCH  20  21
ENDBRANCH   1  20
TORSDOF 7
ENDMDL
MODEL 4
REMARK VINA RESULT:      -8.1      1.889      5.069
REMARK  7 active torsions:
REMARK  status: ('A' for Active; 'I' for Inactive)
REMARK    1  A    between atoms: C_2  and  C_3 
REMARK    2  A    between atoms: C_2  and  C_20 
REMARK    3  A    between atoms: C_3  and  C_4 
REMARK       I    between atoms: C_4  and  N_5 
REMARK    4  A    between atoms: N_5  and  C_6 
REMARK    5  A    between atoms: C_13  and  C_14 
REMARK       I    between atoms: C_14  and  N_15 
REMARK    6  A    between atoms: C_20  and  C_21 
REMARK    7  A    between atoms: C_22  and  O_23 
ROOT
HETATM    1  C   UNL     1      42.119 -15.495   1.623  1.00  0.00     0.222 C 
HETATM    2  N   UNL     1      41.488 -15.411   2.830  1.00  0.00    -0.327 N 
HETATM    3  O   UNL     1      41.545 -14.994   0.649  1.00  0.00    -0.273 OA
HETATM    4  H   UNL     1      40.537 -15.081   2.709  1.00  0.00     0.169 HD
ENDROOT
BRANCH   2   5
HETATM    5  C   UNL     1      41.883 -15.705   4.146  1.00  0.00     0.035 A 
HETATM    6  C   UNL     1      42.836 -14.973   4.860  1.00  0.00     0.046 A 
HETATM    7  C   UNL     1      43.198 -15.377   6.164  1.00  0.00     0.030 A 
HETATM    8  C   UNL     1      42.548 -16.462   6.736  1.00  0.00     0.063 A 
HETATM    9  C   UNL     1      44.134 -14.944   7.149  1.00  0.00     0.156 A 
HETATM   10  N   UNL     1      43.103 -16.606   7.976  1.00  0.00    -0.277 N 
HETATM   11  C   UNL     1      41.542 -17.174   6.080  1.00  0.00     0.034 A 
HETATM   12  H   UNL     1      42.870 -17.299   8.677  1.00  0.00     0.189 HD
HETATM   13  N   UNL     1      44.068 -15.713   8.260  1.00  0.00    -0.168 NA
HETATM   14  C   UNL     1      41.221 -16.767   4.777  1.00  0.00     0.032 A 
BRANCH   9  15
HETATM   15  C   UNL     1      45.096 -13.838   7.034  1.00  0.00     0.270 C 
HETATM   16  N   UNL     1      45.186 -13.056   8.152  1.00  0.00    -0.365 N 
HETATM   17  H   UNL     1      44.622 -13.297   8.959  1.00  0.00     0.159 HD
HETATM   18  H   UNL     1      45.844 -12.294   8.179  1.00  0.00     0.159 HD
HETATM   19  O   UNL     1      45.783 -13.617   6.042  1.00  0.00    -0.266 OA
ENDBRANCH   9  15
ENDBRANCH   2   5
BRANCH   1  20
HETATM   20  C   UNL     1      43.394 -16.297   1.441  1.00  0.00     0.107 C 
BRANCH  20  21
HETATM   21  C   UNL     1      43.254 -17.818   1.650  1.00  0.00    -0.006 C 
HETATM   22  C   UNL     1      41.812 -18.323   1.532  1.00  0.00     0.011 C 
BRANCH  21  23
HETATM   23  C   UNL     1      43.882 -18.299   2.981  1.00  0.00     0.046 C 
BRANCH  23  24
HETATM   24  C   UNL     1      44.131 -19.799   3.043  1.00  0.00    -0.024 A 
HETATM   25  C   UNL     1      44.552 -20.434   4.228  1.00  0.00     0.074 A 
HETATM   26  C   UNL     1      44.806 -21.811   4.223  1.00  0.00     0.037 A 
HETATM   27  C   UNL     1      44.629 -22.563   3.059  1.00  0.00     0.003 A 
HETATM   28  C   UNL     1      44.183 -21.950   1.896  1.00  0.00     0.001 A 
HETATM   29  C   UNL     1      43.926 -20.580   1.890  1.00  0.00     0.010 A 
BRANCH  25  30
HETATM   30  O   UNL     1      44.698 -19.629   5.327  1.00  0.00    -0.355 OA
HETATM   31  C   UNL     1      43.932 -19.941   6.481  1.00  0.00     0.210 C 
ENDBRANCH  25  30
ENDBRANCH  23  24
ENDBRANCH  21  23
ENDBRANCH  20  21
ENDBRANCH   1  20
TORSDOF 7
ENDMDL
MODEL 5
REMARK VINA RESULT:      -8.0      3.623      5.509
REMARK  7 active torsions:
REMARK  status: ('A' for Active; 'I' for Inactive)
REMARK    1  A    between atoms: C_2  and  C_3 
REMARK    2  A    between atoms: C_2  and  C_20 
REMARK    3  A    between atoms: C_3  and  C_4 
REMARK       I    between atoms: C_4  and  N_5 
REMARK    4  A    between atoms: N_5  and  C_6 
REMARK    5  A    between atoms: C_13  and  C_14 
REMARK       I    between atoms: C_14  and  N_15 
REMARK    6  A    between atoms: C_20  and  C_21 
REMARK    7  A    between atoms: C_22  and  O_23 
ROOT
HETATM    1  C   UNL     1      40.771 -16.487   1.334  1.00  0.00     0.222 C 
HETATM    2  N   UNL     1      40.245 -15.654   0.388  1.00  0.00    -0.327 N 
HETATM    3  O   UNL     1      39.974 -17.105   2.048  1.00  0.00    -0.273 OA
HETATM    4  H   UNL     1      39.248 -15.543   0.532  1.00  0.00     0.169 HD
ENDROOT
BRANCH   2   5
HETATM    5  C   UNL     1      40.805 -14.936  -0.681  1.00  0.00     0.035 A 
HETATM    6  C   UNL     1      41.362 -13.659  -0.562  1.00  0.00     0.046 A 
HETATM    7  C   UNL     1      41.859 -13.001  -1.707  1.00  0.00     0.030 A 
HETATM    8  C   UNL     1      41.842 -13.666  -2.925  1.00  0.00     0.063 A 
HETATM    9  C   UNL     1      42.424 -11.722  -1.991  1.00  0.00     0.156 A 
HETATM   10  N   UNL     1      42.379 -12.789  -3.826  1.00  0.00    -0.277 N 
HETATM   11  C   UNL     1      41.358 -14.968  -3.071  1.00  0.00     0.034 A 
HETATM   12  H   UNL     1      42.524 -12.939  -4.817  1.00  0.00     0.189 HD
HETATM   13  N   UNL     1      42.737 -11.604  -3.302  1.00  0.00    -0.168 NA
HETATM   14  C   UNL     1      40.846 -15.587  -1.922  1.00  0.00     0.032 A 
BRANCH   9  15
HETATM   15  C   UNL     1      42.642 -10.618  -1.045  1.00  0.00     0.270 C 
HETATM   16  N   UNL     1      41.527  -9.866  -0.798  1.00  0.00    -0.365 N 
HETATM   17  H   UNL     1      40.657 -10.124  -1.249  1.00  0.00     0.159 HD
HETATM   18  H   UNL     1      41.570  -9.107  -0.136  1.00  0.00     0.159 HD
HETATM   19  O   UNL     1      43.712 -10.375  -0.498  1.00  0.00    -0.266 OA
ENDBRANCH   9  15
ENDBRANCH   2   5
BRANCH   1  20
HETATM   20  C   UNL     1      42.262 -16.546   1.607  1.00  0.00     0.107 C 
BRANCH  20  21
HETATM   21  C   UNL     1      42.686 -17.471   2.766  1.00  0.00    -0.006 C 
HETATM   22  C   UNL     1      42.559 -16.819   4.147  1.00  0.00     0.011 C 
BRANCH  21  23
HETATM   23  C   UNL     1      44.107 -18.053   2.576  1.00  0.00     0.046 C 
BRANCH  23  24
HETATM   24  C   UNL     1      44.196 -19.556   2.798  1.00  0.00    -0.024 A 
HETATM   25  C   UNL     1      44.661 -20.102   4.012  1.00  0.00     0.074 A 
HETATM   26  C   UNL     1      44.762 -21.491   4.151  1.00  0.00     0.037 A 
HETATM   27  C   UNL     1      44.391 -22.341   3.106  1.00  0.00     0.003 A 
HETATM   28  C   UNL     1      43.902 -21.812   1.919  1.00  0.00     0.001 A 
HETATM   29  C   UNL     1      43.796 -20.430   1.770  1.00  0.00     0.010 A 
BRANCH  25  30
HETATM   30  O   UNL     1      44.999 -19.204   4.989  1.00  0.00    -0.355 OA
HETATM   31  C   UNL     1      44.333 -19.304   6.239  1.00  0.00     0.210 C 
ENDBRANCH  25  30
ENDBRANCH  23  24
ENDBRANCH  21  23
ENDBRANCH  20  21
ENDBRANCH   1  20
TORSDOF 7
ENDMDL
MODEL 6
REMARK VINA RESULT:      -7.9      2.221      3.202
REMARK  7 active torsions:
REMARK  status: ('A' for Active; 'I' for Inactive)
REMARK    1  A    between atoms: C_2  and  C_3 
REMARK    2  A    between atoms: C_2  and  C_20 
REMARK    3  A    between atoms: C_3  and  C_4 
REMARK       I    between atoms: C_4  and  N_5 
REMARK    4  A    between atoms: N_5  and  C_6 
REMARK    5  A    between atoms: C_13  and  C_14 
REMARK       I    between atoms: C_14  and  N_15 
REMARK    6  A    between atoms: C_20  and  C_21 
REMARK    7  A    between atoms: C_22  and  O_23 
ROOT
HETATM    1  C   UNL     1      41.132 -16.594   5.307  1.00  0.00     0.222 C 
HETATM    2  N   UNL     1      40.419 -16.090   4.257  1.00  0.00    -0.327 N 
HETATM    3  O   UNL     1      40.524 -16.773   6.368  1.00  0.00    -0.273 OA
HETATM    4  H   UNL     1      39.507 -15.777   4.569  1.00  0.00     0.169 HD
ENDROOT
BRANCH   2   5
HETATM    5  C   UNL     1      40.709 -15.910   2.894  1.00  0.00     0.035 A 
HETATM    6  C   UNL     1      41.086 -14.688   2.328  1.00  0.00     0.046 A 
HETATM    7  C   UNL     1      41.312 -14.601   0.938  1.00  0.00     0.030 A 
HETATM    8  C   UNL     1      41.218 -15.751   0.168  1.00  0.00     0.063 A 
HETATM    9  C   UNL     1      41.638 -13.562   0.016  1.00  0.00     0.156 A 
HETATM   10  N   UNL     1      41.486 -15.354  -1.113  1.00  0.00    -0.277 N 
HETATM   11  C   UNL     1      40.912 -17.002   0.708  1.00  0.00     0.034 A 
HETATM   12  H   UNL     1      41.508 -15.934  -1.944  1.00  0.00     0.189 HD
HETATM   13  N   UNL     1      41.739 -14.040  -1.246  1.00  0.00    -0.168 NA
HETATM   14  C   UNL     1      40.667 -17.055   2.087  1.00  0.00     0.032 A 
BRANCH   9  15
HETATM   15  C   UNL     1      41.826 -12.135   0.315  1.00  0.00     0.270 C 
HETATM   16  N   UNL     1      40.675 -11.478   0.651  1.00  0.00    -0.365 N 
HETATM   17  H   UNL     1      39.809 -12.004   0.691  1.00  0.00     0.159 HD
HETATM   18  H   UNL     1      40.710 -10.504   0.906  1.00  0.00     0.159 HD
HETATM   19  O   UNL     1      42.908 -11.558   0.288  1.00  0.00    -0.266 OA
ENDBRANCH   9  15
ENDBRANCH   2   5
BRANCH   1  20
HETATM   20  C   UNL     1      42.635 -16.787   5.234  1.00  0.00     0.107 C 
BRANCH  20  21
HETATM   21  C   UNL     1      43.151 -18.150   5.738  1.00  0.00    -0.006 C 
HETATM   22  C   UNL     1      43.256 -18.239   7.264  1.00  0.00     0.011 C 
BRANCH  21  23
HETATM   23  C   UNL     1      44.494 -18.559   5.084  1.00  0.00     0.046 C 
BRANCH  23  24
HETATM   24  C   UNL     1      44.371 -19.687   4.070  1.00  0.00    -0.024 A 
HETATM   25  C   UNL     1      43.894 -19.463   2.763  1.00  0.00     0.074 A 
HETATM   26  C   UNL     1      43.763 -20.542   1.881  1.00  0.00     0.037 A 
HETATM   27  C   UNL     1      44.116 -21.834   2.277  1.00  0.00     0.003 A 
HETATM   28  C   UNL     1      44.617 -22.057   3.553  1.00  0.00     0.001 A 
HETATM   29  C   UNL     1      44.754 -20.990   4.440  1.00  0.00     0.010 A 
BRANCH  25  30
HETATM   30  O   UNL     1      43.575 -18.169   2.449  1.00  0.00    -0.355 OA
HETATM   31  C   UNL     1      44.355 -17.517   1.458  1.00  0.00     0.210 C 
ENDBRANCH  25  30
ENDBRANCH  23  24
ENDBRANCH  21  23
ENDBRANCH  20  21
ENDBRANCH   1  20
TORSDOF 7
ENDMDL
MODEL 7
REMARK VINA RESULT:      -7.8      2.815      4.734
REMARK  7 active torsions:
REMARK  status: ('A' for Active; 'I' for Inactive)
REMARK    1  A    between atoms: C_2  and  C_3 
REMARK    2  A    between atoms: C_2  and  C_20 
REMARK    3  A    between atoms: C_3  and  C_4 
REMARK       I    between atoms: C_4  and  N_5 
REMARK    4  A    between atoms: N_5  and  C_6 
REMARK    5  A    between atoms: C_13  and  C_14 
REMARK       I    between atoms: C_14  and  N_15 
REMARK    6  A    between atoms: C_20  and  C_21 
REMARK    7  A    between atoms: C_22  and  O_23 
ROOT
HETATM    1  C   UNL     1      40.879 -16.924   1.577  1.00  0.00     0.222 C 
HETATM    2  N   UNL     1      39.709 -16.221   1.595  1.00  0.00    -0.327 N 
HETATM    3  O   UNL     1      40.897 -17.973   0.924  1.00  0.00    -0.273 OA
HETATM    4  H   UNL     1      38.961 -16.771   1.188  1.00  0.00     0.169 HD
ENDROOT
BRANCH   2   5
HETATM    5  C   UNL     1      39.359 -14.946   2.071  1.00  0.00     0.035 A 
HETATM    6  C   UNL     1      39.765 -14.432   3.306  1.00  0.00     0.046 A 
HETATM    7  C   UNL     1      39.321 -13.156   3.714  1.00  0.00     0.030 A 
HETATM    8  C   UNL     1      38.538 -12.408   2.847  1.00  0.00     0.063 A 
HETATM    9  C   UNL     1      39.462 -12.345   4.879  1.00  0.00     0.156 A 
HETATM   10  N   UNL     1      38.272 -11.242   3.510  1.00  0.00    -0.277 N 
HETATM   11  C   UNL     1      38.170 -12.858   1.577  1.00  0.00     0.034 A 
HETATM   12  H   UNL     1      37.726 -10.456   3.177  1.00  0.00     0.189 HD
HETATM   13  N   UNL     1      38.808 -11.170   4.741  1.00  0.00    -0.168 NA
HETATM   14  C   UNL     1      38.603 -14.140   1.209  1.00  0.00     0.032 A 
BRANCH   9  15
HETATM   15  C   UNL     1      40.182 -12.685   6.115  1.00  0.00     0.270 C 
HETATM   16  N   UNL     1      39.375 -12.839   7.208  1.00  0.00    -0.365 N 
HETATM   17  H   UNL     1      38.373 -12.734   7.091  1.00  0.00     0.159 HD
HETATM   18  H   UNL     1      39.774 -13.106   8.094  1.00  0.00     0.159 HD
HETATM   19  O   UNL     1      41.396 -12.838   6.191  1.00  0.00    -0.266 OA
ENDBRANCH   9  15
ENDBRANCH   2   5
BRANCH   1  20
HETATM   20  C   UNL     1      42.064 -16.527   2.437  1.00  0.00     0.107 C 
BRANCH  20  21
HETATM   21  C   UNL     1      42.404 -17.500   3.584  1.00  0.00    -0.006 C 
HETATM   22  C   UNL     1      42.061 -16.953   4.973  1.00  0.00     0.011 C 
BRANCH  21  23
HETATM   23  C   UNL     1      43.876 -17.978   3.545  1.00  0.00     0.046 C 
BRANCH  23  24
HETATM   24  C   UNL     1      44.037 -19.468   3.279  1.00  0.00    -0.024 A 
HETATM   25  C   UNL     1      44.538 -20.348   4.259  1.00  0.00     0.074 A 
HETATM   26  C   UNL     1      44.706 -21.703   3.952  1.00  0.00     0.037 A 
HETATM   27  C   UNL     1      44.365 -22.194   2.689  1.00  0.00     0.003 A 
HETATM   28  C   UNL     1      43.840 -21.339   1.728  1.00  0.00     0.001 A 
HETATM   29  C   UNL     1      43.668 -19.988   2.024  1.00  0.00     0.010 A 
BRANCH  25  30
HETATM   30  O   UNL     1      44.844 -19.791   5.473  1.00  0.00    -0.355 OA
HETATM   31  C   UNL     1      43.898 -19.933   6.522  1.00  0.00     0.210 C 
ENDBRANCH  25  30
ENDBRANCH  23  24
ENDBRANCH  21  23
ENDBRANCH  20  21
ENDBRANCH   1  20
TORSDOF 7
ENDMDL
MODEL 8
REMARK VINA RESULT:      -7.8      3.077      4.606
REMARK  7 active torsions:
REMARK  status: ('A' for Active; 'I' for Inactive)
REMARK    1  A    between atoms: C_2  and  C_3 
REMARK    2  A    between atoms: C_2  and  C_20 
REMARK    3  A    between atoms: C_3  and  C_4 
REMARK       I    between atoms: C_4  and  N_5 
REMARK    4  A    between atoms: N_5  and  C_6 
REMARK    5  A    between atoms: C_13  and  C_14 
REMARK       I    between atoms: C_14  and  N_15 
REMARK    6  A    between atoms: C_20  and  C_21 
REMARK    7  A    between atoms: C_22  and  O_23 
ROOT
HETATM    1  C   UNL     1      43.328 -14.118   3.129  1.00  0.00     0.222 C 
HETATM    2  N   UNL     1      42.466 -13.314   2.440  1.00  0.00    -0.327 N 
HETATM    3  O   UNL     1      44.027 -13.583   3.997  1.00  0.00    -0.273 OA
HETATM    4  H   UNL     1      42.656 -12.339   2.641  1.00  0.00     0.169 HD
ENDROOT
BRANCH   2   5
HETATM    5  C   UNL     1      41.429 -13.572   1.527  1.00  0.00     0.035 A 
HETATM    6  C   UNL     1      41.613 -13.688   0.146  1.00  0.00     0.046 A 
HETATM    7  C   UNL     1      40.498 -13.903  -0.693  1.00  0.00     0.030 A 
HETATM    8  C   UNL     1      39.245 -14.060  -0.118  1.00  0.00     0.063 A 
HETATM    9  C   UNL     1      40.278 -14.012  -2.098  1.00  0.00     0.156 A 
HETATM   10  N   UNL     1      38.386 -14.251  -1.165  1.00  0.00    -0.277 N 
HETATM   11  C   UNL     1      39.033 -14.021   1.261  1.00  0.00     0.034 A 
HETATM   12  H   UNL     1      37.385 -14.402  -1.119  1.00  0.00     0.189 HD
HETATM   13  N   UNL     1      38.971 -14.222  -2.376  1.00  0.00    -0.168 NA
HETATM   14  C   UNL     1      40.153 -13.779   2.068  1.00  0.00     0.032 A 
BRANCH   9  15
HETATM   15  C   UNL     1      41.282 -13.891  -3.166  1.00  0.00     0.270 C 
HETATM   16  N   UNL     1      42.087 -14.988  -3.302  1.00  0.00    -0.365 N 
HETATM   17  H   UNL     1      41.928 -15.786  -2.697  1.00  0.00     0.159 HD
HETATM   18  H   UNL     1      42.783 -15.012  -4.030  1.00  0.00     0.159 HD
HETATM   19  O   UNL     1      41.405 -12.914  -3.895  1.00  0.00    -0.266 OA
ENDBRANCH   9  15
ENDBRANCH   2   5
BRANCH   1  20
HETATM   20  C   UNL     1      43.537 -15.573   2.754  1.00  0.00     0.107 C 
BRANCH  20  21
HETATM   21  C   UNL     1      42.725 -16.592   3.578  1.00  0.00    -0.006 C 
HETATM   22  C   UNL     1      41.672 -15.946   4.485  1.00  0.00     0.011 C 
BRANCH  21  23
HETATM   23  C   UNL     1      43.622 -17.550   4.397  1.00  0.00     0.046 C 
BRANCH  23  24
HETATM   24  C   UNL     1      43.844 -18.905   3.741  1.00  0.00    -0.024 A 
HETATM   25  C   UNL     1      44.416 -19.986   4.443  1.00  0.00     0.074 A 
HETATM   26  C   UNL     1      44.636 -21.200   3.782  1.00  0.00     0.037 A 
HETATM   27  C   UNL     1      44.279 -21.356   2.440  1.00  0.00     0.003 A 
HETATM   28  C   UNL     1      43.686 -20.306   1.752  1.00  0.00     0.001 A 
HETATM   29  C   UNL     1      43.461 -19.093   2.400  1.00  0.00     0.010 A 
BRANCH  25  30
HETATM   30  O   UNL     1      44.733 -19.755   5.755  1.00  0.00    -0.355 OA
HETATM   31  C   UNL     1      43.857 -20.270   6.747  1.00  0.00     0.210 C 
ENDBRANCH  25  30
ENDBRANCH  23  24
ENDBRANCH  21  23
ENDBRANCH  20  21
ENDBRANCH   1  20
TORSDOF 7
ENDMDL
MODEL 9
REMARK VINA RESULT:      -7.8      1.775      1.999
REMARK  7 active torsions:
REMARK  status: ('A' for Active; 'I' for Inactive)
REMARK    1  A    between atoms: C_2  and  C_3 
REMARK    2  A    between atoms: C_2  and  C_20 
REMARK    3  A    between atoms: C_3  and  C_4 
REMARK       I    between atoms: C_4  and  N_5 
REMARK    4  A    between atoms: N_5  and  C_6 
REMARK    5  A    between atoms: C_13  and  C_14 
REMARK       I    between atoms: C_14  and  N_15 
REMARK    6  A    between atoms: C_20  and  C_21 
REMARK    7  A    between atoms: C_22  and  O_23 
ROOT
HETATM    1  C   UNL     1      41.057 -16.601   6.223  1.00  0.00     0.222 C 
HETATM    2  N   UNL     1      40.436 -15.636   5.483  1.00  0.00    -0.327 N 
HETATM    3  O   UNL     1      40.340 -17.325   6.922  1.00  0.00    -0.273 OA
HETATM    4  H   UNL     1      39.463 -15.554   5.757  1.00  0.00     0.169 HD
ENDROOT
BRANCH   2   5
HETATM    5  C   UNL     1      40.877 -14.759   4.478  1.00  0.00     0.035 A 
HETATM    6  C   UNL     1      40.700 -14.983   3.110  1.00  0.00     0.046 A 
HETATM    7  C   UNL     1      41.222 -14.061   2.176  1.00  0.00     0.030 A 
HETATM    8  C   UNL     1      41.847 -12.914   2.642  1.00  0.00     0.063 A 
HETATM    9  C   UNL     1      41.295 -13.973   0.754  1.00  0.00     0.156 A 
HETATM   10  N   UNL     1      42.237 -12.232   1.523  1.00  0.00    -0.277 N 
HETATM   11  C   UNL     1      41.982 -12.622   4.001  1.00  0.00     0.034 A 
HETATM   12  H   UNL     1      42.724 -11.344   1.482  1.00  0.00     0.189 HD
HETATM   13  N   UNL     1      41.927 -12.842   0.365  1.00  0.00    -0.168 NA
HETATM   14  C   UNL     1      41.478 -13.567   4.905  1.00  0.00     0.032 A 
BRANCH   9  15
HETATM   15  C   UNL     1      40.801 -14.954  -0.223  1.00  0.00     0.270 C 
HETATM   16  N   UNL     1      39.621 -14.604  -0.819  1.00  0.00    -0.365 N 
HETATM   17  H   UNL     1      39.196 -13.717  -0.572  1.00  0.00     0.159 HD
HETATM   18  H   UNL     1      39.221 -15.198  -1.528  1.00  0.00     0.159 HD
HETATM   19  O   UNL     1      41.378 -15.997  -0.511  1.00  0.00    -0.266 OA
ENDBRANCH   9  15
ENDBRANCH   2   5
BRANCH   1  20
HETATM   20  C   UNL     1      42.569 -16.693   6.309  1.00  0.00     0.107 C 
BRANCH  20  21
HETATM   21  C   UNL     1      43.153 -18.114   6.174  1.00  0.00    -0.006 C 
HETATM   22  C   UNL     1      43.510 -18.759   7.518  1.00  0.00     0.011 C 
BRANCH  21  23
HETATM   23  C   UNL     1      44.365 -18.173   5.214  1.00  0.00     0.046 C 
BRANCH  23  24
HETATM   24  C   UNL     1      44.215 -19.185   4.088  1.00  0.00    -0.024 A 
HETATM   25  C   UNL     1      43.601 -18.850   2.864  1.00  0.00     0.074 A 
HETATM   26  C   UNL     1      43.451 -19.829   1.875  1.00  0.00     0.037 A 
HETATM   27  C   UNL     1      43.920 -21.129   2.082  1.00  0.00     0.003 A 
HETATM   28  C   UNL     1      44.555 -21.458   3.272  1.00  0.00     0.001 A 
HETATM   29  C   UNL     1      44.711 -20.491   4.264  1.00  0.00     0.010 A 
BRANCH  25  30
HETATM   30  O   UNL     1      43.173 -17.555   2.736  1.00  0.00    -0.355 OA
HETATM   31  C   UNL     1      43.845 -16.727   1.799  1.00  0.00     0.210 C 
ENDBRANCH  25  30
ENDBRANCH  23  24
ENDBRANCH  21  23
ENDBRANCH  20  21
ENDBRANCH   1  20
TORSDOF 7
ENDMDL
MODEL 10
REMARK VINA RESULT:      -7.7      2.744      4.198
REMARK  7 active torsions:
REMARK  status: ('A' for Active; 'I' for Inactive)
REMARK    1  A    between atoms: C_2  and  C_3 
REMARK    2  A    between atoms: C_2  and  C_20 
REMARK    3  A    between atoms: C_3  and  C_4 
REMARK       I    between atoms: C_4  and  N_5 
REMARK    4  A    between atoms: N_5  and  C_6 
REMARK    5  A    between atoms: C_13  and  C_14 
REMARK       I    between atoms: C_14  and  N_15 
REMARK    6  A    between atoms: C_20  and  C_21 
REMARK    7  A    between atoms: C_22  and  O_23 
ROOT
HETATM    1  C   UNL     1      42.504 -13.976   5.093  1.00  0.00     0.222 C 
HETATM    2  N   UNL     1      41.933 -13.224   4.107  1.00  0.00    -0.327 N 
HETATM    3  O   UNL     1      42.833 -13.390   6.130  1.00  0.00    -0.273 OA
HETATM    4  H   UNL     1      42.018 -12.237   4.321  1.00  0.00     0.169 HD
ENDROOT
BRANCH   2   5
HETATM    5  C   UNL     1      41.301 -13.546   2.894  1.00  0.00     0.035 A 
HETATM    6  C   UNL     1      41.868 -13.333   1.634  1.00  0.00     0.046 A 
HETATM    7  C   UNL     1      41.132 -13.649   0.472  1.00  0.00     0.030 A 
HETATM    8  C   UNL     1      39.878 -14.228   0.607  1.00  0.00     0.063 A 
HETATM    9  C   UNL     1      41.333 -13.525  -0.935  1.00  0.00     0.156 A 
HETATM   10  N   UNL     1      39.424 -14.415  -0.669  1.00  0.00    -0.277 N 
HETATM   11  C   UNL     1      39.308 -14.521   1.848  1.00  0.00     0.034 A 
HETATM   12  H   UNL     1      38.540 -14.819  -0.954  1.00  0.00     0.189 HD
HETATM   13  N   UNL     1      40.271 -13.998  -1.626  1.00  0.00    -0.168 NA
HETATM   14  C   UNL     1      40.050 -14.172   2.985  1.00  0.00     0.032 A 
BRANCH   9  15
HETATM   15  C   UNL     1      42.500 -12.945  -1.617  1.00  0.00     0.270 C 
HETATM   16  N   UNL     1      42.842 -13.581  -2.778  1.00  0.00    -0.365 N 
HETATM   17  H   UNL     1      42.278 -14.365  -3.088  1.00  0.00     0.159 HD
HETATM   18  H   UNL     1      43.608 -13.235  -3.333  1.00  0.00     0.159 HD
HETATM   19  O   UNL     1      43.124 -11.970  -1.214  1.00  0.00    -0.266 OA
ENDBRANCH   9  15
ENDBRANCH   2   5
BRANCH   1  20
HETATM   20  C   UNL     1      42.864 -15.434   4.880  1.00  0.00     0.107 C 
BRANCH  20  21
HETATM   21  C   UNL     1      41.994 -16.449   5.649  1.00  0.00    -0.006 C 
HETATM   22  C   UNL     1      42.586 -16.862   7.001  1.00  0.00     0.011 C 
BRANCH  21  23
HETATM   23  C   UNL     1      41.653 -17.702   4.808  1.00  0.00     0.046 C 
BRANCH  23  24
HETATM   24  C   UNL     1      42.343 -17.747   3.453  1.00  0.00    -0.024 A 
HETATM   25  C   UNL     1      43.655 -18.242   3.303  1.00  0.00     0.074 A 
HETATM   26  C   UNL     1      44.260 -18.224   2.041  1.00  0.00     0.037 A 
HETATM   27  C   UNL     1      43.572 -17.737   0.927  1.00  0.00     0.003 A 
HETATM   28  C   UNL     1      42.269 -17.278   1.061  1.00  0.00     0.001 A 
HETATM   29  C   UNL     1      41.655 -17.292   2.313  1.00  0.00     0.010 A 
BRANCH  25  30
HETATM   30  O   UNL     1      44.260 -18.706   4.441  1.00  0.00    -0.355 OA
HETATM   31  C   UNL     1      44.653 -20.070   4.471  1.00  0.00     0.210 C 
ENDBRANCH  25  30
ENDBRANCH  23  24
ENDBRANCH  21  23
ENDBRANCH  20  21
ENDBRANCH   1  20
TORSDOF 7
ENDMDL
