MODEL 1
REMARK VINA RESULT:      -8.0      0.000      0.000
REMARK  6 active torsions:
REMARK  status: ('A' for Active; 'I' for Inactive)
REMARK    1  A    between atoms: C_4  and  O_5 
REMARK    2  A    between atoms: O_5  and  C_6 
REMARK    3  A    between atoms: C_6  and  C_7 
REMARK    4  A    between atoms: C_11  and  C_12 
REMARK    5  A    between atoms: C_12  and  N_13 
REMARK       I    between atoms: N_13  and  C_14 
REMARK       I    between atoms: C_14  and  N_15 
REMARK    6  A    between atoms: N_15  and  C_16 
ROOT
HETATM    1  C   UNL     1      43.165 -17.985   1.755  1.00  0.00     0.165 C 
ENDROOT
BRANCH   1   2
HETATM    2  C   UNL     1      43.645 -19.237   2.448  1.00  0.00    -0.007 A 
HETATM    3  C   UNL     1      44.163 -19.203   3.754  1.00  0.00     0.077 A 
HETATM    4  C   UNL     1      44.610 -20.384   4.358  1.00  0.00     0.044 A 
HETATM    5  C   UNL     1      44.520 -21.611   3.687  1.00  0.00    -0.059 A 
HETATM    6  C   UNL     1      44.978 -22.881   4.344  1.00  0.00     0.048 C 
HETATM    7  C   UNL     1      43.956 -21.650   2.408  1.00  0.00     0.007 A 
HETATM    8  C   UNL     1      43.527 -20.473   1.792  1.00  0.00     0.012 A 
BRANCH   3   9
HETATM    9  O   UNL     1      44.220 -17.971   4.347  1.00  0.00    -0.342 OA
BRANCH   9  10
HETATM   10  C   UNL     1      43.606 -17.838   5.634  1.00  0.00     0.293 C 
BRANCH  10  11
HETATM   11  C   UNL     1      44.644 -17.438   6.672  1.00  0.00     0.408 C 
HETATM   12  F   UNL     1      44.299 -17.863   7.908  1.00  0.00    -0.169 F 
HETATM   13  F   UNL     1      45.841 -17.997   6.375  1.00  0.00    -0.169 F 
HETATM   14  F   UNL     1      44.822 -16.102   6.718  1.00  0.00    -0.169 F 
ENDBRANCH  10  11
ENDBRANCH   9  10
ENDBRANCH   3   9
ENDBRANCH   1   2
BRANCH   1  15
HETATM   15  N   UNL     1      41.906 -17.534   2.309  1.00  0.00    -0.339 N 
HETATM   16  C   UNL     1      41.765 -16.199   2.622  1.00  0.00     0.321 C 
HETATM   17  N   UNL     1      40.531 -15.962   3.184  1.00  0.00    -0.307 N 
HETATM   18  O   UNL     1      42.631 -15.365   2.398  1.00  0.00    -0.247 OA
HETATM   19  H   UNL     1      39.824 -16.638   2.943  1.00  0.00     0.170 HD
HETATM   20  H   UNL     1      41.486 -18.158   2.982  1.00  0.00     0.164 HD
BRANCH  17  21
HETATM   21  C   UNL     1      40.117 -14.769   3.820  1.00  0.00     0.059 A 
HETATM   22  C   UNL     1      40.191 -14.663   5.220  1.00  0.00    -0.032 A 
HETATM   23  C   UNL     1      40.631 -15.801   6.096  1.00  0.00     0.050 C 
HETATM   24  C   UNL     1      39.827 -13.450   5.822  1.00  0.00     0.028 A 
HETATM   25  C   UNL     1      39.407 -12.398   5.024  1.00  0.00     0.117 A 
HETATM   26  N   UNL     1      39.323 -12.468   3.684  1.00  0.00    -0.271 NA
HETATM   27  C   UNL     1      39.675 -13.649   3.113  1.00  0.00     0.146 A 
ENDBRANCH  17  21
ENDBRANCH   1  15
TORSDOF 6
ENDMDL
MODEL 2
REMARK VINA RESULT:      -7.7      4.093      5.603
REMARK  6 active torsions:
REMARK  status: ('A' for Active; 'I' for Inactive)
REMARK    1  A    between atoms: C_4  and  O_5 
REMARK    2  A    between atoms: O_5  and  C_6 
REMARK    3  A    between atoms: C_6  and  C_7 
REMARK    4  A    between atoms: C_11  and  C_12 
REMARK    5  A    between atoms: C_12  and  N_13 
REMARK       I    between atoms: N_13  and  C_14 
REMARK       I    between atoms: C_14  and  N_15 
REMARK    6  A    between atoms: N_15  and  C_16 
ROOT
HETATM    1  C   UNL     1      41.119 -17.145   2.381  1.00  0.00     0.165 C 
ENDROOT
BRANCH   1   2
HETATM    2  C   UNL     1      42.164 -17.405   3.438  1.00  0.00    -0.007 A 
HETATM    3  C   UNL     1      43.019 -18.518   3.369  1.00  0.00     0.077 A 
HETATM    4  C   UNL     1      43.967 -18.733   4.377  1.00  0.00     0.044 A 
HETATM    5  C   UNL     1      44.097 -17.831   5.443  1.00  0.00    -0.059 A 
HETATM    6  C   UNL     1      45.129 -18.049   6.510  1.00  0.00     0.048 C 
HETATM    7  C   UNL     1      43.281 -16.697   5.480  1.00  0.00     0.007 A 
HETATM    8  C   UNL     1      42.319 -16.489   4.491  1.00  0.00     0.012 A 
BRANCH   3   9
HETATM    9  O   UNL     1      42.835 -19.354   2.302  1.00  0.00    -0.342 OA
BRANCH   9  10
HETATM   10  C   UNL     1      43.970 -20.107   1.859  1.00  0.00     0.293 C 
BRANCH  10  11
HETATM   11  C   UNL     1      43.628 -21.588   1.804  1.00  0.00     0.408 C 
HETATM   12  F   UNL     1      44.311 -22.219   0.823  1.00  0.00    -0.169 F 
HETATM   13  F   UNL     1      43.958 -22.188   2.973  1.00  0.00    -0.169 F 
HETATM   14  F   UNL     1      42.310 -21.794   1.602  1.00  0.00    -0.169 F 
ENDBRANCH  10  11
ENDBRANCH   9  10
ENDBRANCH   3   9
ENDBRANCH   1   2
BRANCH   1  15
HETATM   15  N   UNL     1      41.724 -16.658   1.160  1.00  0.00    -0.339 N 
HETATM   16  C   UNL     1      41.270 -15.470   0.628  1.00  0.00     0.321 C 
HETATM   17  N   UNL     1      41.917 -15.190  -0.554  1.00  0.00    -0.307 N 
HETATM   18  O   UNL     1      40.420 -14.777   1.170  1.00  0.00    -0.247 OA
HETATM   19  H   UNL     1      42.820 -15.627  -0.650  1.00  0.00     0.170 HD
HETATM   20  H   UNL     1      41.924 -17.365   0.468  1.00  0.00     0.164 HD
BRANCH  17  21
HETATM   21  C   UNL     1      41.567 -14.182  -1.481  1.00  0.00     0.059 A 
HETATM   22  C   UNL     1      40.874 -14.523  -2.656  1.00  0.00    -0.032 A 
HETATM   23  C   UNL     1      40.542 -15.944  -3.015  1.00  0.00     0.050 C 
HETATM   24  C   UNL     1      40.489 -13.498  -3.531  1.00  0.00     0.028 A 
HETATM   25  C   UNL     1      40.803 -12.186  -3.216  1.00  0.00     0.117 A 
HETATM   26  N   UNL     1      41.466 -11.826  -2.102  1.00  0.00    -0.271 NA
HETATM   27  C   UNL     1      41.836 -12.829  -1.264  1.00  0.00     0.146 A 
ENDBRANCH  17  21
ENDBRANCH   1  15
TORSDOF 6
ENDMDL
MODEL 3
REMARK VINA RESULT:      -7.7      0.660      1.598
REMARK  6 active torsions:
REMARK  status: ('A' for Active; 'I' for Inactive)
REMARK    1  A    between atoms: C_4  and  O_5 
REMARK    2  A    between atoms: O_5  and  C_6 
REMARK    3  A    between atoms: C_6  and  C_7 
REMARK    4  A    between atoms: C_11  and  C_12 
REMARK    5  A    between atoms: C_12  and  N_13 
REMARK       I    between atoms: N_13  and  C_14 
REMARK       I    between atoms: C_14  and  N_15 
REMARK    6  A    between atoms: N_15  and  C_16 
ROOT
HETATM    1  C   UNL     1      43.200 -18.002   1.758  1.00  0.00     0.165 C 
ENDROOT
BRANCH   1   2
HETATM    2  C   UNL     1      43.679 -19.233   2.489  1.00  0.00    -0.007 A 
HETATM    3  C   UNL     1      44.133 -19.171   3.818  1.00  0.00     0.077 A 
HETATM    4  C   UNL     1      44.582 -20.332   4.457  1.00  0.00     0.044 A 
HETATM    5  C   UNL     1      44.556 -21.569   3.798  1.00  0.00    -0.059 A 
HETATM    6  C   UNL     1      45.015 -22.818   4.491  1.00  0.00     0.048 C 
HETATM    7  C   UNL     1      44.054 -21.637   2.495  1.00  0.00     0.007 A 
HETATM    8  C   UNL     1      43.625 -20.479   1.844  1.00  0.00     0.012 A 
BRANCH   3   9
HETATM    9  O   UNL     1      44.130 -17.931   4.397  1.00  0.00    -0.342 OA
BRANCH   9  10
HETATM   10  C   UNL     1      43.522 -17.816   5.688  1.00  0.00     0.293 C 
BRANCH  10  11
HETATM   11  C   UNL     1      44.557 -17.398   6.721  1.00  0.00     0.408 C 
HETATM   12  F   UNL     1      44.839 -16.079   6.637  1.00  0.00    -0.169 F 
HETATM   13  F   UNL     1      44.090 -17.630   7.971  1.00  0.00    -0.169 F 
HETATM   14  F   UNL     1      45.710 -18.087   6.586  1.00  0.00    -0.169 F 
ENDBRANCH  10  11
ENDBRANCH   9  10
ENDBRANCH   3   9
ENDBRANCH   1   2
BRANCH   1  15
HETATM   15  N   UNL     1      41.950 -17.524   2.310  1.00  0.00    -0.339 N 
HETATM   16  C   UNL     1      41.861 -16.202   2.690  1.00  0.00     0.321 C 
HETATM   17  N   UNL     1      40.627 -15.938   3.239  1.00  0.00    -0.307 N 
HETATM   18  O   UNL     1      42.769 -15.398   2.529  1.00  0.00    -0.247 OA
HETATM   19  H   UNL     1      39.896 -16.568   2.947  1.00  0.00     0.170 HD
HETATM   20  H   UNL     1      41.487 -18.162   2.940  1.00  0.00     0.164 HD
BRANCH  17  21
HETATM   21  C   UNL     1      40.252 -14.763   3.929  1.00  0.00     0.059 A 
HETATM   22  C   UNL     1      39.709 -13.679   3.218  1.00  0.00    -0.032 A 
HETATM   23  C   UNL     1      39.570 -13.680   1.722  1.00  0.00     0.050 C 
HETATM   24  C   UNL     1      39.292 -12.547   3.934  1.00  0.00     0.028 A 
HETATM   25  C   UNL     1      39.428 -12.530   5.312  1.00  0.00     0.117 A 
HETATM   26  N   UNL     1      39.945 -13.549   6.021  1.00  0.00    -0.271 NA
HETATM   27  C   UNL     1      40.348 -14.638   5.317  1.00  0.00     0.146 A 
ENDBRANCH  17  21
ENDBRANCH   1  15
TORSDOF 6
ENDMDL
MODEL 4
REMARK VINA RESULT:      -7.6      3.090      4.194
REMARK  6 active torsions:
REMARK  status: ('A' for Active; 'I' for Inactive)
REMARK    1  A    between atoms: C_4  and  O_5 
REMARK    2  A    between atoms: O_5  and  C_6 
REMARK    3  A    between atoms: C_6  and  C_7 
REMARK    4  A    between atoms: C_11  and  C_12 
REMARK    5  A    between atoms: C_12  and  N_13 
REMARK       I    between atoms: N_13  and  C_14 
REMARK       I    between atoms: C_14  and  N_15 
REMARK    6  A    between atoms: N_15  and  C_16 
ROOT
HETATM    1  C   UNL     1      42.530 -16.750   2.987  1.00  0.00     0.165 C 
ENDROOT
BRANCH   1   2
HETATM    2  C   UNL     1      43.112 -18.143   2.964  1.00  0.00    -0.007 A 
HETATM    3  C   UNL     1      43.856 -18.647   4.044  1.00  0.00     0.077 A 
HETATM    4  C   UNL     1      44.391 -19.939   3.980  1.00  0.00     0.044 A 
HETATM    5  C   UNL     1      44.167 -20.753   2.861  1.00  0.00    -0.059 A 
HETATM    6  C   UNL     1      44.721 -22.147   2.803  1.00  0.00     0.048 C 
HETATM    7  C   UNL     1      43.382 -20.268   1.811  1.00  0.00     0.007 A 
HETATM    8  C   UNL     1      42.864 -18.973   1.860  1.00  0.00     0.012 A 
BRANCH   3   9
HETATM    9  O   UNL     1      44.034 -17.797   5.102  1.00  0.00    -0.342 OA
BRANCH   9  10
HETATM   10  C   UNL     1      44.785 -18.292   6.217  1.00  0.00     0.293 C 
BRANCH  10  11
HETATM   11  C   UNL     1      43.847 -18.701   7.342  1.00  0.00     0.408 C 
HETATM   12  F   UNL     1      42.717 -17.960   7.342  1.00  0.00    -0.169 F 
HETATM   13  F   UNL     1      43.478 -19.996   7.195  1.00  0.00    -0.169 F 
HETATM   14  F   UNL     1      44.432 -18.583   8.553  1.00  0.00    -0.169 F 
ENDBRANCH  10  11
ENDBRANCH   9  10
ENDBRANCH   3   9
ENDBRANCH   1   2
BRANCH   1  15
HETATM   15  N   UNL     1      42.705 -16.092   1.710  1.00  0.00    -0.339 N 
HETATM   16  C   UNL     1      41.584 -15.795   0.964  1.00  0.00     0.321 C 
HETATM   17  N   UNL     1      41.941 -15.224  -0.237  1.00  0.00    -0.307 N 
HETATM   18  O   UNL     1      40.445 -16.006   1.356  1.00  0.00    -0.247 OA
HETATM   19  H   UNL     1      42.843 -14.776  -0.236  1.00  0.00     0.170 HD
HETATM   20  H   UNL     1      43.485 -16.422   1.161  1.00  0.00     0.164 HD
BRANCH  17  21
HETATM   21  C   UNL     1      41.085 -14.988  -1.337  1.00  0.00     0.059 A 
HETATM   22  C   UNL     1      40.321 -13.809  -1.388  1.00  0.00    -0.032 A 
HETATM   23  C   UNL     1      40.316 -12.801  -0.274  1.00  0.00     0.050 C 
HETATM   24  C   UNL     1      39.524 -13.572  -2.516  1.00  0.00     0.028 A 
HETATM   25  C   UNL     1      39.512 -14.502  -3.543  1.00  0.00     0.117 A 
HETATM   26  N   UNL     1      40.229 -15.640  -3.525  1.00  0.00    -0.271 NA
HETATM   27  C   UNL     1      40.994 -15.860  -2.425  1.00  0.00     0.146 A 
ENDBRANCH  17  21
ENDBRANCH   1  15
TORSDOF 6
ENDMDL
MODEL 5
REMARK VINA RESULT:      -7.6      2.843      3.814
REMARK  6 active torsions:
REMARK  status: ('A' for Active; 'I' for Inactive)
REMARK    1  A    between atoms: C_4  and  O_5 
REMARK    2  A    between atoms: O_5  and  C_6 
REMARK    3  A    between atoms: C_6  and  C_7 
REMARK    4  A    between atoms: C_11  and  C_12 
REMARK    5  A    between atoms: C_12  and  N_13 
REMARK       I    between atoms: N_13  and  C_14 
REMARK       I    between atoms: C_14  and  N_15 
REMARK    6  A    between atoms: N_15  and  C_16 
ROOT
HETATM    1  C   UNL     1      43.670 -17.161   5.204  1.00  0.00     0.165 C 
ENDROOT
BRANCH   1   2
HETATM    2  C   UNL     1      43.892 -18.384   4.349  1.00  0.00    -0.007 A 
HETATM    3  C   UNL     1      43.661 -18.366   2.963  1.00  0.00     0.077 A 
HETATM    4  C   UNL     1      43.866 -19.525   2.205  1.00  0.00     0.044 A 
HETATM    5  C   UNL     1      44.331 -20.702   2.808  1.00  0.00    -0.059 A 
HETATM    6  C   UNL     1      44.573 -21.938   1.992  1.00  0.00     0.048 C 
HETATM    7  C   UNL     1      44.610 -20.703   4.178  1.00  0.00     0.007 A 
HETATM    8  C   UNL     1      44.388 -19.556   4.942  1.00  0.00     0.012 A 
BRANCH   3   9
HETATM    9  O   UNL     1      43.208 -17.183   2.444  1.00  0.00    -0.342 OA
BRANCH   9  10
HETATM   10  C   UNL     1      42.712 -17.207   1.101  1.00  0.00     0.293 C 
BRANCH  10  11
HETATM   11  C   UNL     1      41.191 -17.196   1.102  1.00  0.00     0.408 C 
HETATM   12  F   UNL     1      40.697 -16.942   2.334  1.00  0.00    -0.169 F 
HETATM   13  F   UNL     1      40.730 -16.226   0.277  1.00  0.00    -0.169 F 
HETATM   14  F   UNL     1      40.679 -18.368   0.674  1.00  0.00    -0.169 F 
ENDBRANCH  10  11
ENDBRANCH   9  10
ENDBRANCH   3   9
ENDBRANCH   1   2
BRANCH   1  15
HETATM   15  N   UNL     1      42.301 -16.699   5.106  1.00  0.00    -0.339 N 
HETATM   16  C   UNL     1      42.072 -15.352   4.923  1.00  0.00     0.321 C 
HETATM   17  N   UNL     1      40.721 -15.089   4.907  1.00  0.00    -0.307 N 
HETATM   18  O   UNL     1      42.971 -14.535   4.779  1.00  0.00    -0.247 OA
HETATM   19  H   UNL     1      40.145 -15.875   4.649  1.00  0.00     0.170 HD
HETATM   20  H   UNL     1      41.653 -17.141   5.741  1.00  0.00     0.164 HD
BRANCH  17  21
HETATM   21  C   UNL     1      40.117 -13.813   4.955  1.00  0.00     0.059 A 
HETATM   22  C   UNL     1      39.765 -13.160   3.761  1.00  0.00    -0.032 A 
HETATM   23  C   UNL     1      40.070 -13.734   2.406  1.00  0.00     0.050 C 
HETATM   24  C   UNL     1      39.116 -11.920   3.838  1.00  0.00     0.028 A 
HETATM   25  C   UNL     1      38.842 -11.376   5.082  1.00  0.00     0.117 A 
HETATM   26  N   UNL     1      39.167 -11.973   6.243  1.00  0.00    -0.271 NA
HETATM   27  C   UNL     1      39.799 -13.172   6.155  1.00  0.00     0.146 A 
ENDBRANCH  17  21
ENDBRANCH   1  15
TORSDOF 6
ENDMDL
MODEL 6
REMARK VINA RESULT:      -7.4      1.708      2.159
REMARK  6 active torsions:
REMARK  status: ('A' for Active; 'I' for Inactive)
REMARK    1  A    between atoms: C_4  and  O_5 
REMARK    2  A    between atoms: O_5  and  C_6 
REMARK    3  A    between atoms: C_6  and  C_7 
REMARK    4  A    between atoms: C_11  and  C_12 
REMARK    5  A    between atoms: C_12  and  N_13 
REMARK       I    between atoms: N_13  and  C_14 
REMARK       I    between atoms: C_14  and  N_15 
REMARK    6  A    between atoms: N_15  and  C_16 
ROOT
HETATM    1  C   UNL     1      43.702 -16.868   2.805  1.00  0.00     0.165 C 
ENDROOT
BRANCH   1   2
HETATM    2  C   UNL     1      43.944 -18.337   3.051  1.00  0.00    -0.007 A 
HETATM    3  C   UNL     1      44.255 -18.828   4.331  1.00  0.00     0.077 A 
HETATM    4  C   UNL     1      44.486 -20.196   4.517  1.00  0.00     0.044 A 
HETATM    5  C   UNL     1      44.380 -21.093   3.445  1.00  0.00    -0.059 A 
HETATM    6  C   UNL     1      44.604 -22.563   3.649  1.00  0.00     0.048 C 
HETATM    7  C   UNL     1      44.018 -20.609   2.184  1.00  0.00     0.007 A 
HETATM    8  C   UNL     1      43.808 -19.244   1.987  1.00  0.00     0.012 A 
BRANCH   3   9
HETATM    9  O   UNL     1      44.342 -17.895   5.328  1.00  0.00    -0.342 OA
BRANCH   9  10
HETATM   10  C   UNL     1      44.863 -18.333   6.588  1.00  0.00     0.293 C 
BRANCH  10  11
HETATM   11  C   UNL     1      43.728 -18.560   7.575  1.00  0.00     0.408 C 
HETATM   12  F   UNL     1      43.502 -19.877   7.778  1.00  0.00    -0.169 F 
HETATM   13  F   UNL     1      44.039 -18.017   8.776  1.00  0.00    -0.169 F 
HETATM   14  F   UNL     1      42.578 -17.992   7.160  1.00  0.00    -0.169 F 
ENDBRANCH  10  11
ENDBRANCH   9  10
ENDBRANCH   3   9
ENDBRANCH   1   2
BRANCH   1  15
HETATM   15  N   UNL     1      42.360 -16.490   3.194  1.00  0.00    -0.339 N 
HETATM   16  C   UNL     1      41.623 -15.701   2.336  1.00  0.00     0.321 C 
HETATM   17  N   UNL     1      40.400 -15.397   2.889  1.00  0.00    -0.307 N 
HETATM   18  O   UNL     1      42.026 -15.356   1.234  1.00  0.00    -0.247 OA
HETATM   19  H   UNL     1      40.081 -16.052   3.586  1.00  0.00     0.170 HD
HETATM   20  H   UNL     1      42.248 -16.248   4.167  1.00  0.00     0.164 HD
BRANCH  17  21
HETATM   21  C   UNL     1      39.475 -14.446   2.402  1.00  0.00     0.059 A 
HETATM   22  C   UNL     1      39.513 -13.125   2.882  1.00  0.00    -0.032 A 
HETATM   23  C   UNL     1      40.461 -12.684   3.961  1.00  0.00     0.050 C 
HETATM   24  C   UNL     1      38.622 -12.187   2.341  1.00  0.00     0.028 A 
HETATM   25  C   UNL     1      37.734 -12.587   1.356  1.00  0.00     0.117 A 
HETATM   26  N   UNL     1      37.671 -13.842   0.876  1.00  0.00    -0.271 NA
HETATM   27  C   UNL     1      38.537 -14.742   1.410  1.00  0.00     0.146 A 
ENDBRANCH  17  21
ENDBRANCH   1  15
TORSDOF 6
ENDMDL
MODEL 7
REMARK VINA RESULT:      -7.3      3.613      5.556
REMARK  6 active torsions:
REMARK  status: ('A' for Active; 'I' for Inactive)
REMARK    1  A    between atoms: C_4  and  O_5 
REMARK    2  A    between atoms: O_5  and  C_6 
REMARK    3  A    between atoms: C_6  and  C_7 
REMARK    4  A    between atoms: C_11  and  C_12 
REMARK    5  A    between atoms: C_12  and  N_13 
REMARK       I    between atoms: N_13  and  C_14 
REMARK       I    between atoms: C_14  and  N_15 
REMARK    6  A    between atoms: N_15  and  C_16 
ROOT
HETATM    1  C   UNL     1      41.020 -17.169   3.155  1.00  0.00     0.165 C 
ENDROOT
BRANCH   1   2
HETATM    2  C   UNL     1      41.959 -16.516   4.140  1.00  0.00    -0.007 A 
HETATM    3  C   UNL     1      42.916 -17.262   4.849  1.00  0.00     0.077 A 
HETATM    4  C   UNL     1      43.760 -16.623   5.764  1.00  0.00     0.044 A 
HETATM    5  C   UNL     1      43.686 -15.237   5.962  1.00  0.00    -0.059 A 
HETATM    6  C   UNL     1      44.608 -14.549   6.926  1.00  0.00     0.048 C 
HETATM    7  C   UNL     1      42.769 -14.490   5.216  1.00  0.00     0.007 A 
HETATM    8  C   UNL     1      41.910 -15.124   4.318  1.00  0.00     0.012 A 
BRANCH   3   9
HETATM    9  O   UNL     1      42.931 -18.609   4.606  1.00  0.00    -0.342 OA
BRANCH   9  10
HETATM   10  C   UNL     1      44.162 -19.174   4.140  1.00  0.00     0.293 C 
BRANCH  10  11
HETATM   11  C   UNL     1      44.077 -19.462   2.649  1.00  0.00     0.408 C 
HETATM   12  F   UNL     1      44.838 -20.524   2.304  1.00  0.00    -0.169 F 
HETATM   13  F   UNL     1      42.801 -19.752   2.301  1.00  0.00    -0.169 F 
HETATM   14  F   UNL     1      44.467 -18.403   1.909  1.00  0.00    -0.169 F 
ENDBRANCH  10  11
ENDBRANCH   9  10
ENDBRANCH   3   9
ENDBRANCH   1   2
BRANCH   1  15
HETATM   15  N   UNL     1      40.501 -16.200   2.212  1.00  0.00    -0.339 N 
HETATM   16  C   UNL     1      41.052 -16.152   0.949  1.00  0.00     0.321 C 
HETATM   17  N   UNL     1      40.477 -15.143   0.209  1.00  0.00    -0.307 N 
HETATM   18  O   UNL     1      41.917 -16.928   0.566  1.00  0.00    -0.247 OA
HETATM   19  H   UNL     1      39.554 -14.875   0.513  1.00  0.00     0.170 HD
HETATM   20  H   UNL     1      40.290 -15.294   2.600  1.00  0.00     0.164 HD
BRANCH  17  21
HETATM   21  C   UNL     1      40.929 -14.659  -1.039  1.00  0.00     0.059 A 
HETATM   22  C   UNL     1      41.683 -13.473  -1.097  1.00  0.00    -0.032 A 
HETATM   23  C   UNL     1      41.976 -12.642   0.120  1.00  0.00     0.050 C 
HETATM   24  C   UNL     1      42.168 -13.045  -2.340  1.00  0.00     0.028 A 
HETATM   25  C   UNL     1      41.891 -13.797  -3.470  1.00  0.00     0.117 A 
HETATM   26  N   UNL     1      41.172 -14.934  -3.450  1.00  0.00    -0.271 NA
HETATM   27  C   UNL     1      40.705 -15.337  -2.239  1.00  0.00     0.146 A 
ENDBRANCH  17  21
ENDBRANCH   1  15
TORSDOF 6
ENDMDL
MODEL 8
REMARK VINA RESULT:      -7.3      3.424      4.442
REMARK  6 active torsions:
REMARK  status: ('A' for Active; 'I' for Inactive)
REMARK    1  A    between atoms: C_4  and  O_5 
REMARK    2  A    between atoms: O_5  and  C_6 
REMARK    3  A    between atoms: C_6  and  C_7 
REMARK    4  A    between atoms: C_11  and  C_12 
REMARK    5  A    between atoms: C_12  and  N_13 
REMARK       I    between atoms: N_13  and  C_14 
REMARK       I    between atoms: C_14  and  N_15 
REMARK    6  A    between atoms: N_15  and  C_16 
ROOT
HETATM    1  C   UNL     1      41.052 -16.511   2.632  1.00  0.00     0.165 C 
ENDROOT
BRANCH   1   2
HETATM    2  C   UNL     1      42.086 -17.585   2.865  1.00  0.00    -0.007 A 
HETATM    3  C   UNL     1      42.714 -17.743   4.113  1.00  0.00     0.077 A 
HETATM    4  C   UNL     1      43.678 -18.743   4.287  1.00  0.00     0.044 A 
HETATM    5  C   UNL     1      44.005 -19.614   3.238  1.00  0.00    -0.059 A 
HETATM    6  C   UNL     1      45.022 -20.701   3.432  1.00  0.00     0.048 C 
HETATM    7  C   UNL     1      43.341 -19.488   2.015  1.00  0.00     0.007 A 
HETATM    8  C   UNL     1      42.394 -18.479   1.828  1.00  0.00     0.012 A 
BRANCH   3   9
HETATM    9  O   UNL     1      42.345 -16.858   5.089  1.00  0.00    -0.342 OA
BRANCH   9  10
HETATM   10  C   UNL     1      43.306 -15.867   5.468  1.00  0.00     0.293 C 
BRANCH  10  11
HETATM   11  C   UNL     1      43.907 -16.207   6.823  1.00  0.00     0.408 C 
HETATM   12  F   UNL     1      44.127 -15.097   7.562  1.00  0.00    -0.169 F 
HETATM   13  F   UNL     1      43.058 -16.995   7.526  1.00  0.00    -0.169 F 
HETATM   14  F   UNL     1      45.073 -16.875   6.704  1.00  0.00    -0.169 F 
ENDBRANCH  10  11
ENDBRANCH   9  10
ENDBRANCH   3   9
ENDBRANCH   1   2
BRANCH   1  15
HETATM   15  N   UNL     1      40.612 -16.504   1.252  1.00  0.00    -0.339 N 
HETATM   16  C   UNL     1      40.943 -15.424   0.462  1.00  0.00     0.321 C 
HETATM   17  N   UNL     1      40.400 -15.561  -0.795  1.00  0.00    -0.307 N 
HETATM   18  O   UNL     1      41.642 -14.499   0.852  1.00  0.00    -0.247 OA
HETATM   19  H   UNL     1      40.203 -16.512  -1.065  1.00  0.00     0.170 HD
HETATM   20  H   UNL     1      39.678 -16.851   1.098  1.00  0.00     0.164 HD
BRANCH  17  21
HETATM   21  C   UNL     1      40.345 -14.564  -1.796  1.00  0.00     0.059 A 
HETATM   22  C   UNL     1      39.244 -13.692  -1.854  1.00  0.00    -0.032 A 
HETATM   23  C   UNL     1      38.066 -13.814  -0.929  1.00  0.00     0.050 C 
HETATM   24  C   UNL     1      39.241 -12.676  -2.820  1.00  0.00     0.028 A 
HETATM   25  C   UNL     1      40.316 -12.563  -3.687  1.00  0.00     0.117 A 
HETATM   26  N   UNL     1      41.383 -13.382  -3.659  1.00  0.00    -0.271 NA
HETATM   27  C   UNL     1      41.373 -14.364  -2.721  1.00  0.00     0.146 A 
ENDBRANCH  17  21
ENDBRANCH   1  15
TORSDOF 6
ENDMDL
MODEL 9
REMARK VINA RESULT:      -7.1      3.535      4.531
REMARK  6 active torsions:
REMARK  status: ('A' for Active; 'I' for Inactive)
REMARK    1  A    between atoms: C_4  and  O_5 
REMARK    2  A    between atoms: O_5  and  C_6 
REMARK    3  A    between atoms: C_6  and  C_7 
REMARK    4  A    between atoms: C_11  and  C_12 
REMARK    5  A    between atoms: C_12  and  N_13 
REMARK       I    between atoms: N_13  and  C_14 
REMARK       I    between atoms: C_14  and  N_15 
REMARK    6  A    between atoms: N_15  and  C_16 
ROOT
HETATM    1  C   UNL     1      42.939 -15.999   2.275  1.00  0.00     0.165 C 
ENDROOT
BRANCH   1   2
HETATM    2  C   UNL     1      43.434 -17.340   2.761  1.00  0.00    -0.007 A 
HETATM    3  C   UNL     1      43.604 -17.610   4.129  1.00  0.00     0.077 A 
HETATM    4  C   UNL     1      44.077 -18.861   4.540  1.00  0.00     0.044 A 
HETATM    5  C   UNL     1      44.356 -19.865   3.602  1.00  0.00    -0.059 A 
HETATM    6  C   UNL     1      44.842 -21.215   4.044  1.00  0.00     0.048 C 
HETATM    7  C   UNL     1      44.136 -19.611   2.245  1.00  0.00     0.007 A 
HETATM    8  C   UNL     1      43.684 -18.358   1.828  1.00  0.00     0.012 A 
BRANCH   3   9
HETATM    9  O   UNL     1      43.312 -16.583   4.986  1.00  0.00    -0.342 OA
BRANCH   9  10
HETATM   10  C   UNL     1      42.467 -16.885   6.102  1.00  0.00     0.293 C 
BRANCH  10  11
HETATM   11  C   UNL     1      41.014 -16.960   5.657  1.00  0.00     0.408 C 
HETATM   12  F   UNL     1      40.723 -16.001   4.750  1.00  0.00    -0.169 F 
HETATM   13  F   UNL     1      40.766 -18.155   5.071  1.00  0.00    -0.169 F 
HETATM   14  F   UNL     1      40.162 -16.833   6.695  1.00  0.00    -0.169 F 
ENDBRANCH  10  11
ENDBRANCH   9  10
ENDBRANCH   3   9
ENDBRANCH   1   2
BRANCH   1  15
HETATM   15  N   UNL     1      41.968 -16.157   1.213  1.00  0.00    -0.339 N 
HETATM   16  C   UNL     1      41.595 -15.042   0.492  1.00  0.00     0.321 C 
HETATM   17  N   UNL     1      40.630 -15.367  -0.434  1.00  0.00    -0.307 N 
HETATM   18  O   UNL     1      42.089 -13.937   0.666  1.00  0.00    -0.247 OA
HETATM   19  H   UNL     1      40.623 -16.336  -0.709  1.00  0.00     0.170 HD
HETATM   20  H   UNL     1      41.205 -16.783   1.420  1.00  0.00     0.164 HD
BRANCH  17  21
HETATM   21  C   UNL     1      39.861 -14.457  -1.195  1.00  0.00     0.059 A 
HETATM   22  C   UNL     1      40.183 -14.230  -2.545  1.00  0.00    -0.032 A 
HETATM   23  C   UNL     1      41.369 -14.866  -3.212  1.00  0.00     0.050 C 
HETATM   24  C   UNL     1      39.371 -13.366  -3.293  1.00  0.00     0.028 A 
HETATM   25  C   UNL     1      38.282 -12.764  -2.684  1.00  0.00     0.117 A 
HETATM   26  N   UNL     1      37.948 -12.958  -1.396  1.00  0.00    -0.271 NA
HETATM   27  C   UNL     1      38.745 -13.794  -0.681  1.00  0.00     0.146 A 
ENDBRANCH  17  21
ENDBRANCH   1  15
TORSDOF 6
ENDMDL
MODEL 10
REMARK VINA RESULT:      -6.9      5.479      9.047
REMARK  6 active torsions:
REMARK  status: ('A' for Active; 'I' for Inactive)
REMARK    1  A    between atoms: C_4  and  O_5 
REMARK    2  A    between atoms: O_5  and  C_6 
REMARK    3  A    between atoms: C_6  and  C_7 
REMARK    4  A    between atoms: C_11  and  C_12 
REMARK    5  A    between atoms: C_12  and  N_13 
REMARK       I    between atoms: N_13  and  C_14 
REMARK       I    between atoms: C_14  and  N_15 
REMARK    6  A    between atoms: N_15  and  C_16 
ROOT
HETATM    1  C   UNL     1      40.970  -9.864   8.535  1.00  0.00     0.165 C 
ENDROOT
BRANCH   1   2
HETATM    2  C   UNL     1      41.598  -9.742   9.902  1.00  0.00    -0.007 A 
HETATM    3  C   UNL     1      42.945 -10.076  10.125  1.00  0.00     0.077 A 
HETATM    4  C   UNL     1      43.488  -9.962  11.410  1.00  0.00     0.044 A 
HETATM    5  C   UNL     1      42.712  -9.487  12.477  1.00  0.00    -0.059 A 
HETATM    6  C   UNL     1      43.301  -9.342  13.850  1.00  0.00     0.048 C 
HETATM    7  C   UNL     1      41.388  -9.105  12.240  1.00  0.00     0.007 A 
HETATM    8  C   UNL     1      40.834  -9.237  10.966  1.00  0.00     0.012 A 
BRANCH   3   9
HETATM    9  O   UNL     1      43.641 -10.532   9.039  1.00  0.00    -0.342 OA
BRANCH   9  10
HETATM   10  C   UNL     1      44.131 -11.876   9.096  1.00  0.00     0.293 C 
BRANCH  10  11
HETATM   11  C   UNL     1      45.605 -11.882   9.475  1.00  0.00     0.408 C 
HETATM   12  F   UNL     1      46.136 -10.641   9.423  1.00  0.00    -0.169 F 
HETATM   13  F   UNL     1      45.759 -12.334  10.742  1.00  0.00    -0.169 F 
HETATM   14  F   UNL     1      46.328 -12.686   8.668  1.00  0.00    -0.169 F 
ENDBRANCH  10  11
ENDBRANCH   9  10
ENDBRANCH   3   9
ENDBRANCH   1   2
BRANCH   1  15
HETATM   15  N   UNL     1      40.864 -11.251   8.133  1.00  0.00    -0.339 N 
HETATM   16  C   UNL     1      41.180 -11.586   6.833  1.00  0.00     0.321 C 
HETATM   17  N   UNL     1      40.972 -12.929   6.616  1.00  0.00    -0.307 N 
HETATM   18  O   UNL     1      41.603 -10.777   6.019  1.00  0.00    -0.247 OA
HETATM   19  H   UNL     1      41.006 -13.498   7.447  1.00  0.00     0.170 HD
HETATM   20  H   UNL     1      40.063 -11.743   8.498  1.00  0.00     0.164 HD
BRANCH  17  21
HETATM   21  C   UNL     1      40.981 -13.585   5.364  1.00  0.00     0.059 A 
HETATM   22  C   UNL     1      42.155 -14.212   4.912  1.00  0.00    -0.032 A 
HETATM   23  C   UNL     1      43.446 -14.158   5.678  1.00  0.00     0.050 C 
HETATM   24  C   UNL     1      42.121 -14.904   3.693  1.00  0.00     0.028 A 
HETATM   25  C   UNL     1      40.939 -14.948   2.972  1.00  0.00     0.117 A 
HETATM   26  N   UNL     1      39.800 -14.357   3.375  1.00  0.00    -0.271 NA
HETATM   27  C   UNL     1      39.846 -13.687   4.556  1.00  0.00     0.146 A 
ENDBRANCH  17  21
ENDBRANCH   1  15
TORSDOF 6
ENDMDL
