MODEL 1
REMARK VINA RESULT:      -8.9      0.000      0.000
REMARK  5 active torsions:
REMARK  status: ('A' for Active; 'I' for Inactive)
REMARK    1  A    between atoms: O_2  and  C_3 
REMARK    2  A    between atoms: C_4  and  C_5 
REMARK    3  A    between atoms: C_17  and  N_18 
REMARK       I    between atoms: N_18  and  C_19 
REMARK       I    between atoms: C_19  and  N_20 
REMARK    4  A    between atoms: N_20  and  C_21 
REMARK    5  A    between atoms: C_21  and  C_22 
ROOT
HETATM    1  C   UNL     1      41.341 -13.629   0.968  1.00  0.00    -0.022 A 
HETATM    2  C   UNL     1      42.260 -13.824   2.015  1.00  0.00     0.031 A 
HETATM    3  C   UNL     1      41.877 -14.300   3.291  1.00  0.00     0.059 A 
HETATM    4  C   UNL     1      40.530 -14.566   3.532  1.00  0.00     0.050 A 
HETATM    5  N   UNL     1      40.000 -15.033   4.737  1.00  0.00    -0.324 N 
HETATM    6  C   UNL     1      40.589 -15.840   5.665  1.00  0.00     0.245 C 
HETATM    7  O   UNL     1      39.898 -16.187   6.626  1.00  0.00    -0.271 OA
HETATM    8  C   UNL     1      42.001 -16.394   5.384  1.00  0.00     0.181 C 
HETATM    9  N   UNL     1      42.967 -15.282   5.351  1.00  0.00    -0.334 N 
HETATM   10  C   UNL     1      42.959 -14.339   4.310  1.00  0.00     0.256 C 
HETATM   11  O   UNL     1      43.890 -13.542   4.168  1.00  0.00    -0.267 OA
HETATM   12  C   UNL     1      42.285 -17.492   6.424  1.00  0.00     0.060 C 
HETATM   13  C   UNL     1      43.764 -17.793   6.607  1.00  0.00     0.090 C 
HETATM   14  C   UNL     1      44.440 -16.501   7.033  1.00  0.00     0.045 C 
HETATM   15  C   UNL     1      44.285 -15.421   5.979  1.00  0.00     0.129 C 
HETATM   16  C   UNL     1      39.595 -14.330   2.515  1.00  0.00     0.031 A 
HETATM   17  C   UNL     1      39.997 -13.896   1.248  1.00  0.00     0.014 A 
HETATM   18  H   UNL     1      39.007 -14.921   4.907  1.00  0.00     0.169 HD
ENDROOT
BRANCH   1  19
HETATM   19  C   UNL     1      41.787 -13.170  -0.372  1.00  0.00     0.009 A 
HETATM   20  C   UNL     1      41.650 -13.952  -1.548  1.00  0.00     0.079 A 
HETATM   21  C   UNL     1      42.108 -13.457  -2.779  1.00  0.00     0.039 A 
HETATM   22  C   UNL     1      42.687 -12.190  -2.868  1.00  0.00     0.026 A 
HETATM   23  C   UNL     1      42.817 -11.413  -1.727  1.00  0.00     0.035 A 
HETATM   24  C   UNL     1      42.380 -11.894  -0.494  1.00  0.00     0.039 A 
HETATM   25 CL   UNL     1      43.523  -9.847  -1.833  1.00  0.00    -0.084 Cl
BRANCH  20  26
HETATM   26  O   UNL     1      41.045 -15.177  -1.406  1.00  0.00    -0.355 OA
HETATM   27  C   UNL     1      40.724 -15.906  -2.582  1.00  0.00     0.210 C 
ENDBRANCH  20  26
ENDBRANCH   1  19
BRANCH  13  28
HETATM   28  N   UNL     1      44.369 -18.385   5.421  1.00  0.00    -0.338 N 
HETATM   29  C   UNL     1      44.385 -19.747   5.245  1.00  0.00     0.316 C 
HETATM   30  N   UNL     1      44.854 -20.077   4.001  1.00  0.00    -0.340 N 
HETATM   31  O   UNL     1      44.001 -20.555   6.078  1.00  0.00    -0.247 OA
HETATM   32  H   UNL     1      45.547 -19.446   3.627  1.00  0.00     0.164 HD
HETATM   33  H   UNL     1      44.341 -17.858   4.560  1.00  0.00     0.164 HD
BRANCH  30  34
HETATM   34  C   UNL     1      45.012 -21.465   3.644  1.00  0.00     0.150 C 
BRANCH  34  35
HETATM   35  C   UNL     1      44.338 -21.661   2.324  1.00  0.00    -0.018 C 
HETATM   36  C   UNL     1      43.478 -20.798   1.767  1.00  0.00     0.008 C 
ENDBRANCH  34  35
ENDBRANCH  30  34
ENDBRANCH  13  28
TORSDOF 5
ENDMDL
MODEL 2
REMARK VINA RESULT:      -8.9      3.027      8.119
REMARK  5 active torsions:
REMARK  status: ('A' for Active; 'I' for Inactive)
REMARK    1  A    between atoms: O_2  and  C_3 
REMARK    2  A    between atoms: C_4  and  C_5 
REMARK    3  A    between atoms: C_17  and  N_18 
REMARK       I    between atoms: N_18  and  C_19 
REMARK       I    between atoms: C_19  and  N_20 
REMARK    4  A    between atoms: N_20  and  C_21 
REMARK    5  A    between atoms: C_21  and  C_22 
ROOT
HETATM    1  C   UNL     1      43.665 -18.411   4.803  1.00  0.00    -0.022 A 
HETATM    2  C   UNL     1      42.582 -17.795   4.149  1.00  0.00     0.031 A 
HETATM    3  C   UNL     1      42.221 -16.445   4.370  1.00  0.00     0.059 A 
HETATM    4  C   UNL     1      42.952 -15.697   5.292  1.00  0.00     0.050 A 
HETATM    5  N   UNL     1      42.714 -14.360   5.619  1.00  0.00    -0.324 N 
HETATM    6  C   UNL     1      42.212 -13.370   4.828  1.00  0.00     0.245 C 
HETATM    7  O   UNL     1      42.157 -12.237   5.313  1.00  0.00    -0.271 OA
HETATM    8  C   UNL     1      41.901 -13.682   3.350  1.00  0.00     0.181 C 
HETATM    9  N   UNL     1      40.802 -14.660   3.275  1.00  0.00    -0.334 N 
HETATM   10  C   UNL     1      40.983 -15.993   3.681  1.00  0.00     0.256 C 
HETATM   11  O   UNL     1      40.140 -16.856   3.423  1.00  0.00    -0.267 OA
HETATM   12  C   UNL     1      41.648 -12.342   2.635  1.00  0.00     0.060 C 
HETATM   13  C   UNL     1      40.867 -12.479   1.337  1.00  0.00     0.090 C 
HETATM   14  C   UNL     1      39.539 -13.135   1.675  1.00  0.00     0.045 C 
HETATM   15  C   UNL     1      39.739 -14.513   2.277  1.00  0.00     0.129 C 
HETATM   16  C   UNL     1      44.003 -16.309   5.987  1.00  0.00     0.031 A 
HETATM   17  C   UNL     1      44.370 -17.633   5.727  1.00  0.00     0.014 A 
HETATM   18  H   UNL     1      43.096 -13.997   6.486  1.00  0.00     0.169 HD
ENDROOT
BRANCH   1  19
HETATM   19  C   UNL     1      44.041 -19.817   4.511  1.00  0.00     0.009 A 
HETATM   20  C   UNL     1      44.367 -20.761   5.518  1.00  0.00     0.079 A 
HETATM   21  C   UNL     1      44.726 -22.071   5.166  1.00  0.00     0.039 A 
HETATM   22  C   UNL     1      44.752 -22.468   3.828  1.00  0.00     0.026 A 
HETATM   23  C   UNL     1      44.425 -21.557   2.835  1.00  0.00     0.035 A 
HETATM   24  C   UNL     1      44.079 -20.248   3.166  1.00  0.00     0.039 A 
HETATM   25 CL   UNL     1      44.447 -22.044   1.185  1.00  0.00    -0.084 Cl
BRANCH  20  26
HETATM   26  O   UNL     1      44.295 -20.323   6.819  1.00  0.00    -0.355 OA
HETATM   27  C   UNL     1      43.487 -21.056   7.729  1.00  0.00     0.210 C 
ENDBRANCH  20  26
ENDBRANCH   1  19
BRANCH  13  28
HETATM   28  N   UNL     1      41.607 -13.196   0.307  1.00  0.00    -0.338 N 
HETATM   29  C   UNL     1      41.106 -13.315  -0.965  1.00  0.00     0.316 C 
HETATM   30  N   UNL     1      42.025 -13.883  -1.807  1.00  0.00    -0.340 N 
HETATM   31  O   UNL     1      39.995 -12.935  -1.307  1.00  0.00    -0.247 OA
HETATM   32  H   UNL     1      42.641 -14.554  -1.372  1.00  0.00     0.164 HD
HETATM   33  H   UNL     1      42.616 -13.187   0.354  1.00  0.00     0.164 HD
BRANCH  30  34
HETATM   34  C   UNL     1      41.665 -14.156  -3.176  1.00  0.00     0.150 C 
BRANCH  34  35
HETATM   35  C   UNL     1      41.078 -15.531  -3.213  1.00  0.00    -0.018 C 
HETATM   36  C   UNL     1      39.809 -15.813  -3.534  1.00  0.00     0.008 C 
ENDBRANCH  34  35
ENDBRANCH  30  34
ENDBRANCH  13  28
TORSDOF 5
ENDMDL
MODEL 3
REMARK VINA RESULT:      -8.6      4.186      8.169
REMARK  5 active torsions:
REMARK  status: ('A' for Active; 'I' for Inactive)
REMARK    1  A    between atoms: O_2  and  C_3 
REMARK    2  A    between atoms: C_4  and  C_5 
REMARK    3  A    between atoms: C_17  and  N_18 
REMARK       I    between atoms: N_18  and  C_19 
REMARK       I    between atoms: C_19  and  N_20 
REMARK    4  A    between atoms: N_20  and  C_21 
REMARK    5  A    between atoms: C_21  and  C_22 
ROOT
HETATM    1  C   UNL     1      42.256 -17.397   2.910  1.00  0.00    -0.022 A 
HETATM    2  C   UNL     1      42.463 -16.024   3.138  1.00  0.00     0.031 A 
HETATM    3  C   UNL     1      41.544 -15.032   2.719  1.00  0.00     0.059 A 
HETATM    4  C   UNL     1      40.397 -15.426   2.032  1.00  0.00     0.050 A 
HETATM    5  N   UNL     1      39.405 -14.568   1.554  1.00  0.00    -0.324 N 
HETATM    6  C   UNL     1      38.995 -13.375   2.071  1.00  0.00     0.245 C 
HETATM    7  O   UNL     1      38.042 -12.820   1.517  1.00  0.00    -0.271 OA
HETATM    8  C   UNL     1      39.623 -12.878   3.389  1.00  0.00     0.181 C 
HETATM    9  N   UNL     1      41.052 -12.594   3.175  1.00  0.00    -0.334 N 
HETATM   10  C   UNL     1      41.975 -13.627   2.942  1.00  0.00     0.256 C 
HETATM   11  O   UNL     1      43.190 -13.413   2.975  1.00  0.00    -0.267 OA
HETATM   12  C   UNL     1      38.777 -11.694   3.891  1.00  0.00     0.060 C 
HETATM   13  C   UNL     1      39.506 -10.794   4.875  1.00  0.00     0.090 C 
HETATM   14  C   UNL     1      40.749 -10.272   4.176  1.00  0.00     0.045 C 
HETATM   15  C   UNL     1      41.673 -11.404   3.767  1.00  0.00     0.129 C 
HETATM   16  C   UNL     1      40.201 -16.786   1.754  1.00  0.00     0.031 A 
HETATM   17  C   UNL     1      41.100 -17.755   2.210  1.00  0.00     0.014 A 
HETATM   18  H   UNL     1      38.776 -14.905   0.833  1.00  0.00     0.169 HD
ENDROOT
BRANCH   1  19
HETATM   19  C   UNL     1      43.222 -18.412   3.404  1.00  0.00     0.009 A 
HETATM   20  C   UNL     1      43.869 -18.322   4.663  1.00  0.00     0.079 A 
HETATM   21  C   UNL     1      44.781 -19.314   5.058  1.00  0.00     0.039 A 
HETATM   22  C   UNL     1      45.051 -20.404   4.230  1.00  0.00     0.026 A 
HETATM   23  C   UNL     1      44.417 -20.507   3.001  1.00  0.00     0.035 A 
HETATM   24  C   UNL     1      43.518 -19.525   2.588  1.00  0.00     0.039 A 
HETATM   25 CL   UNL     1      44.740 -21.855   1.981  1.00  0.00    -0.084 Cl
BRANCH  20  26
HETATM   26  O   UNL     1      43.541 -17.244   5.449  1.00  0.00    -0.355 OA
HETATM   27  C   UNL     1      44.366 -16.955   6.570  1.00  0.00     0.210 C 
ENDBRANCH  20  26
ENDBRANCH   1  19
BRANCH  13  28
HETATM   28  N   UNL     1      39.805 -11.463   6.135  1.00  0.00    -0.338 N 
HETATM   29  C   UNL     1      39.489 -10.874   7.335  1.00  0.00     0.316 C 
HETATM   30  N   UNL     1      39.708 -11.735   8.378  1.00  0.00    -0.340 N 
HETATM   31  O   UNL     1      39.042  -9.742   7.452  1.00  0.00    -0.247 OA
HETATM   32  H   UNL     1      40.472 -12.380   8.244  1.00  0.00     0.164 HD
HETATM   33  H   UNL     1      39.786 -12.472   6.154  1.00  0.00     0.164 HD
BRANCH  30  34
HETATM   34  C   UNL     1      39.499 -11.282   9.731  1.00  0.00     0.150 C 
BRANCH  34  35
HETATM   35  C   UNL     1      40.840 -10.926  10.289  1.00  0.00    -0.018 C 
HETATM   36  C   UNL     1      41.141 -10.889  11.594  1.00  0.00     0.008 C 
ENDBRANCH  34  35
ENDBRANCH  30  34
ENDBRANCH  13  28
TORSDOF 5
ENDMDL
MODEL 4
REMARK VINA RESULT:      -8.6      3.661      7.904
REMARK  5 active torsions:
REMARK  status: ('A' for Active; 'I' for Inactive)
REMARK    1  A    between atoms: O_2  and  C_3 
REMARK    2  A    between atoms: C_4  and  C_5 
REMARK    3  A    between atoms: C_17  and  N_18 
REMARK       I    between atoms: N_18  and  C_19 
REMARK       I    between atoms: C_19  and  N_20 
REMARK    4  A    between atoms: N_20  and  C_21 
REMARK    5  A    between atoms: C_21  and  C_22 
ROOT
HETATM    1  C   UNL     1      43.330 -17.785   4.551  1.00  0.00    -0.022 A 
HETATM    2  C   UNL     1      42.310 -16.985   4.004  1.00  0.00     0.031 A 
HETATM    3  C   UNL     1      41.942 -15.733   4.552  1.00  0.00     0.059 A 
HETATM    4  C   UNL     1      42.599 -15.281   5.695  1.00  0.00     0.050 A 
HETATM    5  N   UNL     1      42.345 -14.075   6.351  1.00  0.00    -0.324 N 
HETATM    6  C   UNL     1      41.918 -12.894   5.818  1.00  0.00     0.245 C 
HETATM    7  O   UNL     1      41.832 -11.931   6.585  1.00  0.00    -0.271 OA
HETATM    8  C   UNL     1      41.730 -12.789   4.291  1.00  0.00     0.181 C 
HETATM    9  N   UNL     1      40.634 -13.679   3.870  1.00  0.00    -0.334 N 
HETATM   10  C   UNL     1      40.770 -15.076   3.915  1.00  0.00     0.256 C 
HETATM   11  O   UNL     1      39.945 -15.813   3.368  1.00  0.00    -0.267 OA
HETATM   12  C   UNL     1      41.549 -11.300   3.946  1.00  0.00     0.060 C 
HETATM   13  C   UNL     1      40.878 -11.061   2.603  1.00  0.00     0.090 C 
HETATM   14  C   UNL     1      39.521 -11.743   2.646  1.00  0.00     0.045 C 
HETATM   15  C   UNL     1      39.659 -13.237   2.868  1.00  0.00     0.129 C 
HETATM   16  C   UNL     1      43.584 -16.088   6.281  1.00  0.00     0.031 A 
HETATM   17  C   UNL     1      43.961 -17.305   5.703  1.00  0.00     0.014 A 
HETATM   18  H   UNL     1      42.656 -13.968   7.310  1.00  0.00     0.169 HD
ENDROOT
BRANCH   1  19
HETATM   19  C   UNL     1      43.718 -19.073   3.921  1.00  0.00     0.009 A 
HETATM   20  C   UNL     1      43.508 -19.362   2.549  1.00  0.00     0.079 A 
HETATM   21  C   UNL     1      43.889 -20.608   2.025  1.00  0.00     0.039 A 
HETATM   22  C   UNL     1      44.492 -21.568   2.839  1.00  0.00     0.026 A 
HETATM   23  C   UNL     1      44.713 -21.292   4.180  1.00  0.00     0.035 A 
HETATM   24  C   UNL     1      44.328 -20.066   4.719  1.00  0.00     0.039 A 
HETATM   25 CL   UNL     1      45.465 -22.470   5.185  1.00  0.00    -0.084 Cl
BRANCH  20  26
HETATM   26  O   UNL     1      42.938 -18.369   1.790  1.00  0.00    -0.355 OA
HETATM   27  C   UNL     1      43.778 -17.628   0.915  1.00  0.00     0.210 C 
ENDBRANCH  20  26
ENDBRANCH   1  19
BRANCH  13  28
HETATM   28  N   UNL     1      41.696 -11.498   1.479  1.00  0.00    -0.338 N 
HETATM   29  C   UNL     1      41.787 -10.739   0.338  1.00  0.00     0.316 C 
HETATM   30  N   UNL     1      42.724 -11.250  -0.520  1.00  0.00    -0.340 N 
HETATM   31  O   UNL     1      41.137  -9.724   0.131  1.00  0.00    -0.247 OA
HETATM   32  H   UNL     1      42.821 -12.254  -0.494  1.00  0.00     0.164 HD
HETATM   33  H   UNL     1      42.522 -12.046   1.677  1.00  0.00     0.164 HD
BRANCH  30  34
HETATM   34  C   UNL     1      42.923 -10.633  -1.808  1.00  0.00     0.150 C 
BRANCH  34  35
HETATM   35  C   UNL     1      42.588 -11.657  -2.844  1.00  0.00    -0.018 C 
HETATM   36  C   UNL     1      42.489 -12.974  -2.617  1.00  0.00     0.008 C 
ENDBRANCH  34  35
ENDBRANCH  30  34
ENDBRANCH  13  28
TORSDOF 5
ENDMDL
MODEL 5
REMARK VINA RESULT:      -8.4      3.915      8.085
REMARK  5 active torsions:
REMARK  status: ('A' for Active; 'I' for Inactive)
REMARK    1  A    between atoms: O_2  and  C_3 
REMARK    2  A    between atoms: C_4  and  C_5 
REMARK    3  A    between atoms: C_17  and  N_18 
REMARK       I    between atoms: N_18  and  C_19 
REMARK       I    between atoms: C_19  and  N_20 
REMARK    4  A    between atoms: N_20  and  C_21 
REMARK    5  A    between atoms: C_21  and  C_22 
ROOT
HETATM    1  C   UNL     1      42.414 -17.761   4.539  1.00  0.00    -0.022 A 
HETATM    2  C   UNL     1      41.599 -16.947   3.731  1.00  0.00     0.031 A 
HETATM    3  C   UNL     1      40.894 -15.829   4.236  1.00  0.00     0.059 A 
HETATM    4  C   UNL     1      40.989 -15.533   5.595  1.00  0.00     0.050 A 
HETATM    5  N   UNL     1      40.350 -14.470   6.238  1.00  0.00    -0.324 N 
HETATM    6  C   UNL     1      40.023 -13.247   5.732  1.00  0.00     0.245 C 
HETATM    7  O   UNL     1      39.525 -12.432   6.513  1.00  0.00    -0.271 OA
HETATM    8  C   UNL     1      40.437 -12.902   4.287  1.00  0.00     0.181 C 
HETATM    9  N   UNL     1      39.713 -13.776   3.348  1.00  0.00    -0.334 N 
HETATM   10  C   UNL     1      39.993 -15.150   3.266  1.00  0.00     0.256 C 
HETATM   11  O   UNL     1      39.546 -15.836   2.343  1.00  0.00    -0.267 OA
HETATM   12  C   UNL     1      40.222 -11.391   4.090  1.00  0.00     0.060 C 
HETATM   13  C   UNL     1      40.107 -10.974   2.632  1.00  0.00     0.090 C 
HETATM   14  C   UNL     1      38.938 -11.738   2.033  1.00  0.00     0.045 C 
HETATM   15  C   UNL     1      39.162 -13.237   2.100  1.00  0.00     0.129 C 
HETATM   16  C   UNL     1      41.757 -16.363   6.422  1.00  0.00     0.031 A 
HETATM   17  C   UNL     1      42.478 -17.440   5.898  1.00  0.00     0.014 A 
HETATM   18  H   UNL     1      40.245 -14.505   7.246  1.00  0.00     0.169 HD
ENDROOT
BRANCH   1  19
HETATM   19  C   UNL     1      43.174 -18.900   3.963  1.00  0.00     0.009 A 
HETATM   20  C   UNL     1      43.336 -19.102   2.569  1.00  0.00     0.079 A 
HETATM   21  C   UNL     1      44.058 -20.209   2.097  1.00  0.00     0.039 A 
HETATM   22  C   UNL     1      44.638 -21.114   2.988  1.00  0.00     0.026 A 
HETATM   23  C   UNL     1      44.495 -20.921   4.354  1.00  0.00     0.035 A 
HETATM   24  C   UNL     1      43.771 -19.834   4.839  1.00  0.00     0.039 A 
HETATM   25 CL   UNL     1      45.216 -22.029   5.456  1.00  0.00    -0.084 Cl
BRANCH  20  26
HETATM   26  O   UNL     1      42.770 -18.163   1.741  1.00  0.00    -0.355 OA
HETATM   27  C   UNL     1      43.596 -17.548   0.761  1.00  0.00     0.210 C 
ENDBRANCH  20  26
ENDBRANCH   1  19
BRANCH  13  28
HETATM   28  N   UNL     1      41.347 -11.167   1.892  1.00  0.00    -0.338 N 
HETATM   29  C   UNL     1      41.503 -10.643   0.632  1.00  0.00     0.316 C 
HETATM   30  N   UNL     1      42.789 -10.803   0.187  1.00  0.00    -0.340 N 
HETATM   31  O   UNL     1      40.618 -10.080   0.005  1.00  0.00    -0.247 OA
HETATM   32  H   UNL     1      43.252 -11.636   0.520  1.00  0.00     0.164 HD
HETATM   33  H   UNL     1      42.207 -11.241   2.417  1.00  0.00     0.164 HD
BRANCH  30  34
HETATM   34  C   UNL     1      43.140 -10.378  -1.144  1.00  0.00     0.150 C 
BRANCH  34  35
HETATM   35  C   UNL     1      44.177  -9.310  -1.008  1.00  0.00    -0.018 C 
HETATM   36  C   UNL     1      43.974  -8.009  -1.258  1.00  0.00     0.008 C 
ENDBRANCH  34  35
ENDBRANCH  30  34
ENDBRANCH  13  28
TORSDOF 5
ENDMDL
MODEL 6
REMARK VINA RESULT:      -8.2      3.690      8.375
REMARK  5 active torsions:
REMARK  status: ('A' for Active; 'I' for Inactive)
REMARK    1  A    between atoms: O_2  and  C_3 
REMARK    2  A    between atoms: C_4  and  C_5 
REMARK    3  A    between atoms: C_17  and  N_18 
REMARK       I    between atoms: N_18  and  C_19 
REMARK       I    between atoms: C_19  and  N_20 
REMARK    4  A    between atoms: N_20  and  C_21 
REMARK    5  A    between atoms: C_21  and  C_22 
ROOT
HETATM    1  C   UNL     1      42.218 -17.215   4.765  1.00  0.00    -0.022 A 
HETATM    2  C   UNL     1      41.481 -16.560   3.761  1.00  0.00     0.031 A 
HETATM    3  C   UNL     1      40.593 -15.493   4.036  1.00  0.00     0.059 A 
HETATM    4  C   UNL     1      40.420 -15.087   5.358  1.00  0.00     0.050 A 
HETATM    5  N   UNL     1      39.579 -14.057   5.785  1.00  0.00    -0.324 N 
HETATM    6  C   UNL     1      39.227 -12.920   5.120  1.00  0.00     0.245 C 
HETATM    7  O   UNL     1      38.523 -12.109   5.728  1.00  0.00    -0.271 OA
HETATM    8  C   UNL     1      39.851 -12.640   3.737  1.00  0.00     0.181 C 
HETATM    9  N   UNL     1      39.391 -13.658   2.777  1.00  0.00    -0.334 N 
HETATM   10  C   UNL     1      39.813 -14.995   2.872  1.00  0.00     0.256 C 
HETATM   11  O   UNL     1      39.603 -15.794   1.956  1.00  0.00    -0.267 OA
HETATM   12  C   UNL     1      39.527 -11.182   3.367  1.00  0.00     0.060 C 
HETATM   13  C   UNL     1      39.628 -10.892   1.878  1.00  0.00     0.090 C 
HETATM   14  C   UNL     1      38.662 -11.824   1.168  1.00  0.00     0.045 C 
HETATM   15  C   UNL     1      39.016 -13.279   1.411  1.00  0.00     0.129 C 
HETATM   16  C   UNL     1      41.109 -15.761   6.375  1.00  0.00     0.031 A 
HETATM   17  C   UNL     1      42.013 -16.787   6.081  1.00  0.00     0.014 A 
HETATM   18  H   UNL     1      39.303 -14.027   6.760  1.00  0.00     0.169 HD
ENDROOT
BRANCH   1  19
HETATM   19  C   UNL     1      43.174 -18.301   4.432  1.00  0.00     0.009 A 
HETATM   20  C   UNL     1      44.295 -18.624   5.239  1.00  0.00     0.079 A 
HETATM   21  C   UNL     1      45.165 -19.657   4.854  1.00  0.00     0.039 A 
HETATM   22  C   UNL     1      44.932 -20.387   3.687  1.00  0.00     0.026 A 
HETATM   23  C   UNL     1      43.833 -20.086   2.896  1.00  0.00     0.035 A 
HETATM   24  C   UNL     1      42.967 -19.056   3.257  1.00  0.00     0.039 A 
HETATM   25 CL   UNL     1      43.536 -20.990   1.462  1.00  0.00    -0.084 Cl
BRANCH  20  26
HETATM   26  O   UNL     1      44.457 -17.893   6.390  1.00  0.00    -0.355 OA
HETATM   27  C   UNL     1      44.431 -18.583   7.632  1.00  0.00     0.210 C 
ENDBRANCH  20  26
ENDBRANCH   1  19
BRANCH  13  28
HETATM   28  N   UNL     1      40.991 -10.999   1.375  1.00  0.00    -0.338 N 
HETATM   29  C   UNL     1      41.456 -10.136   0.413  1.00  0.00     0.316 C 
HETATM   30  N   UNL     1      42.798 -10.310   0.201  1.00  0.00    -0.340 N 
HETATM   31  O   UNL     1      40.767  -9.303  -0.157  1.00  0.00    -0.247 OA
HETATM   32  H   UNL     1      43.129 -11.255   0.327  1.00  0.00     0.164 HD
HETATM   33  H   UNL     1      41.705 -11.338   2.004  1.00  0.00     0.164 HD
BRANCH  30  34
HETATM   34  C   UNL     1      43.464  -9.543  -0.821  1.00  0.00     0.150 C 
BRANCH  34  35
HETATM   35  C   UNL     1      43.271 -10.269  -2.114  1.00  0.00    -0.018 C 
HETATM   36  C   UNL     1      42.678  -9.754  -3.200  1.00  0.00     0.008 C 
ENDBRANCH  34  35
ENDBRANCH  30  34
ENDBRANCH  13  28
TORSDOF 5
ENDMDL
MODEL 7
REMARK VINA RESULT:      -7.8      4.544      8.270
REMARK  5 active torsions:
REMARK  status: ('A' for Active; 'I' for Inactive)
REMARK    1  A    between atoms: O_2  and  C_3 
REMARK    2  A    between atoms: C_4  and  C_5 
REMARK    3  A    between atoms: C_17  and  N_18 
REMARK       I    between atoms: N_18  and  C_19 
REMARK       I    between atoms: C_19  and  N_20 
REMARK    4  A    between atoms: N_20  and  C_21 
REMARK    5  A    between atoms: C_21  and  C_22 
ROOT
HETATM    1  C   UNL     1      42.189 -17.114   3.919  1.00  0.00    -0.022 A 
HETATM    2  C   UNL     1      42.438 -15.764   4.227  1.00  0.00     0.031 A 
HETATM    3  C   UNL     1      41.623 -14.708   3.754  1.00  0.00     0.059 A 
HETATM    4  C   UNL     1      40.542 -15.012   2.928  1.00  0.00     0.050 A 
HETATM    5  N   UNL     1      39.654 -14.083   2.382  1.00  0.00    -0.324 N 
HETATM    6  C   UNL     1      39.250 -12.890   2.903  1.00  0.00     0.245 C 
HETATM    7  O   UNL     1      38.394 -12.263   2.272  1.00  0.00    -0.271 OA
HETATM    8  C   UNL     1      39.751 -12.478   4.302  1.00  0.00     0.181 C 
HETATM    9  N   UNL     1      41.208 -12.264   4.257  1.00  0.00    -0.334 N 
HETATM   10  C   UNL     1      42.098 -13.338   4.083  1.00  0.00     0.256 C 
HETATM   11  O   UNL     1      43.310 -13.193   4.257  1.00  0.00    -0.267 OA
HETATM   12  C   UNL     1      38.915 -11.268   4.758  1.00  0.00     0.060 C 
HETATM   13  C   UNL     1      39.575 -10.447   5.854  1.00  0.00     0.090 C 
HETATM   14  C   UNL     1      40.913  -9.968   5.318  1.00  0.00     0.045 C 
HETATM   15  C   UNL     1      41.818 -11.134   4.964  1.00  0.00     0.129 C 
HETATM   16  C   UNL     1      40.309 -16.348   2.573  1.00  0.00     0.031 A 
HETATM   17  C   UNL     1      41.102 -17.382   3.082  1.00  0.00     0.014 A 
HETATM   18  H   UNL     1      39.094 -14.358   1.583  1.00  0.00     0.169 HD
ENDROOT
BRANCH   1  19
HETATM   19  C   UNL     1      43.041 -18.198   4.472  1.00  0.00     0.009 A 
HETATM   20  C   UNL     1      43.848 -19.040   3.665  1.00  0.00     0.079 A 
HETATM   21  C   UNL     1      44.619 -20.054   4.257  1.00  0.00     0.039 A 
HETATM   22  C   UNL     1      44.614 -20.236   5.641  1.00  0.00     0.026 A 
HETATM   23  C   UNL     1      43.837 -19.412   6.440  1.00  0.00     0.035 A 
HETATM   24  C   UNL     1      43.056 -18.409   5.868  1.00  0.00     0.039 A 
HETATM   25 CL   UNL     1      43.836 -19.627   8.148  1.00  0.00    -0.084 Cl
BRANCH  20  26
HETATM   26  O   UNL     1      43.837 -18.795   2.314  1.00  0.00    -0.355 OA
HETATM   27  C   UNL     1      43.541 -19.875   1.439  1.00  0.00     0.210 C 
ENDBRANCH  20  26
ENDBRANCH   1  19
BRANCH  13  28
HETATM   28  N   UNL     1      39.696 -11.178   7.109  1.00  0.00    -0.338 N 
HETATM   29  C   UNL     1      39.863 -10.510   8.298  1.00  0.00     0.316 C 
HETATM   30  N   UNL     1      39.795 -11.372   9.360  1.00  0.00    -0.340 N 
HETATM   31  O   UNL     1      40.021  -9.302   8.394  1.00  0.00    -0.247 OA
HETATM   32  H   UNL     1      40.141 -12.302   9.176  1.00  0.00     0.164 HD
HETATM   33  H   UNL     1      39.209 -12.058   7.196  1.00  0.00     0.164 HD
BRANCH  30  34
HETATM   34  C   UNL     1      40.014 -10.875  10.696  1.00  0.00     0.150 C 
BRANCH  34  35
HETATM   35  C   UNL     1      41.449 -11.127  11.032  1.00  0.00    -0.018 C 
HETATM   36  C   UNL     1      42.074 -10.658  12.120  1.00  0.00     0.008 C 
ENDBRANCH  34  35
ENDBRANCH  30  34
ENDBRANCH  13  28
TORSDOF 5
ENDMDL
MODEL 8
REMARK VINA RESULT:      -7.8      4.346      9.341
REMARK  5 active torsions:
REMARK  status: ('A' for Active; 'I' for Inactive)
REMARK    1  A    between atoms: O_2  and  C_3 
REMARK    2  A    between atoms: C_4  and  C_5 
REMARK    3  A    between atoms: C_17  and  N_18 
REMARK       I    between atoms: N_18  and  C_19 
REMARK       I    between atoms: C_19  and  N_20 
REMARK    4  A    between atoms: N_20  and  C_21 
REMARK    5  A    between atoms: C_21  and  C_22 
ROOT
HETATM    1  C   UNL     1      42.115 -16.409   2.940  1.00  0.00    -0.022 A 
HETATM    2  C   UNL     1      42.006 -15.113   2.403  1.00  0.00     0.031 A 
HETATM    3  C   UNL     1      41.690 -14.872   1.045  1.00  0.00     0.059 A 
HETATM    4  C   UNL     1      41.500 -15.961   0.195  1.00  0.00     0.050 A 
HETATM    5  N   UNL     1      41.188 -15.882  -1.164  1.00  0.00    -0.324 N 
HETATM    6  C   UNL     1      40.471 -14.923  -1.815  1.00  0.00     0.245 C 
HETATM    7  O   UNL     1      40.258 -15.100  -3.017  1.00  0.00    -0.271 OA
HETATM    8  C   UNL     1      39.841 -13.778  -0.996  1.00  0.00     0.181 C 
HETATM    9  N   UNL     1      40.907 -12.952  -0.405  1.00  0.00    -0.334 N 
HETATM   10  C   UNL     1      41.728 -13.446   0.623  1.00  0.00     0.256 C 
HETATM   11  O   UNL     1      42.471 -12.694   1.259  1.00  0.00    -0.267 OA
HETATM   12  C   UNL     1      38.856 -13.035  -1.917  1.00  0.00     0.060 C 
HETATM   13  C   UNL     1      38.527 -11.626  -1.450  1.00  0.00     0.090 C 
HETATM   14  C   UNL     1      39.834 -10.856  -1.374  1.00  0.00     0.045 C 
HETATM   15  C   UNL     1      40.795 -11.490  -0.385  1.00  0.00     0.129 C 
HETATM   16  C   UNL     1      41.652 -17.257   0.704  1.00  0.00     0.031 A 
HETATM   17  C   UNL     1      41.927 -17.477   2.057  1.00  0.00     0.014 A 
HETATM   18  H   UNL     1      41.353 -16.695  -1.748  1.00  0.00     0.169 HD
ENDROOT
BRANCH   1  19
HETATM   19  C   UNL     1      42.405 -16.621   4.381  1.00  0.00     0.009 A 
HETATM   20  C   UNL     1      41.503 -16.268   5.417  1.00  0.00     0.079 A 
HETATM   21  C   UNL     1      41.851 -16.488   6.759  1.00  0.00     0.039 A 
HETATM   22  C   UNL     1      43.076 -17.068   7.092  1.00  0.00     0.026 A 
HETATM   23  C   UNL     1      43.962 -17.427   6.087  1.00  0.00     0.035 A 
HETATM   24  C   UNL     1      43.637 -17.204   4.750  1.00  0.00     0.039 A 
HETATM   25 CL   UNL     1      45.469 -18.151   6.492  1.00  0.00    -0.084 Cl
BRANCH  20  26
HETATM   26  O   UNL     1      40.300 -15.729   5.029  1.00  0.00    -0.355 OA
HETATM   27  C   UNL     1      40.000 -14.400   5.431  1.00  0.00     0.210 C 
ENDBRANCH  20  26
ENDBRANCH   1  19
BRANCH  13  28
HETATM   28  N   UNL     1      37.786 -11.607  -0.196  1.00  0.00    -0.338 N 
HETATM   29  C   UNL     1      36.804 -10.673   0.027  1.00  0.00     0.316 C 
HETATM   30  N   UNL     1      36.132 -10.932   1.192  1.00  0.00    -0.340 N 
HETATM   31  O   UNL     1      36.545  -9.750  -0.731  1.00  0.00    -0.247 OA
HETATM   32  H   UNL     1      36.690 -11.358   1.918  1.00  0.00     0.164 HD
HETATM   33  H   UNL     1      37.635 -12.485   0.280  1.00  0.00     0.164 HD
BRANCH  30  34
HETATM   34  C   UNL     1      35.105 -10.025   1.640  1.00  0.00     0.150 C 
BRANCH  34  35
HETATM   35  C   UNL     1      33.788 -10.651   1.309  1.00  0.00    -0.018 C 
HETATM   36  C   UNL     1      32.717 -10.651   2.113  1.00  0.00     0.008 C 
ENDBRANCH  34  35
ENDBRANCH  30  34
ENDBRANCH  13  28
TORSDOF 5
ENDMDL
MODEL 9
REMARK VINA RESULT:      -7.7      4.240      8.606
REMARK  5 active torsions:
REMARK  status: ('A' for Active; 'I' for Inactive)
REMARK    1  A    between atoms: O_2  and  C_3 
REMARK    2  A    between atoms: C_4  and  C_5 
REMARK    3  A    between atoms: C_17  and  N_18 
REMARK       I    between atoms: N_18  and  C_19 
REMARK       I    between atoms: C_19  and  N_20 
REMARK    4  A    between atoms: N_20  and  C_21 
REMARK    5  A    between atoms: C_21  and  C_22 
ROOT
HETATM    1  C   UNL     1      42.058 -16.965   3.457  1.00  0.00    -0.022 A 
HETATM    2  C   UNL     1      42.201 -15.592   3.185  1.00  0.00     0.031 A 
HETATM    3  C   UNL     1      41.316 -14.884   2.338  1.00  0.00     0.059 A 
HETATM    4  C   UNL     1      40.273 -15.577   1.726  1.00  0.00     0.050 A 
HETATM    5  N   UNL     1      39.326 -15.019   0.864  1.00  0.00    -0.324 N 
HETATM    6  C   UNL     1      38.826 -13.750   0.862  1.00  0.00     0.245 C 
HETATM    7  O   UNL     1      37.935 -13.500   0.046  1.00  0.00    -0.271 OA
HETATM    8  C   UNL     1      39.275 -12.769   1.964  1.00  0.00     0.181 C 
HETATM    9  N   UNL     1      40.712 -12.485   1.812  1.00  0.00    -0.334 N 
HETATM   10  C   UNL     1      41.682 -13.467   2.073  1.00  0.00     0.256 C 
HETATM   11  O   UNL     1      42.877 -13.173   2.153  1.00  0.00    -0.267 OA
HETATM   12  C   UNL     1      38.343 -11.545   1.904  1.00  0.00     0.060 C 
HETATM   13  C   UNL     1      38.924 -10.302   2.561  1.00  0.00     0.090 C 
HETATM   14  C   UNL     1      40.230  -9.984   1.853  1.00  0.00     0.045 C 
HETATM   15  C   UNL     1      41.225 -11.122   1.988  1.00  0.00     0.129 C 
HETATM   16  C   UNL     1      40.146 -16.955   1.948  1.00  0.00     0.031 A 
HETATM   17  C   UNL     1      41.007 -17.630   2.819  1.00  0.00     0.014 A 
HETATM   18  H   UNL     1      38.799 -15.636   0.255  1.00  0.00     0.169 HD
ENDROOT
BRANCH   1  19
HETATM   19  C   UNL     1      42.981 -17.664   4.387  1.00  0.00     0.009 A 
HETATM   20  C   UNL     1      43.955 -18.602   3.959  1.00  0.00     0.079 A 
HETATM   21  C   UNL     1      44.785 -19.234   4.898  1.00  0.00     0.039 A 
HETATM   22  C   UNL     1      44.675 -18.940   6.258  1.00  0.00     0.026 A 
HETATM   23  C   UNL     1      43.733 -18.017   6.688  1.00  0.00     0.035 A 
HETATM   24  C   UNL     1      42.893 -17.390   5.770  1.00  0.00     0.039 A 
HETATM   25 CL   UNL     1      43.601 -17.644   8.363  1.00  0.00    -0.084 Cl
BRANCH  20  26
HETATM   26  O   UNL     1      44.038 -18.829   2.606  1.00  0.00    -0.355 OA
HETATM   27  C   UNL     1      43.782 -20.144   2.130  1.00  0.00     0.210 C 
ENDBRANCH  20  26
ENDBRANCH   1  19
BRANCH  13  28
HETATM   28  N   UNL     1      39.081 -10.448   4.002  1.00  0.00    -0.338 N 
HETATM   29  C   UNL     1      39.017  -9.355   4.831  1.00  0.00     0.316 C 
HETATM   30  N   UNL     1      39.031  -9.733   6.147  1.00  0.00    -0.340 N 
HETATM   31  O   UNL     1      38.929  -8.199   4.442  1.00  0.00    -0.247 OA
HETATM   32  H   UNL     1      39.564 -10.567   6.344  1.00  0.00     0.164 HD
HETATM   33  H   UNL     1      38.769 -11.309   4.429  1.00  0.00     0.164 HD
BRANCH  30  34
HETATM   34  C   UNL     1      39.038  -8.725   7.178  1.00  0.00     0.150 C 
BRANCH  34  35
HETATM   35  C   UNL     1      38.941  -9.435   8.490  1.00  0.00    -0.018 C 
HETATM   36  C   UNL     1      39.227 -10.729   8.684  1.00  0.00     0.008 C 
ENDBRANCH  34  35
ENDBRANCH  30  34
ENDBRANCH  13  28
TORSDOF 5
ENDMDL
MODEL 10
REMARK VINA RESULT:      -7.5      4.367      8.905
REMARK  5 active torsions:
REMARK  status: ('A' for Active; 'I' for Inactive)
REMARK    1  A    between atoms: O_2  and  C_3 
REMARK    2  A    between atoms: C_4  and  C_5 
REMARK    3  A    between atoms: C_17  and  N_18 
REMARK       I    between atoms: N_18  and  C_19 
REMARK       I    between atoms: C_19  and  N_20 
REMARK    4  A    between atoms: N_20  and  C_21 
REMARK    5  A    between atoms: C_21  and  C_22 
ROOT
HETATM    1  C   UNL     1      42.189 -16.733   3.602  1.00  0.00    -0.022 A 
HETATM    2  C   UNL     1      42.243 -15.377   3.233  1.00  0.00     0.031 A 
HETATM    3  C   UNL     1      41.287 -14.778   2.379  1.00  0.00     0.059 A 
HETATM    4  C   UNL     1      40.261 -15.566   1.861  1.00  0.00     0.050 A 
HETATM    5  N   UNL     1      39.251 -15.121   1.006  1.00  0.00    -0.324 N 
HETATM    6  C   UNL     1      38.680 -13.884   0.940  1.00  0.00     0.245 C 
HETATM    7  O   UNL     1      37.745 -13.739   0.149  1.00  0.00    -0.271 OA
HETATM    8  C   UNL     1      39.117 -12.806   1.953  1.00  0.00     0.181 C 
HETATM    9  N   UNL     1      40.529 -12.457   1.720  1.00  0.00    -0.334 N 
HETATM   10  C   UNL     1      41.562 -13.365   2.004  1.00  0.00     0.256 C 
HETATM   11  O   UNL     1      42.741 -13.004   2.011  1.00  0.00    -0.267 OA
HETATM   12  C   UNL     1      38.117 -11.640   1.851  1.00  0.00     0.060 C 
HETATM   13  C   UNL     1      38.652 -10.326   2.397  1.00  0.00     0.090 C 
HETATM   14  C   UNL     1      39.910  -9.989   1.613  1.00  0.00     0.045 C 
HETATM   15  C   UNL     1      40.971 -11.060   1.781  1.00  0.00     0.129 C 
HETATM   16  C   UNL     1      40.221 -16.930   2.181  1.00  0.00     0.031 A 
HETATM   17  C   UNL     1      41.152 -17.497   3.057  1.00  0.00     0.014 A 
HETATM   18  H   UNL     1      38.736 -15.806   0.464  1.00  0.00     0.169 HD
ENDROOT
BRANCH   1  19
HETATM   19  C   UNL     1      43.186 -17.316   4.537  1.00  0.00     0.009 A 
HETATM   20  C   UNL     1      43.643 -16.649   5.701  1.00  0.00     0.079 A 
HETATM   21  C   UNL     1      44.598 -17.257   6.532  1.00  0.00     0.039 A 
HETATM   22  C   UNL     1      45.096 -18.526   6.235  1.00  0.00     0.026 A 
HETATM   23  C   UNL     1      44.648 -19.192   5.104  1.00  0.00     0.035 A 
HETATM   24  C   UNL     1      43.711 -18.598   4.262  1.00  0.00     0.039 A 
HETATM   25 CL   UNL     1      45.253 -20.762   4.739  1.00  0.00    -0.084 Cl
BRANCH  20  26
HETATM   26  O   UNL     1      43.096 -15.415   5.960  1.00  0.00    -0.355 OA
HETATM   27  C   UNL     1      43.946 -14.398   6.471  1.00  0.00     0.210 C 
ENDBRANCH  20  26
ENDBRANCH   1  19
BRANCH  13  28
HETATM   28  N   UNL     1      38.875 -10.362   3.836  1.00  0.00    -0.338 N 
HETATM   29  C   UNL     1      38.764  -9.222   4.594  1.00  0.00     0.316 C 
HETATM   30  N   UNL     1      38.855  -9.509   5.931  1.00  0.00    -0.340 N 
HETATM   31  O   UNL     1      38.577  -8.105   4.135  1.00  0.00    -0.247 OA
HETATM   32  H   UNL     1      39.455 -10.288   6.158  1.00  0.00     0.164 HD
HETATM   33  H   UNL     1      38.643 -11.211   4.332  1.00  0.00     0.164 HD
BRANCH  30  34
HETATM   34  C   UNL     1      38.829  -8.435   6.892  1.00  0.00     0.150 C 
BRANCH  34  35
HETATM   35  C   UNL     1      40.198  -8.339   7.485  1.00  0.00    -0.018 C 
HETATM   36  C   UNL     1      40.460  -8.030   8.762  1.00  0.00     0.008 C 
ENDBRANCH  34  35
ENDBRANCH  30  34
ENDBRANCH  13  28
TORSDOF 5
ENDMDL
