MODEL 1
REMARK VINA RESULT:      -9.1      0.000      0.000
REMARK  7 active torsions:
REMARK  status: ('A' for Active; 'I' for Inactive)
REMARK    1  A    between atoms: C_11  and  N_12 
REMARK       I    between atoms: N_12  and  C_13 
REMARK    2  A    between atoms: C_13  and  C_14 
REMARK    3  A    between atoms: C_14  and  S_15 
REMARK    4  A    between atoms: S_15  and  C_16 
REMARK    5  A    between atoms: N_17  and  C_18 
REMARK    6  A    between atoms: C_18  and  C_19 
REMARK    7  A    between atoms: C_25  and  C_26 
ROOT
HETATM    1  N   UNL     1      42.478 -15.290   2.463  1.00  0.00    -0.326 N 
HETATM    2  C   UNL     1      43.039 -14.078   2.823  1.00  0.00     0.231 C 
HETATM    3  O   UNL     1      44.136 -13.946   3.370  1.00  0.00    -0.272 OA
HETATM    4  H   UNL     1      41.635 -15.237   1.901  1.00  0.00     0.169 HD
ENDROOT
BRANCH   2   5
HETATM    5  C   UNL     1      42.194 -12.838   2.589  1.00  0.00     0.185 C 
BRANCH   5   6
HETATM    6  S   UNL     1      40.814 -13.044   1.418  1.00  0.00    -0.081 SA
BRANCH   6   7
HETATM    7  C   UNL     1      41.569 -12.388  -0.005  1.00  0.00     0.192 A 
HETATM    8  N   UNL     1      41.064 -12.453  -1.284  1.00  0.00    -0.307 N 
HETATM    9  C   UNL     1      42.060 -11.928  -2.084  1.00  0.00     0.135 A 
HETATM   10  N   UNL     1      43.029 -11.477  -1.310  1.00  0.00    -0.134 NA
HETATM   11  N   UNL     1      42.727 -11.776  -0.014  1.00  0.00    -0.123 NA
BRANCH   8  12
HETATM   12  C   UNL     1      39.688 -12.744  -1.640  1.00  0.00     0.171 C 
BRANCH  12  13
HETATM   13  C   UNL     1      39.490 -13.969  -2.497  1.00  0.00    -0.040 A 
HETATM   14  C   UNL     1      40.419 -15.018  -2.551  1.00  0.00     0.009 A 
HETATM   15  C   UNL     1      40.170 -16.151  -3.330  1.00  0.00     0.001 A 
HETATM   16  C   UNL     1      38.983 -16.259  -4.051  1.00  0.00     0.000 A 
HETATM   17  C   UNL     1      38.039 -15.238  -3.992  1.00  0.00     0.001 A 
HETATM   18  C   UNL     1      38.287 -14.105  -3.214  1.00  0.00     0.009 A 
ENDBRANCH  12  13
ENDBRANCH   8  12
BRANCH   9  19
HETATM   19  C   UNL     1      42.242 -11.813  -3.592  1.00  0.00     0.057 A 
HETATM   20  C   UNL     1      41.199 -11.075  -4.404  1.00  0.00     0.013 A 
HETATM   21  C   UNL     1      42.592 -10.547  -4.329  1.00  0.00     0.013 A 
ENDBRANCH   9  19
ENDBRANCH   6   7
ENDBRANCH   5   6
ENDBRANCH   2   5
BRANCH   1  22
HETATM   22  C   UNL     1      43.007 -16.577   2.718  1.00  0.00     0.037 A 
HETATM   23  C   UNL     1      43.615 -17.367   1.735  1.00  0.00     0.032 A 
HETATM   24  C   UNL     1      44.139 -18.626   2.044  1.00  0.00     0.041 A 
HETATM   25  C   UNL     1      44.075 -19.102   3.346  1.00  0.00     0.096 A 
HETATM   26  O   UNL     1      44.572 -20.357   3.566  1.00  0.00    -0.335 OA
HETATM   27  C   UNL     1      43.464 -18.330   4.336  1.00  0.00     0.070 A 
HETATM   28  C   UNL     1      44.887 -20.610   4.932  1.00  0.00     0.217 C 
HETATM   29  C   UNL     1      45.042 -22.117   5.094  1.00  0.00     0.050 C 
HETATM   30  C   UNL     1      43.913 -20.043   5.980  1.00  0.00     0.251 C 
HETATM   31  N   UNL     1      43.344 -18.843   5.631  1.00  0.00    -0.323 N 
HETATM   32  O   UNL     1      43.718 -20.535   7.088  1.00  0.00    -0.270 OA
HETATM   33  H   UNL     1      42.777 -18.384   6.330  1.00  0.00     0.169 HD
HETATM   34  C   UNL     1      42.933 -17.072   4.028  1.00  0.00     0.062 A 
ENDBRANCH   1  22
TORSDOF 7
ENDMDL
MODEL 2
REMARK VINA RESULT:      -9.1      4.367      8.783
REMARK  7 active torsions:
REMARK  status: ('A' for Active; 'I' for Inactive)
REMARK    1  A    between atoms: C_11  and  N_12 
REMARK       I    between atoms: N_12  and  C_13 
REMARK    2  A    between atoms: C_13  and  C_14 
REMARK    3  A    between atoms: C_14  and  S_15 
REMARK    4  A    between atoms: S_15  and  C_16 
REMARK    5  A    between atoms: N_17  and  C_18 
REMARK    6  A    between atoms: C_18  and  C_19 
REMARK    7  A    between atoms: C_25  and  C_26 
ROOT
HETATM    1  N   UNL     1      41.904 -14.491   6.245  1.00  0.00    -0.326 N 
HETATM    2  C   UNL     1      43.207 -14.808   5.906  1.00  0.00     0.231 C 
HETATM    3  O   UNL     1      43.798 -14.384   4.912  1.00  0.00    -0.272 OA
HETATM    4  H   UNL     1      41.595 -14.805   7.159  1.00  0.00     0.169 HD
ENDROOT
BRANCH   2   5
HETATM    5  C   UNL     1      43.918 -15.813   6.797  1.00  0.00     0.185 C 
BRANCH   5   6
HETATM    6  S   UNL     1      43.051 -17.397   7.034  1.00  0.00    -0.081 SA
BRANCH   6   7
HETATM    7  C   UNL     1      42.420 -17.601   5.426  1.00  0.00     0.192 A 
HETATM    8  N   UNL     1      43.153 -17.945   4.314  1.00  0.00    -0.307 N 
HETATM    9  C   UNL     1      42.263 -17.852   3.262  1.00  0.00     0.135 A 
HETATM   10  N   UNL     1      41.064 -17.590   3.745  1.00  0.00    -0.134 NA
HETATM   11  N   UNL     1      41.166 -17.421   5.095  1.00  0.00    -0.123 NA
BRANCH   8  12
HETATM   12  C   UNL     1      44.476 -18.541   4.319  1.00  0.00     0.171 C 
BRANCH  12  13
HETATM   13  C   UNL     1      44.511 -20.036   4.125  1.00  0.00    -0.040 A 
HETATM   14  C   UNL     1      44.474 -20.639   2.858  1.00  0.00     0.009 A 
HETATM   15  C   UNL     1      44.550 -22.028   2.729  1.00  0.00     0.001 A 
HETATM   16  C   UNL     1      44.681 -22.832   3.859  1.00  0.00     0.000 A 
HETATM   17  C   UNL     1      44.741 -22.250   5.122  1.00  0.00     0.001 A 
HETATM   18  C   UNL     1      44.665 -20.862   5.252  1.00  0.00     0.009 A 
ENDBRANCH  12  13
ENDBRANCH   8  12
BRANCH   9  19
HETATM   19  C   UNL     1      42.413 -17.961   1.749  1.00  0.00     0.057 A 
HETATM   20  C   UNL     1      42.479 -16.694   0.924  1.00  0.00     0.013 A 
HETATM   21  C   UNL     1      43.655 -17.610   0.973  1.00  0.00     0.013 A 
ENDBRANCH   9  19
ENDBRANCH   6   7
ENDBRANCH   5   6
ENDBRANCH   2   5
BRANCH   1  22
HETATM   22  C   UNL     1      41.001 -13.703   5.492  1.00  0.00     0.037 A 
HETATM   23  C   UNL     1      40.574 -12.431   5.890  1.00  0.00     0.032 A 
HETATM   24  C   UNL     1      39.694 -11.686   5.099  1.00  0.00     0.041 A 
HETATM   25  C   UNL     1      39.245 -12.200   3.891  1.00  0.00     0.096 A 
HETATM   26  O   UNL     1      38.356 -11.432   3.190  1.00  0.00    -0.335 OA
HETATM   27  C   UNL     1      39.654 -13.471   3.484  1.00  0.00     0.070 A 
HETATM   28  C   UNL     1      38.278 -11.775   1.810  1.00  0.00     0.217 C 
HETATM   29  C   UNL     1      37.008 -11.142   1.253  1.00  0.00     0.050 C 
HETATM   30  C   UNL     1      38.338 -13.273   1.467  1.00  0.00     0.251 C 
HETATM   31  N   UNL     1      39.145 -14.010   2.299  1.00  0.00    -0.323 N 
HETATM   32  O   UNL     1      37.814 -13.785   0.481  1.00  0.00    -0.270 OA
HETATM   33  H   UNL     1      39.296 -14.979   2.052  1.00  0.00     0.169 HD
HETATM   34  C   UNL     1      40.530 -14.222   4.277  1.00  0.00     0.062 A 
ENDBRANCH   1  22
TORSDOF 7
ENDMDL
MODEL 3
REMARK VINA RESULT:      -9.0      4.058     10.512
REMARK  7 active torsions:
REMARK  status: ('A' for Active; 'I' for Inactive)
REMARK    1  A    between atoms: C_11  and  N_12 
REMARK       I    between atoms: N_12  and  C_13 
REMARK    2  A    between atoms: C_13  and  C_14 
REMARK    3  A    between atoms: C_14  and  S_15 
REMARK    4  A    between atoms: S_15  and  C_16 
REMARK    5  A    between atoms: N_17  and  C_18 
REMARK    6  A    between atoms: C_18  and  C_19 
REMARK    7  A    between atoms: C_25  and  C_26 
ROOT
HETATM    1  N   UNL     1      40.145 -14.207  -1.214  1.00  0.00    -0.326 N 
HETATM    2  C   UNL     1      40.191 -14.559   0.123  1.00  0.00     0.231 C 
HETATM    3  O   UNL     1      39.253 -14.442   0.914  1.00  0.00    -0.272 OA
HETATM    4  H   UNL     1      40.945 -14.484  -1.772  1.00  0.00     0.169 HD
ENDROOT
BRANCH   2   5
HETATM    5  C   UNL     1      41.527 -15.053   0.653  1.00  0.00     0.185 C 
BRANCH   5   6
HETATM    6  S   UNL     1      41.641 -16.850   0.926  1.00  0.00    -0.081 SA
BRANCH   6   7
HETATM    7  C   UNL     1      41.701 -16.854   2.664  1.00  0.00     0.192 A 
HETATM    8  N   UNL     1      42.632 -17.514   3.434  1.00  0.00    -0.307 N 
HETATM    9  C   UNL     1      42.201 -17.342   4.735  1.00  0.00     0.135 A 
HETATM   10  N   UNL     1      41.158 -16.534   4.730  1.00  0.00    -0.134 NA
HETATM   11  N   UNL     1      40.839 -16.241   3.437  1.00  0.00    -0.123 NA
BRANCH   8  12
HETATM   12  C   UNL     1      43.912 -18.017   2.973  1.00  0.00     0.171 C 
BRANCH  12  13
HETATM   13  C   UNL     1      44.036 -19.519   2.930  1.00  0.00    -0.040 A 
HETATM   14  C   UNL     1      43.620 -20.285   1.830  1.00  0.00     0.009 A 
HETATM   15  C   UNL     1      43.794 -21.672   1.822  1.00  0.00     0.001 A 
HETATM   16  C   UNL     1      44.400 -22.309   2.902  1.00  0.00     0.000 A 
HETATM   17  C   UNL     1      44.839 -21.563   3.991  1.00  0.00     0.001 A 
HETATM   18  C   UNL     1      44.666 -20.178   4.001  1.00  0.00     0.009 A 
ENDBRANCH  12  13
ENDBRANCH   8  12
BRANCH   9  19
HETATM   19  C   UNL     1      42.662 -17.901   6.075  1.00  0.00     0.057 A 
HETATM   20  C   UNL     1      43.984 -17.440   6.648  1.00  0.00     0.013 A 
HETATM   21  C   UNL     1      42.715 -17.127   7.366  1.00  0.00     0.013 A 
ENDBRANCH   9  19
ENDBRANCH   6   7
ENDBRANCH   5   6
ENDBRANCH   2   5
BRANCH   1  22
HETATM   22  C   UNL     1      39.066 -13.588  -1.889  1.00  0.00     0.037 A 
HETATM   23  C   UNL     1      38.623 -12.291  -1.604  1.00  0.00     0.032 A 
HETATM   24  C   UNL     1      37.563 -11.720  -2.314  1.00  0.00     0.041 A 
HETATM   25  C   UNL     1      36.945 -12.434  -3.331  1.00  0.00     0.096 A 
HETATM   26  O   UNL     1      35.891 -11.826  -3.955  1.00  0.00    -0.335 OA
HETATM   27  C   UNL     1      37.370 -13.733  -3.621  1.00  0.00     0.070 A 
HETATM   28  C   UNL     1      35.594 -12.382  -5.233  1.00  0.00     0.217 C 
HETATM   29  C   UNL     1      34.202 -11.903  -5.627  1.00  0.00     0.050 C 
HETATM   30  C   UNL     1      35.704 -13.910  -5.363  1.00  0.00     0.251 C 
HETATM   31  N   UNL     1      36.699 -14.471  -4.601  1.00  0.00    -0.323 N 
HETATM   32  O   UNL     1      35.052 -14.592  -6.150  1.00  0.00    -0.270 OA
HETATM   33  H   UNL     1      36.876 -15.458  -4.731  1.00  0.00     0.169 HD
HETATM   34  C   UNL     1      38.426 -14.310  -2.907  1.00  0.00     0.062 A 
ENDBRANCH   1  22
TORSDOF 7
ENDMDL
MODEL 4
REMARK VINA RESULT:      -8.8      3.406      8.841
REMARK  7 active torsions:
REMARK  status: ('A' for Active; 'I' for Inactive)
REMARK    1  A    between atoms: C_11  and  N_12 
REMARK       I    between atoms: N_12  and  C_13 
REMARK    2  A    between atoms: C_13  and  C_14 
REMARK    3  A    between atoms: C_14  and  S_15 
REMARK    4  A    between atoms: S_15  and  C_16 
REMARK    5  A    between atoms: N_17  and  C_18 
REMARK    6  A    between atoms: C_18  and  C_19 
REMARK    7  A    between atoms: C_25  and  C_26 
ROOT
HETATM    1  N   UNL     1      40.524 -13.302   2.750  1.00  0.00    -0.326 N 
HETATM    2  C   UNL     1      41.825 -12.839   2.813  1.00  0.00     0.231 C 
HETATM    3  O   UNL     1      42.487 -12.466   1.843  1.00  0.00    -0.272 OA
HETATM    4  H   UNL     1      40.061 -13.445   3.642  1.00  0.00     0.169 HD
ENDROOT
BRANCH   2   5
HETATM    5  C   UNL     1      42.496 -12.871   4.177  1.00  0.00     0.185 C 
BRANCH   5   6
HETATM    6  S   UNL     1      41.605 -13.803   5.463  1.00  0.00    -0.081 SA
BRANCH   6   7
HETATM    7  C   UNL     1      42.894 -14.852   5.976  1.00  0.00     0.192 A 
HETATM    8  N   UNL     1      42.917 -16.221   5.841  1.00  0.00    -0.307 N 
HETATM    9  C   UNL     1      44.059 -16.623   6.507  1.00  0.00     0.135 A 
HETATM   10  N   UNL     1      44.719 -15.550   6.897  1.00  0.00    -0.134 NA
HETATM   11  N   UNL     1      43.985 -14.445   6.576  1.00  0.00    -0.123 NA
BRANCH   8  12
HETATM   12  C   UNL     1      42.075 -17.002   4.954  1.00  0.00     0.171 C 
BRANCH  12  13
HETATM   13  C   UNL     1      42.708 -17.392   3.642  1.00  0.00    -0.040 A 
HETATM   14  C   UNL     1      42.894 -18.727   3.255  1.00  0.00     0.009 A 
HETATM   15  C   UNL     1      43.449 -19.037   2.010  1.00  0.00     0.001 A 
HETATM   16  C   UNL     1      43.809 -18.019   1.130  1.00  0.00     0.000 A 
HETATM   17  C   UNL     1      43.611 -16.689   1.488  1.00  0.00     0.001 A 
HETATM   18  C   UNL     1      43.057 -16.379   2.731  1.00  0.00     0.009 A 
ENDBRANCH  12  13
ENDBRANCH   8  12
BRANCH   9  19
HETATM   19  C   UNL     1      44.636 -17.985   6.871  1.00  0.00     0.057 A 
HETATM   20  C   UNL     1      44.200 -18.648   8.159  1.00  0.00     0.013 A 
HETATM   21  C   UNL     1      43.873 -19.283   6.851  1.00  0.00     0.013 A 
ENDBRANCH   9  19
ENDBRANCH   6   7
ENDBRANCH   5   6
ENDBRANCH   2   5
BRANCH   1  22
HETATM   22  C   UNL     1      39.753 -13.505   1.581  1.00  0.00     0.037 A 
HETATM   23  C   UNL     1      38.410 -13.124   1.469  1.00  0.00     0.032 A 
HETATM   24  C   UNL     1      37.699 -13.331   0.284  1.00  0.00     0.041 A 
HETATM   25  C   UNL     1      38.329 -13.906  -0.811  1.00  0.00     0.096 A 
HETATM   26  O   UNL     1      37.559 -14.113  -1.922  1.00  0.00    -0.335 OA
HETATM   27  C   UNL     1      39.665 -14.299  -0.712  1.00  0.00     0.070 A 
HETATM   28  C   UNL     1      38.322 -14.276  -3.115  1.00  0.00     0.217 C 
HETATM   29  C   UNL     1      37.399 -14.879  -4.167  1.00  0.00     0.050 C 
HETATM   30  C   UNL     1      39.622 -15.089  -2.996  1.00  0.00     0.251 C 
HETATM   31  N   UNL     1      40.273 -14.939  -1.796  1.00  0.00    -0.323 N 
HETATM   32  O   UNL     1      40.124 -15.739  -3.909  1.00  0.00    -0.270 OA
HETATM   33  H   UNL     1      41.183 -15.372  -1.711  1.00  0.00     0.169 HD
HETATM   34  C   UNL     1      40.378 -14.100   0.476  1.00  0.00     0.062 A 
ENDBRANCH   1  22
TORSDOF 7
ENDMDL
MODEL 5
REMARK VINA RESULT:      -8.7      3.795      8.441
REMARK  7 active torsions:
REMARK  status: ('A' for Active; 'I' for Inactive)
REMARK    1  A    between atoms: C_11  and  N_12 
REMARK       I    between atoms: N_12  and  C_13 
REMARK    2  A    between atoms: C_13  and  C_14 
REMARK    3  A    between atoms: C_14  and  S_15 
REMARK    4  A    between atoms: S_15  and  C_16 
REMARK    5  A    between atoms: N_17  and  C_18 
REMARK    6  A    between atoms: C_18  and  C_19 
REMARK    7  A    between atoms: C_25  and  C_26 
ROOT
HETATM    1  N   UNL     1      42.290 -14.238   6.106  1.00  0.00    -0.326 N 
HETATM    2  C   UNL     1      43.636 -14.465   6.328  1.00  0.00     0.231 C 
HETATM    3  O   UNL     1      44.553 -13.887   5.743  1.00  0.00    -0.272 OA
HETATM    4  H   UNL     1      41.652 -14.688   6.754  1.00  0.00     0.169 HD
ENDROOT
BRANCH   2   5
HETATM    5  C   UNL     1      43.988 -15.566   7.315  1.00  0.00     0.185 C 
BRANCH   5   6
HETATM    6  S   UNL     1      44.217 -17.221   6.590  1.00  0.00    -0.081 SA
BRANCH   6   7
HETATM    7  C   UNL     1      42.802 -17.269   5.580  1.00  0.00     0.192 A 
HETATM    8  N   UNL     1      42.798 -17.356   4.207  1.00  0.00    -0.307 N 
HETATM    9  C   UNL     1      41.471 -17.225   3.848  1.00  0.00     0.135 A 
HETATM   10  N   UNL     1      40.739 -17.188   4.945  1.00  0.00    -0.134 NA
HETATM   11  N   UNL     1      41.572 -17.202   6.026  1.00  0.00    -0.123 NA
BRANCH   8  12
HETATM   12  C   UNL     1      43.913 -17.776   3.379  1.00  0.00     0.171 C 
BRANCH  12  13
HETATM   13  C   UNL     1      43.993 -19.257   3.109  1.00  0.00    -0.040 A 
HETATM   14  C   UNL     1      43.506 -19.842   1.930  1.00  0.00     0.009 A 
HETATM   15  C   UNL     1      43.640 -21.216   1.709  1.00  0.00     0.001 A 
HETATM   16  C   UNL     1      44.278 -22.019   2.651  1.00  0.00     0.000 A 
HETATM   17  C   UNL     1      44.788 -21.452   3.815  1.00  0.00     0.001 A 
HETATM   18  C   UNL     1      44.653 -20.080   4.038  1.00  0.00     0.009 A 
ENDBRANCH  12  13
ENDBRANCH   8  12
BRANCH   9  19
HETATM   19  C   UNL     1      40.754 -17.096   2.509  1.00  0.00     0.057 A 
HETATM   20  C   UNL     1      40.083 -15.787   2.158  1.00  0.00     0.013 A 
HETATM   21  C   UNL     1      41.235 -16.272   1.345  1.00  0.00     0.013 A 
ENDBRANCH   9  19
ENDBRANCH   6   7
ENDBRANCH   5   6
ENDBRANCH   2   5
BRANCH   1  22
HETATM   22  C   UNL     1      41.726 -13.378   5.134  1.00  0.00     0.037 A 
HETATM   23  C   UNL     1      40.634 -12.540   5.390  1.00  0.00     0.032 A 
HETATM   24  C   UNL     1      40.126 -11.695   4.399  1.00  0.00     0.041 A 
HETATM   25  C   UNL     1      40.716 -11.667   3.143  1.00  0.00     0.096 A 
HETATM   26  O   UNL     1      40.141 -10.846   2.213  1.00  0.00    -0.335 OA
HETATM   27  C   UNL     1      41.800 -12.504   2.869  1.00  0.00     0.070 A 
HETATM   28  C   UNL     1      41.010 -10.520   1.132  1.00  0.00     0.217 C 
HETATM   29  C   UNL     1      40.150  -9.954   0.009  1.00  0.00     0.050 C 
HETATM   30  C   UNL     1      41.916 -11.649   0.612  1.00  0.00     0.251 C 
HETATM   31  N   UNL     1      42.347 -12.520   1.583  1.00  0.00    -0.323 N 
HETATM   32  O   UNL     1      42.330 -11.737  -0.542  1.00  0.00    -0.270 OA
HETATM   33  H   UNL     1      43.026 -13.216   1.307  1.00  0.00     0.169 HD
HETATM   34  C   UNL     1      42.307 -13.356   3.858  1.00  0.00     0.062 A 
ENDBRANCH   1  22
TORSDOF 7
ENDMDL
MODEL 6
REMARK VINA RESULT:      -8.6      5.405      8.862
REMARK  7 active torsions:
REMARK  status: ('A' for Active; 'I' for Inactive)
REMARK    1  A    between atoms: C_11  and  N_12 
REMARK       I    between atoms: N_12  and  C_13 
REMARK    2  A    between atoms: C_13  and  C_14 
REMARK    3  A    between atoms: C_14  and  S_15 
REMARK    4  A    between atoms: S_15  and  C_16 
REMARK    5  A    between atoms: N_17  and  C_18 
REMARK    6  A    between atoms: C_18  and  C_19 
REMARK    7  A    between atoms: C_25  and  C_26 
ROOT
HETATM    1  N   UNL     1      40.344 -10.845   5.411  1.00  0.00    -0.326 N 
HETATM    2  C   UNL     1      39.401 -11.809   5.104  1.00  0.00     0.231 C 
HETATM    3  O   UNL     1      38.731 -12.428   5.933  1.00  0.00    -0.272 OA
HETATM    4  H   UNL     1      40.718 -10.326   4.624  1.00  0.00     0.169 HD
ENDROOT
BRANCH   2   5
HETATM    5  C   UNL     1      39.248 -12.172   3.636  1.00  0.00     0.185 C 
BRANCH   5   6
HETATM    6  S   UNL     1      39.700 -13.882   3.203  1.00  0.00    -0.081 SA
BRANCH   6   7
HETATM    7  C   UNL     1      41.324 -13.896   3.824  1.00  0.00     0.192 A 
HETATM    8  N   UNL     1      41.878 -14.886   4.604  1.00  0.00    -0.307 N 
HETATM    9  C   UNL     1      43.120 -14.401   4.961  1.00  0.00     0.135 A 
HETATM   10  N   UNL     1      43.325 -13.260   4.332  1.00  0.00    -0.134 NA
HETATM   11  N   UNL     1      42.198 -12.940   3.632  1.00  0.00    -0.123 NA
BRANCH   8  12
HETATM   12  C   UNL     1      41.363 -16.234   4.757  1.00  0.00     0.171 C 
BRANCH  12  13
HETATM   13  C   UNL     1      42.047 -17.284   3.918  1.00  0.00    -0.040 A 
HETATM   14  C   UNL     1      41.854 -17.396   2.533  1.00  0.00     0.009 A 
HETATM   15  C   UNL     1      42.543 -18.362   1.794  1.00  0.00     0.001 A 
HETATM   16  C   UNL     1      43.445 -19.215   2.424  1.00  0.00     0.000 A 
HETATM   17  C   UNL     1      43.666 -19.104   3.793  1.00  0.00     0.001 A 
HETATM   18  C   UNL     1      42.978 -18.140   4.533  1.00  0.00     0.009 A 
ENDBRANCH  12  13
ENDBRANCH   8  12
BRANCH   9  19
HETATM   19  C   UNL     1      44.207 -14.897   5.907  1.00  0.00     0.057 A 
HETATM   20  C   UNL     1      44.357 -14.242   7.262  1.00  0.00     0.013 A 
HETATM   21  C   UNL     1      43.966 -15.678   7.172  1.00  0.00     0.013 A 
ENDBRANCH   9  19
ENDBRANCH   6   7
ENDBRANCH   5   6
ENDBRANCH   2   5
BRANCH   1  22
HETATM   22  C   UNL     1      40.763 -10.453   6.704  1.00  0.00     0.037 A 
HETATM   23  C   UNL     1      40.159  -9.418   7.428  1.00  0.00     0.032 A 
HETATM   24  C   UNL     1      40.601  -9.082   8.711  1.00  0.00     0.041 A 
HETATM   25  C   UNL     1      41.642  -9.791   9.292  1.00  0.00     0.096 A 
HETATM   26  O   UNL     1      42.046  -9.381  10.533  1.00  0.00    -0.335 OA
HETATM   27  C   UNL     1      42.261 -10.821   8.580  1.00  0.00     0.070 A 
HETATM   28  C   UNL     1      42.775 -10.375  11.247  1.00  0.00     0.217 C 
HETATM   29  C   UNL     1      43.486  -9.679  12.401  1.00  0.00     0.050 C 
HETATM   30  C   UNL     1      43.761 -11.227  10.430  1.00  0.00     0.251 C 
HETATM   31  N   UNL     1      43.353 -11.486   9.145  1.00  0.00    -0.323 N 
HETATM   32  O   UNL     1      44.781 -11.741  10.884  1.00  0.00    -0.270 OA
HETATM   33  H   UNL     1      43.919 -12.126   8.604  1.00  0.00     0.169 HD
HETATM   34  C   UNL     1      41.826 -11.155   7.292  1.00  0.00     0.062 A 
ENDBRANCH   1  22
TORSDOF 7
ENDMDL
MODEL 7
REMARK VINA RESULT:      -8.6      3.332      9.986
REMARK  7 active torsions:
REMARK  status: ('A' for Active; 'I' for Inactive)
REMARK    1  A    between atoms: C_11  and  N_12 
REMARK       I    between atoms: N_12  and  C_13 
REMARK    2  A    between atoms: C_13  and  C_14 
REMARK    3  A    between atoms: C_14  and  S_15 
REMARK    4  A    between atoms: S_15  and  C_16 
REMARK    5  A    between atoms: N_17  and  C_18 
REMARK    6  A    between atoms: C_18  and  C_19 
REMARK    7  A    between atoms: C_25  and  C_26 
ROOT
HETATM    1  N   UNL     1      41.366 -14.494   0.062  1.00  0.00    -0.326 N 
HETATM    2  C   UNL     1      40.212 -14.573   0.821  1.00  0.00     0.231 C 
HETATM    3  O   UNL     1      39.146 -14.023   0.540  1.00  0.00    -0.272 OA
HETATM    4  H   UNL     1      42.124 -15.106   0.344  1.00  0.00     0.169 HD
ENDROOT
BRANCH   2   5
HETATM    5  C   UNL     1      40.308 -15.338   2.130  1.00  0.00     0.185 C 
BRANCH   5   6
HETATM    6  S   UNL     1      41.222 -16.912   2.050  1.00  0.00    -0.081 SA
BRANCH   6   7
HETATM    7  C   UNL     1      41.623 -17.077   3.734  1.00  0.00     0.192 A 
HETATM    8  N   UNL     1      42.730 -17.721   4.237  1.00  0.00    -0.307 N 
HETATM    9  C   UNL     1      42.551 -17.714   5.606  1.00  0.00     0.135 A 
HETATM   10  N   UNL     1      41.475 -17.006   5.888  1.00  0.00    -0.134 NA
HETATM   11  N   UNL     1      40.889 -16.619   4.718  1.00  0.00    -0.123 NA
BRANCH   8  12
HETATM   12  C   UNL     1      43.926 -18.062   3.490  1.00  0.00     0.171 C 
BRANCH  12  13
HETATM   13  C   UNL     1      44.119 -19.533   3.219  1.00  0.00    -0.040 A 
HETATM   14  C   UNL     1      44.716 -20.404   4.143  1.00  0.00     0.009 A 
HETATM   15  C   UNL     1      44.836 -21.768   3.860  1.00  0.00     0.001 A 
HETATM   16  C   UNL     1      44.346 -22.282   2.662  1.00  0.00     0.000 A 
HETATM   17  C   UNL     1      43.731 -21.436   1.744  1.00  0.00     0.001 A 
HETATM   18  C   UNL     1      43.611 -20.074   2.024  1.00  0.00     0.009 A 
ENDBRANCH  12  13
ENDBRANCH   8  12
BRANCH   9  19
HETATM   19  C   UNL     1      43.305 -18.355   6.766  1.00  0.00     0.057 A 
HETATM   20  C   UNL     1      44.706 -17.882   7.083  1.00  0.00     0.013 A 
HETATM   21  C   UNL     1      43.613 -17.683   8.077  1.00  0.00     0.013 A 
ENDBRANCH   9  19
ENDBRANCH   6   7
ENDBRANCH   5   6
ENDBRANCH   2   5
BRANCH   1  22
HETATM   22  C   UNL     1      41.558 -13.720  -1.107  1.00  0.00     0.037 A 
HETATM   23  C   UNL     1      41.417 -14.236  -2.401  1.00  0.00     0.032 A 
HETATM   24  C   UNL     1      41.600 -13.424  -3.524  1.00  0.00     0.041 A 
HETATM   25  C   UNL     1      41.910 -12.080  -3.365  1.00  0.00     0.096 A 
HETATM   26  O   UNL     1      42.113 -11.358  -4.508  1.00  0.00    -0.335 OA
HETATM   27  C   UNL     1      42.063 -11.553  -2.081  1.00  0.00     0.070 A 
HETATM   28  C   UNL     1      41.985  -9.951  -4.318  1.00  0.00     0.217 C 
HETATM   29  C   UNL     1      42.609  -9.268  -5.528  1.00  0.00     0.050 C 
HETATM   30  C   UNL     1      42.556  -9.378  -3.010  1.00  0.00     0.251 C 
HETATM   31  N   UNL     1      42.441 -10.216  -1.928  1.00  0.00    -0.323 N 
HETATM   32  O   UNL     1      42.986  -8.234  -2.878  1.00  0.00    -0.270 OA
HETATM   33  H   UNL     1      42.709  -9.843  -1.028  1.00  0.00     0.169 HD
HETATM   34  C   UNL     1      41.887 -12.366  -0.954  1.00  0.00     0.062 A 
ENDBRANCH   1  22
TORSDOF 7
ENDMDL
MODEL 8
REMARK VINA RESULT:      -8.6      0.958      3.284
REMARK  7 active torsions:
REMARK  status: ('A' for Active; 'I' for Inactive)
REMARK    1  A    between atoms: C_11  and  N_12 
REMARK       I    between atoms: N_12  and  C_13 
REMARK    2  A    between atoms: C_13  and  C_14 
REMARK    3  A    between atoms: C_14  and  S_15 
REMARK    4  A    between atoms: S_15  and  C_16 
REMARK    5  A    between atoms: N_17  and  C_18 
REMARK    6  A    between atoms: C_18  and  C_19 
REMARK    7  A    between atoms: C_25  and  C_26 
ROOT
HETATM    1  N   UNL     1      42.111 -15.481   2.585  1.00  0.00    -0.326 N 
HETATM    2  C   UNL     1      42.672 -14.229   2.762  1.00  0.00     0.231 C 
HETATM    3  O   UNL     1      43.842 -14.022   3.090  1.00  0.00    -0.272 OA
HETATM    4  H   UNL     1      41.179 -15.496   2.184  1.00  0.00     0.169 HD
ENDROOT
BRANCH   2   5
HETATM    5  C   UNL     1      41.742 -13.037   2.608  1.00  0.00     0.185 C 
BRANCH   5   6
HETATM    6  S   UNL     1      41.990 -12.043   1.102  1.00  0.00    -0.081 SA
BRANCH   6   7
HETATM    7  C   UNL     1      40.881 -12.871   0.048  1.00  0.00     0.192 A 
HETATM    8  N   UNL     1      41.039 -13.043  -1.308  1.00  0.00    -0.307 N 
HETATM    9  C   UNL     1      39.860 -13.627  -1.729  1.00  0.00     0.135 A 
HETATM   10  N   UNL     1      39.117 -13.888  -0.672  1.00  0.00    -0.134 NA
HETATM   11  N   UNL     1      39.749 -13.404   0.436  1.00  0.00    -0.123 NA
BRANCH   8  12
HETATM   12  C   UNL     1      42.281 -12.898  -2.044  1.00  0.00     0.171 C 
BRANCH  12  13
HETATM   13  C   UNL     1      42.363 -11.685  -2.936  1.00  0.00    -0.040 A 
HETATM   14  C   UNL     1      42.179 -11.750  -4.325  1.00  0.00     0.009 A 
HETATM   15  C   UNL     1      42.225 -10.590  -5.104  1.00  0.00     0.001 A 
HETATM   16  C   UNL     1      42.438  -9.350  -4.504  1.00  0.00     0.000 A 
HETATM   17  C   UNL     1      42.600  -9.265  -3.125  1.00  0.00     0.001 A 
HETATM   18  C   UNL     1      42.555 -10.423  -2.346  1.00  0.00     0.009 A 
ENDBRANCH  12  13
ENDBRANCH   8  12
BRANCH   9  19
HETATM   19  C   UNL     1      39.293 -13.972  -3.101  1.00  0.00     0.057 A 
HETATM   20  C   UNL     1      39.678 -15.284  -3.747  1.00  0.00     0.013 A 
HETATM   21  C   UNL     1      38.258 -15.032  -3.369  1.00  0.00     0.013 A 
ENDBRANCH   9  19
ENDBRANCH   6   7
ENDBRANCH   5   6
ENDBRANCH   2   5
BRANCH   1  22
HETATM   22  C   UNL     1      42.736 -16.729   2.820  1.00  0.00     0.037 A 
HETATM   23  C   UNL     1      43.416 -17.446   1.828  1.00  0.00     0.032 A 
HETATM   24  C   UNL     1      44.032 -18.667   2.117  1.00  0.00     0.041 A 
HETATM   25  C   UNL     1      43.989 -19.177   3.407  1.00  0.00     0.096 A 
HETATM   26  O   UNL     1      44.579 -20.395   3.605  1.00  0.00    -0.335 OA
HETATM   27  C   UNL     1      43.307 -18.478   4.405  1.00  0.00     0.070 A 
HETATM   28  C   UNL     1      44.895 -20.654   4.971  1.00  0.00     0.217 C 
HETATM   29  C   UNL     1      45.165 -22.148   5.101  1.00  0.00     0.050 C 
HETATM   30  C   UNL     1      43.866 -20.190   6.016  1.00  0.00     0.251 C 
HETATM   31  N   UNL     1      43.210 -19.030   5.685  1.00  0.00    -0.323 N 
HETATM   32  O   UNL     1      43.695 -20.722   7.110  1.00  0.00    -0.270 OA
HETATM   33  H   UNL     1      42.600 -18.632   6.387  1.00  0.00     0.169 HD
HETATM   34  C   UNL     1      42.683 -17.258   4.117  1.00  0.00     0.062 A 
ENDBRANCH   1  22
TORSDOF 7
ENDMDL
MODEL 9
REMARK VINA RESULT:      -8.5      7.003     10.491
REMARK  7 active torsions:
REMARK  status: ('A' for Active; 'I' for Inactive)
REMARK    1  A    between atoms: C_11  and  N_12 
REMARK       I    between atoms: N_12  and  C_13 
REMARK    2  A    between atoms: C_13  and  C_14 
REMARK    3  A    between atoms: C_14  and  S_15 
REMARK    4  A    between atoms: S_15  and  C_16 
REMARK    5  A    between atoms: N_17  and  C_18 
REMARK    6  A    between atoms: C_18  and  C_19 
REMARK    7  A    between atoms: C_25  and  C_26 
ROOT
HETATM    1  N   UNL     1      41.914 -13.991   6.305  1.00  0.00    -0.326 N 
HETATM    2  C   UNL     1      41.960 -12.825   5.562  1.00  0.00     0.231 C 
HETATM    3  O   UNL     1      42.628 -12.669   4.539  1.00  0.00    -0.272 OA
HETATM    4  H   UNL     1      41.218 -14.018   7.043  1.00  0.00     0.169 HD
ENDROOT
BRANCH   2   5
HETATM    5  C   UNL     1      41.181 -11.638   6.106  1.00  0.00     0.185 C 
BRANCH   5   6
HETATM    6  S   UNL     1      41.873 -10.872   7.606  1.00  0.00    -0.081 SA
BRANCH   6   7
HETATM    7  C   UNL     1      40.385 -10.444   8.399  1.00  0.00     0.192 A 
HETATM    8  N   UNL     1      40.260  -9.566   9.452  1.00  0.00    -0.307 N 
HETATM    9  C   UNL     1      38.934  -9.651   9.827  1.00  0.00     0.135 A 
HETATM   10  N   UNL     1      38.303 -10.433   8.973  1.00  0.00    -0.134 NA
HETATM   11  N   UNL     1      39.212 -10.937   8.089  1.00  0.00    -0.123 NA
BRANCH   8  12
HETATM   12  C   UNL     1      41.247  -8.584   9.861  1.00  0.00     0.171 C 
BRANCH  12  13
HETATM   13  C   UNL     1      41.971  -8.895  11.146  1.00  0.00    -0.040 A 
HETATM   14  C   UNL     1      42.211  -7.930  12.136  1.00  0.00     0.009 A 
HETATM   15  C   UNL     1      42.852  -8.278  13.329  1.00  0.00     0.001 A 
HETATM   16  C   UNL     1      43.246  -9.595  13.555  1.00  0.00     0.000 A 
HETATM   17  C   UNL     1      42.996 -10.569  12.594  1.00  0.00     0.001 A 
HETATM   18  C   UNL     1      42.357 -10.223  11.402  1.00  0.00     0.009 A 
ENDBRANCH  12  13
ENDBRANCH   8  12
BRANCH   9  19
HETATM   19  C   UNL     1      38.132  -9.069  10.986  1.00  0.00     0.057 A 
HETATM   20  C   UNL     1      38.622  -9.286  12.400  1.00  0.00     0.013 A 
HETATM   21  C   UNL     1      38.562  -7.906  11.839  1.00  0.00     0.013 A 
ENDBRANCH   9  19
ENDBRANCH   6   7
ENDBRANCH   5   6
ENDBRANCH   2   5
BRANCH   1  22
HETATM   22  C   UNL     1      42.667 -15.167   6.081  1.00  0.00     0.037 A 
HETATM   23  C   UNL     1      43.724 -15.572   6.905  1.00  0.00     0.032 A 
HETATM   24  C   UNL     1      44.425 -16.754   6.650  1.00  0.00     0.041 A 
HETATM   25  C   UNL     1      44.065 -17.554   5.575  1.00  0.00     0.096 A 
HETATM   26  O   UNL     1      44.821 -18.674   5.364  1.00  0.00    -0.335 OA
HETATM   27  C   UNL     1      43.020 -17.160   4.738  1.00  0.00     0.070 A 
HETATM   28  C   UNL     1      44.166 -19.656   4.565  1.00  0.00     0.217 C 
HETATM   29  C   UNL     1      45.228 -20.639   4.088  1.00  0.00     0.050 C 
HETATM   30  C   UNL     1      43.329 -19.137   3.384  1.00  0.00     0.251 C 
HETATM   31  N   UNL     1      42.706 -17.936   3.618  1.00  0.00    -0.323 N 
HETATM   32  O   UNL     1      43.121 -19.764   2.348  1.00  0.00    -0.270 OA
HETATM   33  H   UNL     1      42.064 -17.606   2.910  1.00  0.00     0.169 HD
HETATM   34  C   UNL     1      42.320 -15.973   4.987  1.00  0.00     0.062 A 
ENDBRANCH   1  22
TORSDOF 7
ENDMDL
MODEL 10
REMARK VINA RESULT:      -8.4      4.059      8.641
REMARK  7 active torsions:
REMARK  status: ('A' for Active; 'I' for Inactive)
REMARK    1  A    between atoms: C_11  and  N_12 
REMARK       I    between atoms: N_12  and  C_13 
REMARK    2  A    between atoms: C_13  and  C_14 
REMARK    3  A    between atoms: C_14  and  S_15 
REMARK    4  A    between atoms: S_15  and  C_16 
REMARK    5  A    between atoms: N_17  and  C_18 
REMARK    6  A    between atoms: C_18  and  C_19 
REMARK    7  A    between atoms: C_25  and  C_26 
ROOT
HETATM    1  N   UNL     1      40.816 -12.515   2.361  1.00  0.00    -0.326 N 
HETATM    2  C   UNL     1      40.318 -13.677   1.799  1.00  0.00     0.231 C 
HETATM    3  O   UNL     1      39.318 -14.277   2.195  1.00  0.00    -0.272 OA
HETATM    4  H   UNL     1      41.565 -12.061   1.848  1.00  0.00     0.169 HD
ENDROOT
BRANCH   2   5
HETATM    5  C   UNL     1      41.121 -14.282   0.660  1.00  0.00     0.185 C 
BRANCH   5   6
HETATM    6  S   UNL     1      42.043 -15.797   1.073  1.00  0.00    -0.081 SA
BRANCH   6   7
HETATM    7  C   UNL     1      42.741 -15.284   2.581  1.00  0.00     0.192 A 
HETATM    8  N   UNL     1      42.512 -15.860   3.810  1.00  0.00    -0.307 N 
HETATM    9  C   UNL     1      43.161 -15.040   4.711  1.00  0.00     0.135 A 
HETATM   10  N   UNL     1      43.825 -14.118   4.041  1.00  0.00    -0.134 NA
HETATM   11  N   UNL     1      43.552 -14.264   2.712  1.00  0.00    -0.123 NA
BRANCH   8  12
HETATM   12  C   UNL     1      41.955 -17.180   4.038  1.00  0.00     0.171 C 
BRANCH  12  13
HETATM   13  C   UNL     1      42.897 -18.329   3.785  1.00  0.00    -0.040 A 
HETATM   14  C   UNL     1      42.981 -18.985   2.547  1.00  0.00     0.009 A 
HETATM   15  C   UNL     1      43.900 -20.020   2.351  1.00  0.00     0.001 A 
HETATM   16  C   UNL     1      44.758 -20.401   3.380  1.00  0.00     0.000 A 
HETATM   17  C   UNL     1      44.704 -19.746   4.606  1.00  0.00     0.001 A 
HETATM   18  C   UNL     1      43.786 -18.713   4.804  1.00  0.00     0.009 A 
ENDBRANCH  12  13
ENDBRANCH   8  12
BRANCH   9  19
HETATM   19  C   UNL     1      43.220 -14.994   6.233  1.00  0.00     0.057 A 
HETATM   20  C   UNL     1      44.228 -15.860   6.956  1.00  0.00     0.013 A 
HETATM   21  C   UNL     1      44.331 -14.375   7.040  1.00  0.00     0.013 A 
ENDBRANCH   9  19
ENDBRANCH   6   7
ENDBRANCH   5   6
ENDBRANCH   2   5
BRANCH   1  22
HETATM   22  C   UNL     1      40.329 -11.857   3.515  1.00  0.00     0.037 A 
HETATM   23  C   UNL     1      39.132 -11.131   3.539  1.00  0.00     0.032 A 
HETATM   24  C   UNL     1      38.686 -10.514   4.711  1.00  0.00     0.041 A 
HETATM   25  C   UNL     1      39.426 -10.631   5.880  1.00  0.00     0.096 A 
HETATM   26  O   UNL     1      38.948  -9.968   6.977  1.00  0.00    -0.335 OA
HETATM   27  C   UNL     1      40.626 -11.344   5.870  1.00  0.00     0.070 A 
HETATM   28  C   UNL     1      39.467 -10.465   8.207  1.00  0.00     0.217 C 
HETATM   29  C   UNL     1      39.181  -9.420   9.279  1.00  0.00     0.050 C 
HETATM   30  C   UNL     1      40.952 -10.868   8.217  1.00  0.00     0.251 C 
HETATM   31  N   UNL     1      41.400 -11.401   7.033  1.00  0.00    -0.323 N 
HETATM   32  O   UNL     1      41.677 -10.832   9.208  1.00  0.00    -0.270 OA
HETATM   33  H   UNL     1      42.339 -11.774   7.025  1.00  0.00     0.169 HD
HETATM   34  C   UNL     1      41.079 -11.957   4.696  1.00  0.00     0.062 A 
ENDBRANCH   1  22
TORSDOF 7
ENDMDL
