MODEL 1
REMARK VINA RESULT:      -9.1      0.000      0.000
REMARK  5 active torsions:
REMARK  status: ('A' for Active; 'I' for Inactive)
REMARK    1  A    between atoms: C_8  and  C_9 
REMARK    2  A    between atoms: C_9  and  N_10 
REMARK       I    between atoms: N_10  and  C_11 
REMARK       I    between atoms: C_11  and  N_12 
REMARK    3  A    between atoms: N_12  and  C_13 
REMARK    4  A    between atoms: C_15  and  N_16 
REMARK       I    between atoms: N_16  and  C_17 
REMARK    5  A    between atoms: C_17  and  C_18 
ROOT
HETATM    1  C   UNL     1      40.587 -15.375   2.935  1.00  0.00     0.038 A 
HETATM    2  C   UNL     1      41.476 -16.404   2.631  1.00  0.00     0.059 A 
HETATM    3  C   UNL     1      42.770 -16.438   3.161  1.00  0.00     0.036 A 
HETATM    4  C   UNL     1      43.225 -15.370   3.928  1.00  0.00     0.029 A 
HETATM    5  C   UNL     1      42.359 -14.314   4.219  1.00  0.00     0.004 A 
HETATM    6  C   UNL     1      41.046 -14.322   3.733  1.00  0.00     0.029 A 
ENDROOT
BRANCH   1   7
HETATM    7  N   UNL     1      39.273 -15.294   2.429  1.00  0.00    -0.309 N 
HETATM    8  C   UNL     1      38.774 -14.814   1.254  1.00  0.00     0.320 C 
HETATM    9  N   UNL     1      39.623 -14.698   0.206  1.00  0.00    -0.338 N 
HETATM   10  O   UNL     1      37.585 -14.512   1.192  1.00  0.00    -0.247 OA
HETATM   11  H   UNL     1      40.437 -15.295   0.180  1.00  0.00     0.164 HD
HETATM   12  H   UNL     1      38.528 -15.504   3.082  1.00  0.00     0.170 HD
BRANCH   9  13
HETATM   13  C   UNL     1      39.321 -13.943  -0.986  1.00  0.00     0.167 C 
BRANCH  13  14
HETATM   14  C   UNL     1      40.448 -14.137  -1.948  1.00  0.00     0.009 A 
HETATM   15  C   UNL     1      41.681 -13.503  -1.953  1.00  0.00     0.034 A 
HETATM   16  C   UNL     1      42.273 -12.489  -1.050  1.00  0.00     0.070 C 
HETATM   17  N   UNL     1      42.365 -14.016  -3.017  1.00  0.00    -0.282 N 
HETATM   18  H   UNL     1      43.302 -13.782  -3.329  1.00  0.00     0.189 HD
HETATM   19  N   UNL     1      41.682 -14.938  -3.706  1.00  0.00    -0.179 NA
HETATM   20  C   UNL     1      40.510 -15.021  -3.065  1.00  0.00     0.060 A 
HETATM   21  C   UNL     1      39.470 -15.964  -3.546  1.00  0.00     0.073 C 
ENDBRANCH  13  14
ENDBRANCH   9  13
ENDBRANCH   1   7
BRANCH   3  22
HETATM   22  N   UNL     1      43.632 -17.514   2.867  1.00  0.00    -0.327 N 
HETATM   23  C   UNL     1      43.773 -18.621   3.692  1.00  0.00     0.226 C 
HETATM   24  O   UNL     1      43.396 -18.662   4.863  1.00  0.00    -0.273 OA
HETATM   25  H   UNL     1      44.337 -17.362   2.158  1.00  0.00     0.169 HD
BRANCH  23  26
HETATM   26  C   UNL     1      44.343 -19.860   3.016  1.00  0.00     0.078 C 
HETATM   27  C   UNL     1      44.523 -21.115   3.859  1.00  0.00     0.014 C 
HETATM   28  C   UNL     1      44.743 -22.193   2.810  1.00  0.00     0.001 C 
HETATM   29  C   UNL     1      43.821 -21.813   1.656  1.00  0.00     0.001 C 
HETATM   30  C   UNL     1      43.444 -20.348   1.878  1.00  0.00     0.014 C 
ENDBRANCH  23  26
ENDBRANCH   3  22
TORSDOF 5
ENDMDL
MODEL 2
REMARK VINA RESULT:      -8.9      0.415      1.630
REMARK  5 active torsions:
REMARK  status: ('A' for Active; 'I' for Inactive)
REMARK    1  A    between atoms: C_8  and  C_9 
REMARK    2  A    between atoms: C_9  and  N_10 
REMARK       I    between atoms: N_10  and  C_11 
REMARK       I    between atoms: C_11  and  N_12 
REMARK    3  A    between atoms: N_12  and  C_13 
REMARK    4  A    between atoms: C_15  and  N_16 
REMARK       I    between atoms: N_16  and  C_17 
REMARK    5  A    between atoms: C_17  and  C_18 
ROOT
HETATM    1  C   UNL     1      40.620 -15.485   3.011  1.00  0.00     0.038 A 
HETATM    2  C   UNL     1      41.525 -16.499   2.707  1.00  0.00     0.059 A 
HETATM    3  C   UNL     1      42.792 -16.555   3.296  1.00  0.00     0.036 A 
HETATM    4  C   UNL     1      43.207 -15.520   4.129  1.00  0.00     0.029 A 
HETATM    5  C   UNL     1      42.325 -14.479   4.423  1.00  0.00     0.004 A 
HETATM    6  C   UNL     1      41.037 -14.466   3.874  1.00  0.00     0.029 A 
ENDROOT
BRANCH   1   7
HETATM    7  N   UNL     1      39.331 -15.383   2.447  1.00  0.00    -0.309 N 
HETATM    8  C   UNL     1      38.882 -14.816   1.290  1.00  0.00     0.320 C 
HETATM    9  N   UNL     1      39.779 -14.602   0.300  1.00  0.00    -0.338 N 
HETATM   10  O   UNL     1      37.692 -14.528   1.192  1.00  0.00    -0.247 OA
HETATM   11  H   UNL     1      40.606 -15.182   0.268  1.00  0.00     0.164 HD
HETATM   12  H   UNL     1      38.559 -15.656   3.042  1.00  0.00     0.170 HD
BRANCH   9  13
HETATM   13  C   UNL     1      39.523 -13.757  -0.841  1.00  0.00     0.167 C 
BRANCH  13  14
HETATM   14  C   UNL     1      40.736 -13.786  -1.713  1.00  0.00     0.009 A 
HETATM   15  C   UNL     1      41.044 -14.695  -2.713  1.00  0.00     0.034 A 
HETATM   16  C   UNL     1      40.310 -15.870  -3.239  1.00  0.00     0.070 C 
HETATM   17  N   UNL     1      42.249 -14.303  -3.223  1.00  0.00    -0.282 N 
HETATM   18  H   UNL     1      42.782 -14.737  -3.968  1.00  0.00     0.189 HD
HETATM   19  N   UNL     1      42.751 -13.208  -2.640  1.00  0.00    -0.179 NA
HETATM   20  C   UNL     1      41.839 -12.883  -1.716  1.00  0.00     0.060 A 
HETATM   21  C   UNL     1      42.052 -11.692  -0.856  1.00  0.00     0.073 C 
ENDBRANCH  13  14
ENDBRANCH   9  13
ENDBRANCH   1   7
BRANCH   3  22
HETATM   22  N   UNL     1      43.670 -17.617   2.998  1.00  0.00    -0.327 N 
HETATM   23  C   UNL     1      43.756 -18.769   3.766  1.00  0.00     0.226 C 
HETATM   24  O   UNL     1      43.302 -18.875   4.906  1.00  0.00    -0.273 OA
HETATM   25  H   UNL     1      44.419 -17.429   2.346  1.00  0.00     0.169 HD
BRANCH  23  26
HETATM   26  C   UNL     1      44.366 -19.971   3.059  1.00  0.00     0.078 C 
HETATM   27  C   UNL     1      44.546 -21.255   3.858  1.00  0.00     0.014 C 
HETATM   28  C   UNL     1      44.814 -22.287   2.775  1.00  0.00     0.001 C 
HETATM   29  C   UNL     1      43.918 -21.877   1.610  1.00  0.00     0.001 C 
HETATM   30  C   UNL     1      43.509 -20.429   1.877  1.00  0.00     0.014 C 
ENDBRANCH  23  26
ENDBRANCH   3  22
TORSDOF 5
ENDMDL
MODEL 3
REMARK VINA RESULT:      -8.4      0.879      1.722
REMARK  5 active torsions:
REMARK  status: ('A' for Active; 'I' for Inactive)
REMARK    1  A    between atoms: C_8  and  C_9 
REMARK    2  A    between atoms: C_9  and  N_10 
REMARK       I    between atoms: N_10  and  C_11 
REMARK       I    between atoms: C_11  and  N_12 
REMARK    3  A    between atoms: N_12  and  C_13 
REMARK    4  A    between atoms: C_15  and  N_16 
REMARK       I    between atoms: N_16  and  C_17 
REMARK    5  A    between atoms: C_17  and  C_18 
ROOT
HETATM    1  C   UNL     1      40.139 -15.160   2.932  1.00  0.00     0.038 A 
HETATM    2  C   UNL     1      41.111 -16.117   2.650  1.00  0.00     0.059 A 
HETATM    3  C   UNL     1      42.339 -16.137   3.320  1.00  0.00     0.036 A 
HETATM    4  C   UNL     1      42.646 -15.121   4.220  1.00  0.00     0.029 A 
HETATM    5  C   UNL     1      41.696 -14.136   4.494  1.00  0.00     0.004 A 
HETATM    6  C   UNL     1      40.448 -14.160   3.861  1.00  0.00     0.029 A 
ENDROOT
BRANCH   1   7
HETATM    7  N   UNL     1      38.887 -15.095   2.287  1.00  0.00    -0.309 N 
HETATM    8  C   UNL     1      38.475 -14.462   1.150  1.00  0.00     0.320 C 
HETATM    9  N   UNL     1      39.419 -14.106   0.247  1.00  0.00    -0.338 N 
HETATM   10  O   UNL     1      37.277 -14.246   0.990  1.00  0.00    -0.247 OA
HETATM   11  H   UNL     1      40.285 -14.626   0.228  1.00  0.00     0.164 HD
HETATM   12  H   UNL     1      38.098 -15.468   2.800  1.00  0.00     0.170 HD
BRANCH   9  13
HETATM   13  C   UNL     1      39.179 -13.185  -0.838  1.00  0.00     0.167 C 
BRANCH  13  14
HETATM   14  C   UNL     1      39.662 -13.828  -2.097  1.00  0.00     0.009 A 
HETATM   15  C   UNL     1      38.917 -14.524  -3.037  1.00  0.00     0.034 A 
HETATM   16  C   UNL     1      37.471 -14.835  -3.117  1.00  0.00     0.070 C 
HETATM   17  N   UNL     1      39.798 -14.912  -4.005  1.00  0.00    -0.282 N 
HETATM   18  H   UNL     1      39.606 -15.444  -4.847  1.00  0.00     0.189 HD
HETATM   19  N   UNL     1      41.058 -14.523  -3.777  1.00  0.00    -0.179 NA
HETATM   20  C   UNL     1      40.990 -13.861  -2.615  1.00  0.00     0.060 A 
HETATM   21  C   UNL     1      42.217 -13.266  -2.032  1.00  0.00     0.073 C 
ENDBRANCH  13  14
ENDBRANCH   9  13
ENDBRANCH   1   7
BRANCH   3  22
HETATM   22  N   UNL     1      43.286 -17.143   3.040  1.00  0.00    -0.327 N 
HETATM   23  C   UNL     1      43.310 -18.367   3.694  1.00  0.00     0.226 C 
HETATM   24  O   UNL     1      42.712 -18.601   4.744  1.00  0.00    -0.273 OA
HETATM   25  H   UNL     1      44.109 -16.872   2.519  1.00  0.00     0.169 HD
BRANCH  23  26
HETATM   26  C   UNL     1      44.052 -19.475   2.960  1.00  0.00     0.078 C 
HETATM   27  C   UNL     1      44.597 -20.636   3.782  1.00  0.00     0.014 C 
HETATM   28  C   UNL     1      44.922 -21.673   2.719  1.00  0.00     0.001 C 
HETATM   29  C   UNL     1      43.812 -21.535   1.681  1.00  0.00     0.001 C 
HETATM   30  C   UNL     1      43.155 -20.179   1.940  1.00  0.00     0.014 C 
ENDBRANCH  23  26
ENDBRANCH   3  22
TORSDOF 5
ENDMDL
MODEL 4
REMARK VINA RESULT:      -8.2      1.896      2.444
REMARK  5 active torsions:
REMARK  status: ('A' for Active; 'I' for Inactive)
REMARK    1  A    between atoms: C_8  and  C_9 
REMARK    2  A    between atoms: C_9  and  N_10 
REMARK       I    between atoms: N_10  and  C_11 
REMARK       I    between atoms: C_11  and  N_12 
REMARK    3  A    between atoms: N_12  and  C_13 
REMARK    4  A    between atoms: C_15  and  N_16 
REMARK       I    between atoms: N_16  and  C_17 
REMARK    5  A    between atoms: C_17  and  C_18 
ROOT
HETATM    1  C   UNL     1      39.835 -15.513   2.382  1.00  0.00     0.038 A 
HETATM    2  C   UNL     1      40.547 -16.703   2.247  1.00  0.00     0.059 A 
HETATM    3  C   UNL     1      41.600 -17.032   3.107  1.00  0.00     0.036 A 
HETATM    4  C   UNL     1      42.020 -16.109   4.061  1.00  0.00     0.029 A 
HETATM    5  C   UNL     1      41.338 -14.898   4.192  1.00  0.00     0.004 A 
HETATM    6  C   UNL     1      40.247 -14.606   3.364  1.00  0.00     0.029 A 
ENDROOT
BRANCH   1   7
HETATM    7  N   UNL     1      38.766 -15.135   1.543  1.00  0.00    -0.309 N 
HETATM    8  C   UNL     1      38.700 -14.298   0.468  1.00  0.00     0.320 C 
HETATM    9  N   UNL     1      39.852 -14.011  -0.182  1.00  0.00    -0.338 N 
HETATM   10  O   UNL     1      37.609 -13.843   0.135  1.00  0.00    -0.247 OA
HETATM   11  H   UNL     1      40.610 -14.676  -0.130  1.00  0.00     0.164 HD
HETATM   12  H   UNL     1      37.841 -15.417   1.841  1.00  0.00     0.170 HD
BRANCH   9  13
HETATM   13  C   UNL     1      39.986 -12.931  -1.130  1.00  0.00     0.167 C 
BRANCH  13  14
HETATM   14  C   UNL     1      41.146 -12.091  -0.705  1.00  0.00     0.009 A 
HETATM   15  C   UNL     1      41.227 -11.245   0.391  1.00  0.00     0.034 A 
HETATM   16  C   UNL     1      40.256 -10.919   1.460  1.00  0.00     0.070 C 
HETATM   17  N   UNL     1      42.482 -10.706   0.359  1.00  0.00    -0.282 N 
HETATM   18  H   UNL     1      42.891 -10.041   1.006  1.00  0.00     0.189 HD
HETATM   19  N   UNL     1      43.229 -11.133  -0.665  1.00  0.00    -0.179 NA
HETATM   20  C   UNL     1      42.425 -11.978  -1.324  1.00  0.00     0.060 A 
HETATM   21  C   UNL     1      42.919 -12.668  -2.541  1.00  0.00     0.073 C 
ENDBRANCH  13  14
ENDBRANCH   9  13
ENDBRANCH   1   7
BRANCH   3  22
HETATM   22  N   UNL     1      42.275 -18.262   2.970  1.00  0.00    -0.327 N 
HETATM   23  C   UNL     1      43.399 -18.425   2.173  1.00  0.00     0.226 C 
HETATM   24  O   UNL     1      43.757 -17.624   1.309  1.00  0.00    -0.273 OA
HETATM   25  H   UNL     1      41.788 -19.094   3.273  1.00  0.00     0.169 HD
BRANCH  23  26
HETATM   26  C   UNL     1      44.257 -19.637   2.510  1.00  0.00     0.078 C 
HETATM   27  C   UNL     1      44.347 -20.063   3.970  1.00  0.00     0.014 C 
HETATM   28  C   UNL     1      44.948 -21.457   3.873  1.00  0.00     0.001 C 
HETATM   29  C   UNL     1      44.324 -22.070   2.624  1.00  0.00     0.001 C 
HETATM   30  C   UNL     1      43.744 -20.904   1.822  1.00  0.00     0.014 C 
ENDBRANCH  23  26
ENDBRANCH   3  22
TORSDOF 5
ENDMDL
MODEL 5
REMARK VINA RESULT:      -8.1      5.240      8.702
REMARK  5 active torsions:
REMARK  status: ('A' for Active; 'I' for Inactive)
REMARK    1  A    between atoms: C_8  and  C_9 
REMARK    2  A    between atoms: C_9  and  N_10 
REMARK       I    between atoms: N_10  and  C_11 
REMARK       I    between atoms: C_11  and  N_12 
REMARK    3  A    between atoms: N_12  and  C_13 
REMARK    4  A    between atoms: C_15  and  N_16 
REMARK       I    between atoms: N_16  and  C_17 
REMARK    5  A    between atoms: C_17  and  C_18 
ROOT
HETATM    1  C   UNL     1      43.909 -14.208   6.451  1.00  0.00     0.038 A 
HETATM    2  C   UNL     1      43.718 -15.493   5.948  1.00  0.00     0.059 A 
HETATM    3  C   UNL     1      42.616 -15.813   5.147  1.00  0.00     0.036 A 
HETATM    4  C   UNL     1      41.629 -14.857   4.926  1.00  0.00     0.029 A 
HETATM    5  C   UNL     1      41.788 -13.572   5.447  1.00  0.00     0.004 A 
HETATM    6  C   UNL     1      42.924 -13.247   6.196  1.00  0.00     0.029 A 
ENDROOT
BRANCH   1   7
HETATM    7  N   UNL     1      45.001 -13.834   7.261  1.00  0.00    -0.309 N 
HETATM    8  C   UNL     1      45.152 -12.851   8.195  1.00  0.00     0.320 C 
HETATM    9  N   UNL     1      44.034 -12.327   8.749  1.00  0.00    -0.338 N 
HETATM   10  O   UNL     1      46.285 -12.485   8.495  1.00  0.00    -0.247 OA
HETATM   11  H   UNL     1      43.199 -12.896   8.772  1.00  0.00     0.164 HD
HETATM   12  H   UNL     1      45.889 -14.270   7.045  1.00  0.00     0.170 HD
BRANCH   9  13
HETATM   13  C   UNL     1      44.019 -11.102   9.512  1.00  0.00     0.167 C 
BRANCH  13  14
HETATM   14  C   UNL     1      42.637 -10.916  10.050  1.00  0.00     0.009 A 
HETATM   15  C   UNL     1      41.492 -10.568   9.352  1.00  0.00     0.034 A 
HETATM   16  C   UNL     1      41.256 -10.293   7.916  1.00  0.00     0.070 C 
HETATM   17  N   UNL     1      40.485 -10.527  10.274  1.00  0.00    -0.282 N 
HETATM   18  H   UNL     1      39.508 -10.304  10.121  1.00  0.00     0.189 HD
HETATM   19  N   UNL     1      40.879 -10.825  11.518  1.00  0.00    -0.179 NA
HETATM   20  C   UNL     1      42.190 -11.064  11.396  1.00  0.00     0.060 A 
HETATM   21  C   UNL     1      42.986 -11.439  12.591  1.00  0.00     0.073 C 
ENDBRANCH  13  14
ENDBRANCH   9  13
ENDBRANCH   1   7
BRANCH   3  22
HETATM   22  N   UNL     1      42.472 -17.112   4.620  1.00  0.00    -0.327 N 
HETATM   23  C   UNL     1      43.027 -17.507   3.411  1.00  0.00     0.226 C 
HETATM   24  O   UNL     1      43.452 -16.728   2.559  1.00  0.00    -0.273 OA
HETATM   25  H   UNL     1      41.750 -17.696   5.019  1.00  0.00     0.169 HD
BRANCH  23  26
HETATM   26  C   UNL     1      43.187 -19.011   3.237  1.00  0.00     0.078 C 
HETATM   27  C   UNL     1      43.515 -19.538   1.846  1.00  0.00     0.014 C 
HETATM   28  C   UNL     1      43.951 -20.967   2.125  1.00  0.00     0.001 C 
HETATM   29  C   UNL     1      44.718 -20.895   3.441  1.00  0.00     0.001 C 
HETATM   30  C   UNL     1      44.338 -19.561   4.082  1.00  0.00     0.014 C 
ENDBRANCH  23  26
ENDBRANCH   3  22
TORSDOF 5
ENDMDL
MODEL 6
REMARK VINA RESULT:      -8.0      2.736      8.679
REMARK  5 active torsions:
REMARK  status: ('A' for Active; 'I' for Inactive)
REMARK    1  A    between atoms: C_8  and  C_9 
REMARK    2  A    between atoms: C_9  and  N_10 
REMARK       I    between atoms: N_10  and  C_11 
REMARK       I    between atoms: C_11  and  N_12 
REMARK    3  A    between atoms: N_12  and  C_13 
REMARK    4  A    between atoms: C_15  and  N_16 
REMARK       I    between atoms: N_16  and  C_17 
REMARK    5  A    between atoms: C_17  and  C_18 
ROOT
HETATM    1  C   UNL     1      41.708 -17.494   1.589  1.00  0.00     0.038 A 
HETATM    2  C   UNL     1      42.041 -16.762   0.451  1.00  0.00     0.059 A 
HETATM    3  C   UNL     1      41.412 -15.550   0.147  1.00  0.00     0.036 A 
HETATM    4  C   UNL     1      40.357 -15.106   0.939  1.00  0.00     0.029 A 
HETATM    5  C   UNL     1      39.989 -15.841   2.067  1.00  0.00     0.004 A 
HETATM    6  C   UNL     1      40.665 -17.022   2.395  1.00  0.00     0.029 A 
ENDROOT
BRANCH   1   7
HETATM    7  N   UNL     1      42.310 -18.719   1.942  1.00  0.00    -0.309 N 
HETATM    8  C   UNL     1      43.263 -19.037   2.865  1.00  0.00     0.320 C 
HETATM    9  N   UNL     1      43.471 -18.170   3.884  1.00  0.00    -0.338 N 
HETATM   10  O   UNL     1      43.887 -20.087   2.738  1.00  0.00    -0.247 OA
HETATM   11  H   UNL     1      42.713 -17.562   4.158  1.00  0.00     0.164 HD
HETATM   12  H   UNL     1      42.116 -19.505   1.334  1.00  0.00     0.170 HD
BRANCH   9  13
HETATM   13  C   UNL     1      44.624 -18.219   4.751  1.00  0.00     0.167 C 
BRANCH  13  14
HETATM   14  C   UNL     1      44.136 -18.181   6.163  1.00  0.00     0.009 A 
HETATM   15  C   UNL     1      43.795 -19.252   6.974  1.00  0.00     0.034 A 
HETATM   16  C   UNL     1      43.814 -20.715   6.739  1.00  0.00     0.070 C 
HETATM   17  N   UNL     1      43.414 -18.714   8.170  1.00  0.00    -0.282 N 
HETATM   18  H   UNL     1      43.098 -19.202   9.001  1.00  0.00     0.189 HD
HETATM   19  N   UNL     1      43.482 -17.378   8.208  1.00  0.00    -0.179 NA
HETATM   20  C   UNL     1      43.919 -17.040   6.989  1.00  0.00     0.060 A 
HETATM   21  C   UNL     1      44.127 -15.610   6.650  1.00  0.00     0.073 C 
ENDBRANCH  13  14
ENDBRANCH   9  13
ENDBRANCH   1   7
BRANCH   3  22
HETATM   22  N   UNL     1      41.799 -14.813  -0.991  1.00  0.00    -0.327 N 
HETATM   23  C   UNL     1      41.258 -15.023  -2.252  1.00  0.00     0.226 C 
HETATM   24  O   UNL     1      40.612 -16.022  -2.569  1.00  0.00    -0.273 OA
HETATM   25  H   UNL     1      42.658 -14.284  -0.930  1.00  0.00     0.169 HD
BRANCH  23  26
HETATM   26  C   UNL     1      41.418 -13.862  -3.223  1.00  0.00     0.078 C 
HETATM   27  C   UNL     1      40.264 -12.877  -3.355  1.00  0.00     0.014 C 
HETATM   28  C   UNL     1      40.905 -11.709  -4.088  1.00  0.00     0.001 C 
HETATM   29  C   UNL     1      42.320 -11.619  -3.526  1.00  0.00     0.001 C 
HETATM   30  C   UNL     1      42.589 -12.957  -2.836  1.00  0.00     0.014 C 
ENDBRANCH  23  26
ENDBRANCH   3  22
TORSDOF 5
ENDMDL
MODEL 7
REMARK VINA RESULT:      -7.9      2.207      3.135
REMARK  5 active torsions:
REMARK  status: ('A' for Active; 'I' for Inactive)
REMARK    1  A    between atoms: C_8  and  C_9 
REMARK    2  A    between atoms: C_9  and  N_10 
REMARK       I    between atoms: N_10  and  C_11 
REMARK       I    between atoms: C_11  and  N_12 
REMARK    3  A    between atoms: N_12  and  C_13 
REMARK    4  A    between atoms: C_15  and  N_16 
REMARK       I    between atoms: N_16  and  C_17 
REMARK    5  A    between atoms: C_17  and  C_18 
ROOT
HETATM    1  C   UNL     1      43.011 -14.110   5.122  1.00  0.00     0.038 A 
HETATM    2  C   UNL     1      42.779 -15.381   4.600  1.00  0.00     0.059 A 
HETATM    3  C   UNL     1      43.313 -16.528   5.194  1.00  0.00     0.036 A 
HETATM    4  C   UNL     1      44.181 -16.401   6.274  1.00  0.00     0.029 A 
HETATM    5  C   UNL     1      44.450 -15.133   6.794  1.00  0.00     0.004 A 
HETATM    6  C   UNL     1      43.862 -13.997   6.227  1.00  0.00     0.029 A 
ENDROOT
BRANCH   1   7
HETATM    7  N   UNL     1      42.496 -12.922   4.562  1.00  0.00    -0.309 N 
HETATM    8  C   UNL     1      41.556 -12.698   3.599  1.00  0.00     0.320 C 
HETATM    9  N   UNL     1      40.679 -13.691   3.327  1.00  0.00    -0.338 N 
HETATM   10  O   UNL     1      41.543 -11.613   3.023  1.00  0.00    -0.247 OA
HETATM   11  H   UNL     1      40.480 -14.367   4.052  1.00  0.00     0.164 HD
HETATM   12  H   UNL     1      42.980 -12.066   4.805  1.00  0.00     0.170 HD
BRANCH   9  13
HETATM   13  C   UNL     1      39.837 -13.716   2.155  1.00  0.00     0.167 C 
BRANCH  13  14
HETATM   14  C   UNL     1      40.582 -14.427   1.073  1.00  0.00     0.009 A 
HETATM   15  C   UNL     1      41.196 -13.876  -0.042  1.00  0.00     0.034 A 
HETATM   16  C   UNL     1      41.330 -12.475  -0.504  1.00  0.00     0.070 C 
HETATM   17  N   UNL     1      41.744 -14.922  -0.727  1.00  0.00    -0.282 N 
HETATM   18  H   UNL     1      42.269 -14.893  -1.595  1.00  0.00     0.189 HD
HETATM   19  N   UNL     1      41.543 -16.112  -0.149  1.00  0.00    -0.179 NA
HETATM   20  C   UNL     1      40.834 -15.825   0.949  1.00  0.00     0.060 A 
HETATM   21  C   UNL     1      40.418 -16.916   1.866  1.00  0.00     0.073 C 
ENDBRANCH  13  14
ENDBRANCH   9  13
ENDBRANCH   1   7
BRANCH   3  22
HETATM   22  N   UNL     1      43.027 -17.803   4.666  1.00  0.00    -0.327 N 
HETATM   23  C   UNL     1      43.554 -18.263   3.467  1.00  0.00     0.226 C 
HETATM   24  O   UNL     1      44.082 -17.541   2.621  1.00  0.00    -0.273 OA
HETATM   25  H   UNL     1      42.235 -18.298   5.053  1.00  0.00     0.169 HD
BRANCH  23  26
HETATM   26  C   UNL     1      43.541 -19.776   3.296  1.00  0.00     0.078 C 
HETATM   27  C   UNL     1      43.660 -20.337   1.885  1.00  0.00     0.014 C 
HETATM   28  C   UNL     1      43.977 -21.803   2.134  1.00  0.00     0.001 C 
HETATM   29  C   UNL     1      44.886 -21.807   3.359  1.00  0.00     0.001 C 
HETATM   30  C   UNL     1      44.715 -20.439   4.020  1.00  0.00     0.014 C 
ENDBRANCH  23  26
ENDBRANCH   3  22
TORSDOF 5
ENDMDL
MODEL 8
REMARK VINA RESULT:      -7.9      2.262      2.971
REMARK  5 active torsions:
REMARK  status: ('A' for Active; 'I' for Inactive)
REMARK    1  A    between atoms: C_8  and  C_9 
REMARK    2  A    between atoms: C_9  and  N_10 
REMARK       I    between atoms: N_10  and  C_11 
REMARK       I    between atoms: C_11  and  N_12 
REMARK    3  A    between atoms: N_12  and  C_13 
REMARK    4  A    between atoms: C_15  and  N_16 
REMARK       I    between atoms: N_16  and  C_17 
REMARK    5  A    between atoms: C_17  and  C_18 
ROOT
HETATM    1  C   UNL     1      41.809 -13.404   2.402  1.00  0.00     0.038 A 
HETATM    2  C   UNL     1      42.467 -14.619   2.579  1.00  0.00     0.059 A 
HETATM    3  C   UNL     1      41.920 -15.647   3.354  1.00  0.00     0.036 A 
HETATM    4  C   UNL     1      40.737 -15.423   4.053  1.00  0.00     0.029 A 
HETATM    5  C   UNL     1      40.077 -14.201   3.913  1.00  0.00     0.004 A 
HETATM    6  C   UNL     1      40.605 -13.202   3.086  1.00  0.00     0.029 A 
ENDROOT
BRANCH   1   7
HETATM    7  N   UNL     1      42.316 -12.338   1.631  1.00  0.00    -0.309 N 
HETATM    8  C   UNL     1      42.141 -11.992   0.323  1.00  0.00     0.320 C 
HETATM    9  N   UNL     1      41.059 -12.485  -0.323  1.00  0.00    -0.338 N 
HETATM   10  O   UNL     1      42.963 -11.251  -0.211  1.00  0.00    -0.247 OA
HETATM   11  H   UNL     1      40.250 -12.742   0.224  1.00  0.00     0.164 HD
HETATM   12  H   UNL     1      43.045 -11.782   2.060  1.00  0.00     0.170 HD
BRANCH   9  13
HETATM   13  C   UNL     1      40.902 -12.453  -1.757  1.00  0.00     0.167 C 
BRANCH  13  14
HETATM   14  C   UNL     1      39.820 -13.417  -2.120  1.00  0.00     0.009 A 
HETATM   15  C   UNL     1      39.958 -14.705  -2.615  1.00  0.00     0.034 A 
HETATM   16  C   UNL     1      41.156 -15.523  -2.917  1.00  0.00     0.070 C 
HETATM   17  N   UNL     1      38.690 -15.183  -2.785  1.00  0.00    -0.282 N 
HETATM   18  H   UNL     1      38.408 -16.092  -3.133  1.00  0.00     0.189 HD
HETATM   19  N   UNL     1      37.734 -14.313  -2.438  1.00  0.00    -0.179 NA
HETATM   20  C   UNL     1      38.409 -13.231  -2.032  1.00  0.00     0.060 A 
HETATM   21  C   UNL     1      37.670 -12.035  -1.557  1.00  0.00     0.073 C 
ENDBRANCH  13  14
ENDBRANCH   9  13
ENDBRANCH   1   7
BRANCH   3  22
HETATM   22  N   UNL     1      42.592 -16.879   3.481  1.00  0.00    -0.327 N 
HETATM   23  C   UNL     1      42.549 -17.871   2.510  1.00  0.00     0.226 C 
HETATM   24  O   UNL     1      41.728 -17.906   1.594  1.00  0.00    -0.273 OA
HETATM   25  H   UNL     1      42.917 -17.136   4.403  1.00  0.00     0.169 HD
BRANCH  23  26
HETATM   26  C   UNL     1      43.679 -18.888   2.579  1.00  0.00     0.078 C 
HETATM   27  C   UNL     1      44.108 -19.387   3.953  1.00  0.00     0.014 C 
HETATM   28  C   UNL     1      44.952 -20.607   3.616  1.00  0.00     0.001 C 
HETATM   29  C   UNL     1      44.255 -21.250   2.421  1.00  0.00     0.001 C 
HETATM   30  C   UNL     1      43.321 -20.184   1.849  1.00  0.00     0.014 C 
ENDBRANCH  23  26
ENDBRANCH   3  22
TORSDOF 5
ENDMDL
MODEL 9
REMARK VINA RESULT:      -7.8      5.383      8.520
REMARK  5 active torsions:
REMARK  status: ('A' for Active; 'I' for Inactive)
REMARK    1  A    between atoms: C_8  and  C_9 
REMARK    2  A    between atoms: C_9  and  N_10 
REMARK       I    between atoms: N_10  and  C_11 
REMARK       I    between atoms: C_11  and  N_12 
REMARK    3  A    between atoms: N_12  and  C_13 
REMARK    4  A    between atoms: C_15  and  N_16 
REMARK       I    between atoms: N_16  and  C_17 
REMARK    5  A    between atoms: C_17  and  C_18 
ROOT
HETATM    1  C   UNL     1      42.587 -13.594   6.207  1.00  0.00     0.038 A 
HETATM    2  C   UNL     1      42.338 -14.804   5.563  1.00  0.00     0.059 A 
HETATM    3  C   UNL     1      43.192 -15.902   5.706  1.00  0.00     0.036 A 
HETATM    4  C   UNL     1      44.375 -15.762   6.426  1.00  0.00     0.029 A 
HETATM    5  C   UNL     1      44.657 -14.547   7.054  1.00  0.00     0.004 A 
HETATM    6  C   UNL     1      43.764 -13.474   6.953  1.00  0.00     0.029 A 
ENDROOT
BRANCH   1   7
HETATM    7  N   UNL     1      41.758 -12.458   6.097  1.00  0.00    -0.309 N 
HETATM    8  C   UNL     1      41.553 -11.392   6.924  1.00  0.00     0.320 C 
HETATM    9  N   UNL     1      42.501 -11.119   7.851  1.00  0.00    -0.338 N 
HETATM   10  O   UNL     1      40.528 -10.728   6.795  1.00  0.00    -0.247 OA
HETATM   11  H   UNL     1      43.448 -11.419   7.670  1.00  0.00     0.164 HD
HETATM   12  H   UNL     1      41.086 -12.465   5.340  1.00  0.00     0.170 HD
BRANCH   9  13
HETATM   13  C   UNL     1      42.292 -10.229   8.968  1.00  0.00     0.167 C 
BRANCH  13  14
HETATM   14  C   UNL     1      42.676 -10.961  10.212  1.00  0.00     0.009 A 
HETATM   15  C   UNL     1      41.865 -11.301  11.284  1.00  0.00     0.034 A 
HETATM   16  C   UNL     1      40.422 -11.083  11.538  1.00  0.00     0.070 C 
HETATM   17  N   UNL     1      42.667 -11.962  12.170  1.00  0.00    -0.282 N 
HETATM   18  H   UNL     1      42.411 -12.354  13.070  1.00  0.00     0.189 HD
HETATM   19  N   UNL     1      43.936 -12.085  11.764  1.00  0.00    -0.179 NA
HETATM   20  C   UNL     1      43.956 -11.477  10.571  1.00  0.00     0.060 A 
HETATM   21  C   UNL     1      45.219 -11.416   9.795  1.00  0.00     0.073 C 
ENDBRANCH  13  14
ENDBRANCH   9  13
ENDBRANCH   1   7
BRANCH   3  22
HETATM   22  N   UNL     1      42.892 -17.125   5.073  1.00  0.00    -0.327 N 
HETATM   23  C   UNL     1      43.261 -17.415   3.767  1.00  0.00     0.226 C 
HETATM   24  O   UNL     1      43.628 -16.571   2.949  1.00  0.00    -0.273 OA
HETATM   25  H   UNL     1      42.188 -17.709   5.504  1.00  0.00     0.169 HD
BRANCH  23  26
HETATM   26  C   UNL     1      43.293 -18.897   3.420  1.00  0.00     0.078 C 
HETATM   27  C   UNL     1      43.564 -19.286   1.973  1.00  0.00     0.014 C 
HETATM   28  C   UNL     1      43.881 -20.769   2.080  1.00  0.00     0.001 C 
HETATM   29  C   UNL     1      44.662 -20.912   3.383  1.00  0.00     0.001 C 
HETATM   30  C   UNL     1      44.401 -19.633   4.178  1.00  0.00     0.014 C 
ENDBRANCH  23  26
ENDBRANCH   3  22
TORSDOF 5
ENDMDL
MODEL 10
REMARK VINA RESULT:      -7.7      1.928      2.408
REMARK  5 active torsions:
REMARK  status: ('A' for Active; 'I' for Inactive)
REMARK    1  A    between atoms: C_8  and  C_9 
REMARK    2  A    between atoms: C_9  and  N_10 
REMARK       I    between atoms: N_10  and  C_11 
REMARK       I    between atoms: C_11  and  N_12 
REMARK    3  A    between atoms: N_12  and  C_13 
REMARK    4  A    between atoms: C_15  and  N_16 
REMARK       I    between atoms: N_16  and  C_17 
REMARK    5  A    between atoms: C_17  and  C_18 
ROOT
HETATM    1  C   UNL     1      42.655 -13.390   3.408  1.00  0.00     0.038 A 
HETATM    2  C   UNL     1      43.199 -14.651   3.174  1.00  0.00     0.059 A 
HETATM    3  C   UNL     1      43.379 -15.577   4.206  1.00  0.00     0.036 A 
HETATM    4  C   UNL     1      43.105 -15.204   5.518  1.00  0.00     0.029 A 
HETATM    5  C   UNL     1      42.588 -13.933   5.778  1.00  0.00     0.004 A 
HETATM    6  C   UNL     1      42.356 -13.036   4.728  1.00  0.00     0.029 A 
ENDROOT
BRANCH   1   7
HETATM    7  N   UNL     1      42.453 -12.420   2.405  1.00  0.00    -0.309 N 
HETATM    8  C   UNL     1      41.570 -12.349   1.367  1.00  0.00     0.320 C 
HETATM    9  N   UNL     1      40.450 -13.106   1.436  1.00  0.00    -0.338 N 
HETATM   10  O   UNL     1      41.822 -11.607   0.422  1.00  0.00    -0.247 OA
HETATM   11  H   UNL     1      40.108 -13.374   2.347  1.00  0.00     0.164 HD
HETATM   12  H   UNL     1      43.155 -11.694   2.335  1.00  0.00     0.170 HD
BRANCH   9  13
HETATM   13  C   UNL     1      39.588 -13.361   0.307  1.00  0.00     0.167 C 
BRANCH  13  14
HETATM   14  C   UNL     1      40.376 -14.127  -0.706  1.00  0.00     0.009 A 
HETATM   15  C   UNL     1      41.003 -15.353  -0.547  1.00  0.00     0.034 A 
HETATM   16  C   UNL     1      41.086 -16.277   0.608  1.00  0.00     0.070 C 
HETATM   17  N   UNL     1      41.585 -15.639  -1.749  1.00  0.00    -0.282 N 
HETATM   18  H   UNL     1      42.131 -16.456  -1.999  1.00  0.00     0.189 HD
HETATM   19  N   UNL     1      41.386 -14.701  -2.683  1.00  0.00    -0.179 NA
HETATM   20  C   UNL     1      40.651 -13.772  -2.059  1.00  0.00     0.060 A 
HETATM   21  C   UNL     1      40.221 -12.556  -2.794  1.00  0.00     0.073 C 
ENDBRANCH  13  14
ENDBRANCH   9  13
ENDBRANCH   1   7
BRANCH   3  22
HETATM   22  N   UNL     1      43.894 -16.860   3.930  1.00  0.00    -0.327 N 
HETATM   23  C   UNL     1      43.104 -17.923   3.515  1.00  0.00     0.226 C 
HETATM   24  O   UNL     1      41.877 -17.949   3.608  1.00  0.00    -0.273 OA
HETATM   25  H   UNL     1      44.823 -17.069   4.271  1.00  0.00     0.169 HD
BRANCH  23  26
HETATM   26  C   UNL     1      43.853 -19.048   2.816  1.00  0.00     0.078 C 
HETATM   27  C   UNL     1      44.538 -20.097   3.682  1.00  0.00     0.014 C 
HETATM   28  C   UNL     1      44.841 -21.205   2.687  1.00  0.00     0.001 C 
HETATM   29  C   UNL     1      43.644 -21.225   1.742  1.00  0.00     0.001 C 
HETATM   30  C   UNL     1      42.923 -19.892   1.941  1.00  0.00     0.014 C 
ENDBRANCH  23  26
ENDBRANCH   3  22
TORSDOF 5
ENDMDL
