MODEL 1
REMARK VINA RESULT:      -9.0      0.000      0.000
REMARK  4 active torsions:
REMARK  status: ('A' for Active; 'I' for Inactive)
REMARK    1  A    between atoms: C_3  and  C_4 
REMARK    2  A    between atoms: C_5  and  C_6 
REMARK       I    between atoms: C_6  and  N_7 
REMARK    3  A    between atoms: N_7  and  C_8 
REMARK    4  A    between atoms: C_15  and  C_16 
REMARK       I    between atoms: C_16  and  N_17 
ROOT
HETATM    1  C   UNL     1      41.567 -16.912   1.109  1.00  0.00     0.035 A 
HETATM    2  C   UNL     1      41.656 -16.291  -0.146  1.00  0.00     0.046 A 
HETATM    3  C   UNL     1      40.815 -15.195  -0.442  1.00  0.00     0.030 A 
HETATM    4  C   UNL     1      39.931 -14.746   0.532  1.00  0.00     0.063 A 
HETATM    5  N   UNL     1      39.269 -13.694  -0.036  1.00  0.00    -0.277 N 
HETATM    6  H   UNL     1      38.549 -13.119   0.389  1.00  0.00     0.189 HD
HETATM    7  N   UNL     1      39.628 -13.428  -1.302  1.00  0.00    -0.168 NA
HETATM    8  C   UNL     1      40.582 -14.349  -1.569  1.00  0.00     0.156 A 
HETATM    9  C   UNL     1      39.824 -15.331   1.794  1.00  0.00     0.034 A 
HETATM   10  C   UNL     1      40.655 -16.428   2.057  1.00  0.00     0.032 A 
ENDROOT
BRANCH   1  11
HETATM   11  N   UNL     1      42.329 -18.041   1.481  1.00  0.00    -0.327 N 
HETATM   12  C   UNL     1      43.700 -18.135   1.576  1.00  0.00     0.227 C 
HETATM   13  O   UNL     1      44.513 -17.235   1.423  1.00  0.00    -0.273 OA
HETATM   14  H   UNL     1      41.804 -18.872   1.700  1.00  0.00     0.169 HD
BRANCH  12  15
HETATM   15  C   UNL     1      44.227 -19.504   1.839  1.00  0.00     0.087 A 
HETATM   16  C   UNL     1      44.531 -20.019   3.238  1.00  0.00     0.034 A 
HETATM   17  C   UNL     1      43.433 -20.647   2.403  1.00  0.00     0.025 A 
BRANCH  16  18
HETATM   18  C   UNL     1      44.151 -19.308   4.526  1.00  0.00    -0.031 A 
HETATM   19  C   UNL     1      43.949 -17.914   4.549  1.00  0.00     0.009 A 
HETATM   20  C   UNL     1      43.619 -17.232   5.724  1.00  0.00     0.001 A 
HETATM   21  C   UNL     1      43.501 -17.923   6.924  1.00  0.00     0.002 A 
HETATM   22  C   UNL     1      43.726 -19.295   6.949  1.00  0.00     0.024 A 
HETATM   23  C   UNL     1      44.054 -19.975   5.769  1.00  0.00     0.040 A 
HETATM   24 CL   UNL     1      44.373 -21.672   5.904  1.00  0.00    -0.084 Cl
ENDBRANCH  16  18
ENDBRANCH  12  15
ENDBRANCH   1  11
BRANCH   8  25
HETATM   25  C   UNL     1      41.233 -14.408  -2.885  1.00  0.00     0.270 C 
HETATM   26  N   UNL     1      42.474 -13.831  -2.920  1.00  0.00    -0.365 N 
HETATM   27  H   UNL     1      42.835 -13.407  -2.072  1.00  0.00     0.159 HD
HETATM   28  H   UNL     1      42.988 -13.802  -3.786  1.00  0.00     0.159 HD
HETATM   29  O   UNL     1      40.741 -14.911  -3.889  1.00  0.00    -0.266 OA
ENDBRANCH   8  25
TORSDOF 4
ENDMDL
MODEL 2
REMARK VINA RESULT:      -8.8      2.510      3.129
REMARK  4 active torsions:
REMARK  status: ('A' for Active; 'I' for Inactive)
REMARK    1  A    between atoms: C_3  and  C_4 
REMARK    2  A    between atoms: C_5  and  C_6 
REMARK       I    between atoms: C_6  and  N_7 
REMARK    3  A    between atoms: N_7  and  C_8 
REMARK    4  A    between atoms: C_15  and  C_16 
REMARK       I    between atoms: C_16  and  N_17 
ROOT
HETATM    1  C   UNL     1      41.519 -15.068  -0.169  1.00  0.00     0.035 A 
HETATM    2  C   UNL     1      40.805 -15.260  -1.360  1.00  0.00     0.046 A 
HETATM    3  C   UNL     1      39.840 -14.306  -1.755  1.00  0.00     0.030 A 
HETATM    4  C   UNL     1      39.639 -13.186  -0.958  1.00  0.00     0.063 A 
HETATM    5  N   UNL     1      38.668 -12.461  -1.589  1.00  0.00    -0.277 N 
HETATM    6  H   UNL     1      38.271 -11.576  -1.292  1.00  0.00     0.189 HD
HETATM    7  N   UNL     1      38.202 -13.018  -2.718  1.00  0.00    -0.168 NA
HETATM    8  C   UNL     1      38.915 -14.161  -2.834  1.00  0.00     0.156 A 
HETATM    9  C   UNL     1      40.340 -12.956   0.227  1.00  0.00     0.034 A 
HETATM   10  C   UNL     1      41.277 -13.925   0.607  1.00  0.00     0.032 A 
ENDROOT
BRANCH   1  11
HETATM   11  N   UNL     1      42.466 -15.986   0.334  1.00  0.00    -0.327 N 
HETATM   12  C   UNL     1      42.221 -17.200   0.939  1.00  0.00     0.227 C 
HETATM   13  O   UNL     1      41.136 -17.742   1.088  1.00  0.00    -0.273 OA
HETATM   14  H   UNL     1      43.433 -15.717   0.240  1.00  0.00     0.169 HD
BRANCH  12  15
HETATM   15  C   UNL     1      43.418 -17.879   1.511  1.00  0.00     0.087 A 
HETATM   16  C   UNL     1      43.819 -17.756   2.973  1.00  0.00     0.034 A 
HETATM   17  C   UNL     1      43.390 -19.090   2.397  1.00  0.00     0.025 A 
BRANCH  16  18
HETATM   18  C   UNL     1      42.964 -17.120   4.057  1.00  0.00    -0.031 A 
HETATM   19  C   UNL     1      42.141 -17.910   4.883  1.00  0.00     0.009 A 
HETATM   20  C   UNL     1      41.329 -17.350   5.875  1.00  0.00     0.001 A 
HETATM   21  C   UNL     1      41.299 -15.973   6.058  1.00  0.00     0.002 A 
HETATM   22  C   UNL     1      42.072 -15.157   5.239  1.00  0.00     0.024 A 
HETATM   23  C   UNL     1      42.885 -15.721   4.249  1.00  0.00     0.040 A 
HETATM   24 CL   UNL     1      43.769 -14.626   3.240  1.00  0.00    -0.084 Cl
ENDBRANCH  16  18
ENDBRANCH  12  15
ENDBRANCH   1  11
BRANCH   8  25
HETATM   25  C   UNL     1      38.691 -15.086  -3.954  1.00  0.00     0.270 C 
HETATM   26  N   UNL     1      37.471 -14.944  -4.558  1.00  0.00    -0.365 N 
HETATM   27  H   UNL     1      36.828 -14.249  -4.196  1.00  0.00     0.159 HD
HETATM   28  H   UNL     1      37.218 -15.551  -5.321  1.00  0.00     0.159 HD
HETATM   29  O   UNL     1      39.494 -15.929  -4.339  1.00  0.00    -0.266 OA
ENDBRANCH   8  25
TORSDOF 4
ENDMDL
MODEL 3
REMARK VINA RESULT:      -8.7      2.748      4.035
REMARK  4 active torsions:
REMARK  status: ('A' for Active; 'I' for Inactive)
REMARK    1  A    between atoms: C_3  and  C_4 
REMARK    2  A    between atoms: C_5  and  C_6 
REMARK       I    between atoms: C_6  and  N_7 
REMARK    3  A    between atoms: N_7  and  C_8 
REMARK    4  A    between atoms: C_15  and  C_16 
REMARK       I    between atoms: C_16  and  N_17 
ROOT
HETATM    1  C   UNL     1      40.320 -13.518   0.770  1.00  0.00     0.035 A 
HETATM    2  C   UNL     1      40.387 -14.252  -0.423  1.00  0.00     0.046 A 
HETATM    3  C   UNL     1      39.415 -14.041  -1.427  1.00  0.00     0.030 A 
HETATM    4  C   UNL     1      38.425 -13.091  -1.213  1.00  0.00     0.063 A 
HETATM    5  N   UNL     1      37.651 -13.112  -2.339  1.00  0.00    -0.277 N 
HETATM    6  H   UNL     1      36.835 -12.542  -2.534  1.00  0.00     0.189 HD
HETATM    7  N   UNL     1      38.037 -14.006  -3.263  1.00  0.00    -0.168 NA
HETATM    8  C   UNL     1      39.126 -14.591  -2.714  1.00  0.00     0.156 A 
HETATM    9  C   UNL     1      38.334 -12.334  -0.043  1.00  0.00     0.034 A 
HETATM   10  C   UNL     1      39.297 -12.575   0.944  1.00  0.00     0.032 A 
ENDROOT
BRANCH   1  11
HETATM   11  N   UNL     1      41.213 -13.692   1.849  1.00  0.00    -0.327 N 
HETATM   12  C   UNL     1      40.963 -14.307   3.056  1.00  0.00     0.227 C 
HETATM   13  O   UNL     1      39.938 -14.882   3.391  1.00  0.00    -0.273 OA
HETATM   14  H   UNL     1      42.140 -13.319   1.717  1.00  0.00     0.169 HD
BRANCH  12  15
HETATM   15  C   UNL     1      42.055 -14.198   4.064  1.00  0.00     0.087 A 
HETATM   16  C   UNL     1      43.088 -15.291   4.287  1.00  0.00     0.034 A 
HETATM   17  C   UNL     1      43.500 -13.934   3.754  1.00  0.00     0.025 A 
BRANCH  16  18
HETATM   18  C   UNL     1      43.269 -16.509   3.396  1.00  0.00    -0.031 A 
HETATM   19  C   UNL     1      43.903 -16.400   2.144  1.00  0.00     0.009 A 
HETATM   20  C   UNL     1      44.064 -17.500   1.295  1.00  0.00     0.001 A 
HETATM   21  C   UNL     1      43.574 -18.746   1.665  1.00  0.00     0.002 A 
HETATM   22  C   UNL     1      42.912 -18.888   2.880  1.00  0.00     0.024 A 
HETATM   23  C   UNL     1      42.754 -17.784   3.728  1.00  0.00     0.040 A 
HETATM   24 CL   UNL     1      41.867 -18.040   5.193  1.00  0.00    -0.084 Cl
ENDBRANCH  16  18
ENDBRANCH  12  15
ENDBRANCH   1  11
BRANCH   8  25
HETATM   25  C   UNL     1      39.850 -15.659  -3.417  1.00  0.00     0.270 C 
HETATM   26  N   UNL     1      39.053 -16.688  -3.840  1.00  0.00    -0.365 N 
HETATM   27  H   UNL     1      38.061 -16.650  -3.633  1.00  0.00     0.159 HD
HETATM   28  H   UNL     1      39.464 -17.478  -4.311  1.00  0.00     0.159 HD
HETATM   29  O   UNL     1      41.059 -15.671  -3.619  1.00  0.00    -0.266 OA
ENDBRANCH   8  25
TORSDOF 4
ENDMDL
MODEL 4
REMARK VINA RESULT:      -8.6      4.158      7.824
REMARK  4 active torsions:
REMARK  status: ('A' for Active; 'I' for Inactive)
REMARK    1  A    between atoms: C_3  and  C_4 
REMARK    2  A    between atoms: C_5  and  C_6 
REMARK       I    between atoms: C_6  and  N_7 
REMARK    3  A    between atoms: N_7  and  C_8 
REMARK    4  A    between atoms: C_15  and  C_16 
REMARK       I    between atoms: C_16  and  N_17 
ROOT
HETATM    1  C   UNL     1      43.238 -17.973   3.803  1.00  0.00     0.035 A 
HETATM    2  C   UNL     1      43.746 -19.126   4.419  1.00  0.00     0.046 A 
HETATM    3  C   UNL     1      44.053 -20.259   3.633  1.00  0.00     0.030 A 
HETATM    4  C   UNL     1      43.860 -20.194   2.259  1.00  0.00     0.063 A 
HETATM    5  N   UNL     1      44.240 -21.416   1.780  1.00  0.00    -0.277 N 
HETATM    6  H   UNL     1      44.236 -21.726   0.814  1.00  0.00     0.189 HD
HETATM    7  N   UNL     1      44.646 -22.281   2.722  1.00  0.00    -0.168 NA
HETATM    8  C   UNL     1      44.535 -21.582   3.875  1.00  0.00     0.156 A 
HETATM    9  C   UNL     1      43.367 -19.060   1.610  1.00  0.00     0.034 A 
HETATM   10  C   UNL     1      43.052 -17.957   2.413  1.00  0.00     0.032 A 
ENDROOT
BRANCH   1  11
HETATM   11  N   UNL     1      42.857 -16.811   4.507  1.00  0.00    -0.327 N 
HETATM   12  C   UNL     1      41.711 -16.614   5.246  1.00  0.00     0.227 C 
HETATM   13  O   UNL     1      40.841 -17.437   5.490  1.00  0.00    -0.273 OA
HETATM   14  H   UNL     1      43.500 -16.036   4.458  1.00  0.00     0.169 HD
BRANCH  12  15
HETATM   15  C   UNL     1      41.507 -15.224   5.746  1.00  0.00     0.087 A 
HETATM   16  C   UNL     1      41.150 -14.061   4.834  1.00  0.00     0.034 A 
HETATM   17  C   UNL     1      40.180 -14.540   5.894  1.00  0.00     0.025 A 
BRANCH  16  18
HETATM   18  C   UNL     1      40.756 -14.193   3.372  1.00  0.00    -0.031 A 
HETATM   19  C   UNL     1      39.413 -14.394   3.002  1.00  0.00     0.009 A 
HETATM   20  C   UNL     1      39.025 -14.540   1.666  1.00  0.00     0.001 A 
HETATM   21  C   UNL     1      39.977 -14.510   0.655  1.00  0.00     0.002 A 
HETATM   22  C   UNL     1      41.319 -14.347   0.982  1.00  0.00     0.024 A 
HETATM   23  C   UNL     1      41.703 -14.200   2.321  1.00  0.00     0.040 A 
HETATM   24 CL   UNL     1      43.399 -14.059   2.640  1.00  0.00    -0.084 Cl
ENDBRANCH  16  18
ENDBRANCH  12  15
ENDBRANCH   1  11
BRANCH   8  25
HETATM   25  C   UNL     1      44.875 -22.191   5.169  1.00  0.00     0.270 C 
HETATM   26  N   UNL     1      45.878 -23.119   5.102  1.00  0.00    -0.365 N 
HETATM   27  H   UNL     1      46.290 -23.324   4.198  1.00  0.00     0.159 HD
HETATM   28  H   UNL     1      46.164 -23.607   5.935  1.00  0.00     0.159 HD
HETATM   29  O   UNL     1      44.327 -21.926   6.233  1.00  0.00    -0.266 OA
ENDBRANCH   8  25
TORSDOF 4
ENDMDL
MODEL 5
REMARK VINA RESULT:      -8.6      2.488      3.921
REMARK  4 active torsions:
REMARK  status: ('A' for Active; 'I' for Inactive)
REMARK    1  A    between atoms: C_3  and  C_4 
REMARK    2  A    between atoms: C_5  and  C_6 
REMARK       I    between atoms: C_6  and  N_7 
REMARK    3  A    between atoms: N_7  and  C_8 
REMARK    4  A    between atoms: C_15  and  C_16 
REMARK       I    between atoms: C_16  and  N_17 
ROOT
HETATM    1  C   UNL     1      41.537 -16.836   2.284  1.00  0.00     0.035 A 
HETATM    2  C   UNL     1      41.446 -16.024   3.424  1.00  0.00     0.046 A 
HETATM    3  C   UNL     1      40.626 -14.874   3.398  1.00  0.00     0.030 A 
HETATM    4  C   UNL     1      39.911 -14.587   2.242  1.00  0.00     0.063 A 
HETATM    5  N   UNL     1      39.221 -13.440   2.517  1.00  0.00    -0.277 N 
HETATM    6  H   UNL     1      38.589 -12.940   1.900  1.00  0.00     0.189 HD
HETATM    7  N   UNL     1      39.438 -12.941   3.744  1.00  0.00    -0.168 NA
HETATM    8  C   UNL     1      40.306 -13.815   4.301  1.00  0.00     0.156 A 
HETATM    9  C   UNL     1      39.967 -15.378   1.093  1.00  0.00     0.034 A 
HETATM   10  C   UNL     1      40.802 -16.501   1.137  1.00  0.00     0.032 A 
ENDROOT
BRANCH   1  11
HETATM   11  N   UNL     1      42.364 -17.976   2.196  1.00  0.00    -0.327 N 
HETATM   12  C   UNL     1      43.697 -18.022   1.847  1.00  0.00     0.227 C 
HETATM   13  O   UNL     1      44.431 -17.072   1.617  1.00  0.00    -0.273 OA
HETATM   14  H   UNL     1      41.925 -18.856   2.412  1.00  0.00     0.169 HD
BRANCH  12  15
HETATM   15  C   UNL     1      44.265 -19.390   1.687  1.00  0.00     0.087 A 
HETATM   16  C   UNL     1      44.698 -20.249   2.864  1.00  0.00     0.034 A 
HETATM   17  C   UNL     1      43.542 -20.672   1.982  1.00  0.00     0.025 A 
BRANCH  16  18
HETATM   18  C   UNL     1      44.421 -19.926   4.323  1.00  0.00    -0.031 A 
HETATM   19  C   UNL     1      44.346 -18.591   4.765  1.00  0.00     0.009 A 
HETATM   20  C   UNL     1      44.113 -18.265   6.105  1.00  0.00     0.001 A 
HETATM   21  C   UNL     1      43.969 -19.270   7.054  1.00  0.00     0.002 A 
HETATM   22  C   UNL     1      44.070 -20.601   6.662  1.00  0.00     0.024 A 
HETATM   23  C   UNL     1      44.302 -20.923   5.320  1.00  0.00     0.040 A 
HETATM   24 CL   UNL     1      44.470 -22.603   4.933  1.00  0.00    -0.084 Cl
ENDBRANCH  16  18
ENDBRANCH  12  15
ENDBRANCH   1  11
BRANCH   8  25
HETATM   25  C   UNL     1      40.816 -13.614   5.665  1.00  0.00     0.270 C 
HETATM   26  N   UNL     1      39.930 -13.964   6.648  1.00  0.00    -0.365 N 
HETATM   27  H   UNL     1      39.016 -14.309   6.377  1.00  0.00     0.159 HD
HETATM   28  H   UNL     1      40.183 -13.839   7.615  1.00  0.00     0.159 HD
HETATM   29  O   UNL     1      41.924 -13.168   5.941  1.00  0.00    -0.266 OA
ENDBRANCH   8  25
TORSDOF 4
ENDMDL
MODEL 6
REMARK VINA RESULT:      -8.5      3.531      8.280
REMARK  4 active torsions:
REMARK  status: ('A' for Active; 'I' for Inactive)
REMARK    1  A    between atoms: C_3  and  C_4 
REMARK    2  A    between atoms: C_5  and  C_6 
REMARK       I    between atoms: C_6  and  N_7 
REMARK    3  A    between atoms: N_7  and  C_8 
REMARK    4  A    between atoms: C_15  and  C_16 
REMARK       I    between atoms: C_16  and  N_17 
ROOT
HETATM    1  C   UNL     1      42.140 -17.552   2.753  1.00  0.00     0.035 A 
HETATM    2  C   UNL     1      42.685 -17.856   4.009  1.00  0.00     0.046 A 
HETATM    3  C   UNL     1      43.626 -18.903   4.126  1.00  0.00     0.030 A 
HETATM    4  C   UNL     1      44.004 -19.596   2.982  1.00  0.00     0.063 A 
HETATM    5  N   UNL     1      44.910 -20.527   3.404  1.00  0.00    -0.277 N 
HETATM    6  H   UNL     1      45.401 -21.209   2.836  1.00  0.00     0.189 HD
HETATM    7  N   UNL     1      45.143 -20.519   4.726  1.00  0.00    -0.168 NA
HETATM    8  C   UNL     1      44.355 -19.521   5.188  1.00  0.00     0.156 A 
HETATM    9  C   UNL     1      43.493 -19.313   1.715  1.00  0.00     0.034 A 
HETATM   10  C   UNL     1      42.547 -18.283   1.628  1.00  0.00     0.032 A 
ENDROOT
BRANCH   1  11
HETATM   11  N   UNL     1      41.160 -16.559   2.543  1.00  0.00    -0.327 N 
HETATM   12  C   UNL     1      41.337 -15.192   2.539  1.00  0.00     0.227 C 
HETATM   13  O   UNL     1      42.392 -14.585   2.646  1.00  0.00    -0.273 OA
HETATM   14  H   UNL     1      40.224 -16.892   2.378  1.00  0.00     0.169 HD
BRANCH  12  15
HETATM   15  C   UNL     1      40.084 -14.389   2.446  1.00  0.00     0.087 A 
HETATM   16  C   UNL     1      39.718 -13.564   1.222  1.00  0.00     0.034 A 
HETATM   17  C   UNL     1      38.876 -14.754   1.634  1.00  0.00     0.025 A 
BRANCH  16  18
HETATM   18  C   UNL     1      40.450 -13.614  -0.109  1.00  0.00    -0.031 A 
HETATM   19  C   UNL     1      40.116 -14.577  -1.081  1.00  0.00     0.009 A 
HETATM   20  C   UNL     1      40.786 -14.658  -2.305  1.00  0.00     0.001 A 
HETATM   21  C   UNL     1      41.832 -13.788  -2.589  1.00  0.00     0.002 A 
HETATM   22  C   UNL     1      42.214 -12.845  -1.640  1.00  0.00     0.024 A 
HETATM   23  C   UNL     1      41.539 -12.766  -0.417  1.00  0.00     0.040 A 
HETATM   24 CL   UNL     1      42.119 -11.600   0.726  1.00  0.00    -0.084 Cl
ENDBRANCH  16  18
ENDBRANCH  12  15
ENDBRANCH   1  11
BRANCH   8  25
HETATM   25  C   UNL     1      44.306 -19.193   6.620  1.00  0.00     0.270 C 
HETATM   26  N   UNL     1      45.034 -18.086   6.963  1.00  0.00    -0.365 N 
HETATM   27  H   UNL     1      45.547 -17.599   6.237  1.00  0.00     0.159 HD
HETATM   28  H   UNL     1      45.079 -17.797   7.927  1.00  0.00     0.159 HD
HETATM   29  O   UNL     1      43.688 -19.831   7.465  1.00  0.00    -0.266 OA
ENDBRANCH   8  25
TORSDOF 4
ENDMDL
MODEL 7
REMARK VINA RESULT:      -8.4      2.745      3.804
REMARK  4 active torsions:
REMARK  status: ('A' for Active; 'I' for Inactive)
REMARK    1  A    between atoms: C_3  and  C_4 
REMARK    2  A    between atoms: C_5  and  C_6 
REMARK       I    between atoms: C_6  and  N_7 
REMARK    3  A    between atoms: N_7  and  C_8 
REMARK    4  A    between atoms: C_15  and  C_16 
REMARK       I    between atoms: C_16  and  N_17 
ROOT
HETATM    1  C   UNL     1      41.436 -14.108   2.921  1.00  0.00     0.035 A 
HETATM    2  C   UNL     1      41.927 -13.563   1.726  1.00  0.00     0.046 A 
HETATM    3  C   UNL     1      41.306 -13.896   0.501  1.00  0.00     0.030 A 
HETATM    4  C   UNL     1      40.206 -14.744   0.515  1.00  0.00     0.063 A 
HETATM    5  N   UNL     1      39.830 -14.874  -0.792  1.00  0.00    -0.277 N 
HETATM    6  H   UNL     1      39.057 -15.420  -1.157  1.00  0.00     0.189 HD
HETATM    7  N   UNL     1      40.600 -14.202  -1.662  1.00  0.00    -0.168 NA
HETATM    8  C   UNL     1      41.519 -13.592  -0.879  1.00  0.00     0.156 A 
HETATM    9  C   UNL     1      39.683 -15.296   1.686  1.00  0.00     0.034 A 
HETATM   10  C   UNL     1      40.327 -14.966   2.885  1.00  0.00     0.032 A 
ENDROOT
BRANCH   1  11
HETATM   11  N   UNL     1      42.016 -13.875   4.186  1.00  0.00    -0.327 N 
HETATM   12  C   UNL     1      43.353 -13.915   4.518  1.00  0.00     0.227 C 
HETATM   13  O   UNL     1      44.295 -14.091   3.759  1.00  0.00    -0.273 OA
HETATM   14  H   UNL     1      41.374 -13.655   4.931  1.00  0.00     0.169 HD
BRANCH  12  15
HETATM   15  C   UNL     1      43.652 -13.780   5.972  1.00  0.00     0.087 A 
HETATM   16  C   UNL     1      43.733 -14.972   6.913  1.00  0.00     0.034 A 
HETATM   17  C   UNL     1      44.957 -14.126   6.627  1.00  0.00     0.025 A 
BRANCH  16  18
HETATM   18  C   UNL     1      43.732 -16.427   6.475  1.00  0.00    -0.031 A 
HETATM   19  C   UNL     1      44.941 -17.128   6.298  1.00  0.00     0.009 A 
HETATM   20  C   UNL     1      44.970 -18.461   5.876  1.00  0.00     0.001 A 
HETATM   21  C   UNL     1      43.786 -19.131   5.594  1.00  0.00     0.002 A 
HETATM   22  C   UNL     1      42.574 -18.462   5.724  1.00  0.00     0.024 A 
HETATM   23  C   UNL     1      42.548 -17.128   6.149  1.00  0.00     0.040 A 
HETATM   24 CL   UNL     1      40.999 -16.358   6.228  1.00  0.00    -0.084 Cl
ENDBRANCH  16  18
ENDBRANCH  12  15
ENDBRANCH   1  11
BRANCH   8  25
HETATM   25  C   UNL     1      42.577 -12.754  -1.461  1.00  0.00     0.270 C 
HETATM   26  N   UNL     1      43.049 -13.206  -2.663  1.00  0.00    -0.365 N 
HETATM   27  H   UNL     1      42.662 -14.062  -3.045  1.00  0.00     0.159 HD
HETATM   28  H   UNL     1      43.792 -12.709  -3.127  1.00  0.00     0.159 HD
HETATM   29  O   UNL     1      43.030 -11.738  -0.944  1.00  0.00    -0.266 OA
ENDBRANCH   8  25
TORSDOF 4
ENDMDL
MODEL 8
REMARK VINA RESULT:      -8.4      2.965      4.018
REMARK  4 active torsions:
REMARK  status: ('A' for Active; 'I' for Inactive)
REMARK    1  A    between atoms: C_3  and  C_4 
REMARK    2  A    between atoms: C_5  and  C_6 
REMARK       I    between atoms: C_6  and  N_7 
REMARK    3  A    between atoms: N_7  and  C_8 
REMARK    4  A    between atoms: C_15  and  C_16 
REMARK       I    between atoms: C_16  and  N_17 
ROOT
HETATM    1  C   UNL     1      41.131 -15.382  -0.781  1.00  0.00     0.035 A 
HETATM    2  C   UNL     1      40.257 -14.519  -0.104  1.00  0.00     0.046 A 
HETATM    3  C   UNL     1      39.254 -13.836  -0.827  1.00  0.00     0.030 A 
HETATM    4  C   UNL     1      39.146 -14.055  -2.195  1.00  0.00     0.063 A 
HETATM    5  N   UNL     1      38.103 -13.273  -2.607  1.00  0.00    -0.277 N 
HETATM    6  H   UNL     1      37.737 -13.184  -3.548  1.00  0.00     0.189 HD
HETATM    7  N   UNL     1      37.533 -12.548  -1.632  1.00  0.00    -0.168 NA
HETATM    8  C   UNL     1      38.234 -12.883  -0.525  1.00  0.00     0.156 A 
HETATM    9  C   UNL     1      39.990 -14.915  -2.899  1.00  0.00     0.034 A 
HETATM   10  C   UNL     1      40.988 -15.566  -2.164  1.00  0.00     0.032 A 
ENDROOT
BRANCH   1  11
HETATM   11  N   UNL     1      42.193 -16.071  -0.157  1.00  0.00    -0.327 N 
HETATM   12  C   UNL     1      42.108 -17.140   0.709  1.00  0.00     0.227 C 
HETATM   13  O   UNL     1      41.096 -17.739   1.042  1.00  0.00    -0.273 OA
HETATM   14  H   UNL     1      43.120 -15.737  -0.370  1.00  0.00     0.169 HD
BRANCH  12  15
HETATM   15  C   UNL     1      43.396 -17.557   1.333  1.00  0.00     0.087 A 
HETATM   16  C   UNL     1      43.731 -17.294   2.793  1.00  0.00     0.034 A 
HETATM   17  C   UNL     1      43.571 -18.710   2.278  1.00  0.00     0.025 A 
BRANCH  16  18
HETATM   18  C   UNL     1      42.748 -16.780   3.830  1.00  0.00    -0.031 A 
HETATM   19  C   UNL     1      42.033 -17.672   4.652  1.00  0.00     0.009 A 
HETATM   20  C   UNL     1      41.106 -17.227   5.601  1.00  0.00     0.001 A 
HETATM   21  C   UNL     1      40.849 -15.869   5.743  1.00  0.00     0.002 A 
HETATM   22  C   UNL     1      41.511 -14.958   4.927  1.00  0.00     0.024 A 
HETATM   23  C   UNL     1      42.439 -15.408   3.980  1.00  0.00     0.040 A 
HETATM   24 CL   UNL     1      43.172 -14.208   2.968  1.00  0.00    -0.084 Cl
ENDBRANCH  16  18
ENDBRANCH  12  15
ENDBRANCH   1  11
BRANCH   8  25
HETATM   25  C   UNL     1      37.925 -12.281   0.780  1.00  0.00     0.270 C 
HETATM   26  N   UNL     1      36.591 -12.061   0.991  1.00  0.00    -0.365 N 
HETATM   27  H   UNL     1      35.937 -12.304   0.256  1.00  0.00     0.159 HD
HETATM   28  H   UNL     1      36.286 -11.630   1.849  1.00  0.00     0.159 HD
HETATM   29  O   UNL     1      38.758 -11.980   1.628  1.00  0.00    -0.266 OA
ENDBRANCH   8  25
TORSDOF 4
ENDMDL
MODEL 9
REMARK VINA RESULT:      -8.2      2.338      3.553
REMARK  4 active torsions:
REMARK  status: ('A' for Active; 'I' for Inactive)
REMARK    1  A    between atoms: C_3  and  C_4 
REMARK    2  A    between atoms: C_5  and  C_6 
REMARK       I    between atoms: C_6  and  N_7 
REMARK    3  A    between atoms: N_7  and  C_8 
REMARK    4  A    between atoms: C_15  and  C_16 
REMARK       I    between atoms: C_16  and  N_17 
ROOT
HETATM    1  C   UNL     1      41.429 -14.898   1.074  1.00  0.00     0.035 A 
HETATM    2  C   UNL     1      41.770 -13.609   0.638  1.00  0.00     0.046 A 
HETATM    3  C   UNL     1      41.836 -13.337  -0.747  1.00  0.00     0.030 A 
HETATM    4  C   UNL     1      41.540 -14.355  -1.645  1.00  0.00     0.063 A 
HETATM    5  N   UNL     1      41.683 -13.798  -2.885  1.00  0.00    -0.277 N 
HETATM    6  H   UNL     1      41.542 -14.251  -3.782  1.00  0.00     0.189 HD
HETATM    7  N   UNL     1      42.067 -12.512  -2.877  1.00  0.00    -0.168 NA
HETATM    8  C   UNL     1      42.168 -12.212  -1.562  1.00  0.00     0.156 A 
HETATM    9  C   UNL     1      41.185 -15.645  -1.247  1.00  0.00     0.034 A 
HETATM   10  C   UNL     1      41.146 -15.895   0.130  1.00  0.00     0.032 A 
ENDROOT
BRANCH   1  11
HETATM   11  N   UNL     1      41.384 -15.280   2.432  1.00  0.00    -0.327 N 
HETATM   12  C   UNL     1      42.442 -15.396   3.308  1.00  0.00     0.227 C 
HETATM   13  O   UNL     1      43.613 -15.120   3.089  1.00  0.00    -0.273 OA
HETATM   14  H   UNL     1      40.470 -15.493   2.799  1.00  0.00     0.169 HD
BRANCH  12  15
HETATM   15  C   UNL     1      42.105 -15.974   4.639  1.00  0.00     0.087 A 
HETATM   16  C   UNL     1      42.293 -17.445   4.975  1.00  0.00     0.034 A 
HETATM   17  C   UNL     1      43.099 -16.378   5.689  1.00  0.00     0.025 A 
BRANCH  16  18
HETATM   18  C   UNL     1      43.026 -18.448   4.100  1.00  0.00    -0.031 A 
HETATM   19  C   UNL     1      42.672 -18.621   2.748  1.00  0.00     0.009 A 
HETATM   20  C   UNL     1      43.316 -19.551   1.926  1.00  0.00     0.001 A 
HETATM   21  C   UNL     1      44.325 -20.357   2.439  1.00  0.00     0.002 A 
HETATM   22  C   UNL     1      44.681 -20.239   3.778  1.00  0.00     0.024 A 
HETATM   23  C   UNL     1      44.035 -19.305   4.598  1.00  0.00     0.040 A 
HETATM   24 CL   UNL     1      44.503 -19.268   6.265  1.00  0.00    -0.084 Cl
ENDBRANCH  16  18
ENDBRANCH  12  15
ENDBRANCH   1  11
BRANCH   8  25
HETATM   25  C   UNL     1      42.587 -10.875  -1.118  1.00  0.00     0.270 C 
HETATM   26  N   UNL     1      41.645  -9.902  -1.313  1.00  0.00    -0.365 N 
HETATM   27  H   UNL     1      40.764 -10.158  -1.746  1.00  0.00     0.159 HD
HETATM   28  H   UNL     1      41.851  -8.949  -1.061  1.00  0.00     0.159 HD
HETATM   29  O   UNL     1      43.677 -10.610  -0.622  1.00  0.00    -0.266 OA
ENDBRANCH   8  25
TORSDOF 4
ENDMDL
MODEL 10
REMARK VINA RESULT:      -8.2      6.459      8.699
REMARK  4 active torsions:
REMARK  status: ('A' for Active; 'I' for Inactive)
REMARK    1  A    between atoms: C_3  and  C_4 
REMARK    2  A    between atoms: C_5  and  C_6 
REMARK       I    between atoms: C_6  and  N_7 
REMARK    3  A    between atoms: N_7  and  C_8 
REMARK    4  A    between atoms: C_15  and  C_16 
REMARK       I    between atoms: C_16  and  N_17 
ROOT
HETATM    1  C   UNL     1      44.142 -14.135   6.809  1.00  0.00     0.035 A 
HETATM    2  C   UNL     1      43.097 -13.987   5.886  1.00  0.00     0.046 A 
HETATM    3  C   UNL     1      42.575 -15.127   5.235  1.00  0.00     0.030 A 
HETATM    4  C   UNL     1      43.102 -16.375   5.544  1.00  0.00     0.063 A 
HETATM    5  N   UNL     1      42.407 -17.264   4.773  1.00  0.00    -0.277 N 
HETATM    6  H   UNL     1      42.522 -18.271   4.741  1.00  0.00     0.189 HD
HETATM    7  N   UNL     1      41.486 -16.705   3.972  1.00  0.00    -0.168 NA
HETATM    8  C   UNL     1      41.579 -15.383   4.244  1.00  0.00     0.156 A 
HETATM    9  C   UNL     1      44.133 -16.562   6.466  1.00  0.00     0.034 A 
HETATM   10  C   UNL     1      44.646 -15.414   7.084  1.00  0.00     0.032 A 
ENDROOT
BRANCH   1  11
HETATM   11  N   UNL     1      44.761 -13.054   7.474  1.00  0.00    -0.327 N 
HETATM   12  C   UNL     1      44.781 -12.801   8.828  1.00  0.00     0.227 C 
HETATM   13  O   UNL     1      44.325 -13.506   9.716  1.00  0.00    -0.273 OA
HETATM   14  H   UNL     1      45.241 -12.392   6.885  1.00  0.00     0.169 HD
BRANCH  12  15
HETATM   15  C   UNL     1      45.381 -11.494   9.222  1.00  0.00     0.087 A 
HETATM   16  C   UNL     1      44.634 -10.455  10.043  1.00  0.00     0.034 A 
HETATM   17  C   UNL     1      45.867 -11.140  10.596  1.00  0.00     0.025 A 
BRANCH  16  18
HETATM   18  C   UNL     1      43.300 -10.688  10.733  1.00  0.00    -0.031 A 
HETATM   19  C   UNL     1      43.240 -10.990  12.107  1.00  0.00     0.009 A 
HETATM   20  C   UNL     1      42.028 -11.229  12.762  1.00  0.00     0.001 A 
HETATM   21  C   UNL     1      40.832 -11.195  12.054  1.00  0.00     0.002 A 
HETATM   22  C   UNL     1      40.853 -10.934  10.688  1.00  0.00     0.024 A 
HETATM   23  C   UNL     1      42.069 -10.693  10.037  1.00  0.00     0.040 A 
HETATM   24 CL   UNL     1      42.004 -10.433   8.325  1.00  0.00    -0.084 Cl
ENDBRANCH  16  18
ENDBRANCH  12  15
ENDBRANCH   1  11
BRANCH   8  25
HETATM   25  C   UNL     1      40.731 -14.404   3.550  1.00  0.00     0.270 C 
HETATM   26  N   UNL     1      39.497 -14.882   3.202  1.00  0.00    -0.365 N 
HETATM   27  H   UNL     1      39.269 -15.844   3.426  1.00  0.00     0.159 HD
HETATM   28  H   UNL     1      38.855 -14.289   2.701  1.00  0.00     0.159 HD
HETATM   29  O   UNL     1      41.065 -13.256   3.278  1.00  0.00    -0.266 OA
ENDBRANCH   8  25
TORSDOF 4
ENDMDL
