MODEL 1
REMARK VINA RESULT:      -9.4      0.000      0.000
REMARK  9 active torsions:
REMARK  status: ('A' for Active; 'I' for Inactive)
REMARK    1  A    between atoms: O_2  and  C_3 
REMARK    2  A    between atoms: C_4  and  O_5 
REMARK    3  A    between atoms: C_8  and  C_9 
REMARK    4  A    between atoms: C_9  and  N_10 
REMARK    5  A    between atoms: C_14  and  O_15 
REMARK    6  A    between atoms: C_14  and  C_16 
REMARK    7  A    between atoms: C_21  and  C_22 
REMARK       I    between atoms: C_22  and  N_23 
REMARK    8  A    between atoms: N_23  and  C_24 
REMARK    9  A    between atoms: C_24  and  C_25 
ROOT
HETATM    1  N   UNL     1      42.197 -15.972   1.975  1.00  0.00    -0.067 N 
HETATM    2  H   UNL     1      42.264 -16.631   1.190  1.00  0.00     0.280 HD
HETATM    3  C   UNL     1      40.964 -16.357   2.763  1.00  0.00     0.238 C 
HETATM    4  C   UNL     1      39.716 -16.134   1.922  1.00  0.00     0.071 C 
HETATM    5  C   UNL     1      39.585 -14.668   1.467  1.00  0.00     0.088 C 
HETATM    6  C   UNL     1      40.839 -14.387   0.613  1.00  0.00     0.071 C 
HETATM    7  C   UNL     1      42.121 -14.574   1.405  1.00  0.00     0.238 C 
ENDROOT
BRANCH   5   8
HETATM    8  O   UNL     1      38.466 -14.608   0.582  1.00  0.00    -0.385 OA
HETATM    9  H   UNL     1      38.715 -14.132  -0.232  1.00  0.00     0.211 HD
ENDBRANCH   5   8
BRANCH   5  10
HETATM   10  C   UNL     1      39.349 -13.667   2.609  1.00  0.00    -0.023 A 
HETATM   11  C   UNL     1      39.662 -14.004   3.948  1.00  0.00     0.024 A 
HETATM   12  C   UNL     1      39.540 -13.042   4.969  1.00  0.00     0.001 A 
HETATM   13  C   UNL     1      39.050 -11.788   4.644  1.00  0.00     0.086 A 
HETATM   14  C   UNL     1      39.813 -13.003   6.359  1.00  0.00     0.057 A 
HETATM   15  O   UNL     1      39.037 -10.983   5.738  1.00  0.00    -0.304 OA
HETATM   16  C   UNL     1      38.635 -11.430   3.368  1.00  0.00     0.039 A 
HETATM   17  C   UNL     1      39.517 -11.722   6.790  1.00  0.00     0.144 A 
HETATM   18  C   UNL     1      38.785 -12.398   2.362  1.00  0.00     0.013 A 
BRANCH  17  19
HETATM   19  C   UNL     1      39.669 -11.107   8.092  1.00  0.00     0.275 C 
HETATM   20  N   UNL     1      40.958 -11.113   8.566  1.00  0.00    -0.353 N 
HETATM   21  H   UNL     1      41.660 -11.604   8.023  1.00  0.00     0.162 HD
HETATM   22  O   UNL     1      38.724 -10.657   8.732  1.00  0.00    -0.265 OA
BRANCH  20  23
HETATM   23  C   UNL     1      41.321 -10.703   9.908  1.00  0.00     0.155 C 
BRANCH  23  24
HETATM   24  C   UNL     1      42.818 -10.388  10.058  1.00  0.00     0.139 C 
HETATM   25  O   UNL     1      43.520 -10.830   8.874  1.00  0.00    -0.384 OA
HETATM   26  C   UNL     1      44.665 -11.583   9.290  1.00  0.00     0.168 C 
HETATM   27  C   UNL     1      44.314 -12.154  10.644  1.00  0.00     0.029 C 
HETATM   28  C   UNL     1      43.503 -11.039  11.255  1.00  0.00     0.035 C 
ENDBRANCH  23  24
ENDBRANCH  20  23
ENDBRANCH  17  19
ENDBRANCH   5  10
BRANCH   1  29
HETATM   29  C   UNL     1      43.484 -16.135   2.774  1.00  0.00     0.273 C 
BRANCH  29  30
HETATM   30  C   UNL     1      43.784 -17.551   3.184  1.00  0.00    -0.030 A 
HETATM   31  C   UNL     1      43.914 -17.903   4.540  1.00  0.00     0.048 A 
HETATM   32  C   UNL     1      44.254 -19.212   4.928  1.00  0.00     0.102 A 
HETATM   33  C   UNL     1      44.454 -20.185   3.933  1.00  0.00     0.101 A 
HETATM   34  C   UNL     1      44.311 -19.830   2.585  1.00  0.00     0.040 A 
HETATM   35  C   UNL     1      43.980 -18.531   2.209  1.00  0.00     0.012 A 
BRANCH  32  36
HETATM   36  O   UNL     1      44.420 -19.581   6.233  1.00  0.00    -0.353 OA
HETATM   37  C   UNL     1      44.049 -18.678   7.265  1.00  0.00     0.210 C 
ENDBRANCH  32  36
BRANCH  33  38
HETATM   38  O   UNL     1      44.801 -21.502   4.074  1.00  0.00    -0.353 OA
HETATM   39  C   UNL     1      44.503 -22.418   3.032  1.00  0.00     0.210 C 
ENDBRANCH  33  38
ENDBRANCH  29  30
ENDBRANCH   1  29
TORSDOF 9
ENDMDL
MODEL 2
REMARK VINA RESULT:      -9.3      1.414      1.661
REMARK  9 active torsions:
REMARK  status: ('A' for Active; 'I' for Inactive)
REMARK    1  A    between atoms: O_2  and  C_3 
REMARK    2  A    between atoms: C_4  and  O_5 
REMARK    3  A    between atoms: C_8  and  C_9 
REMARK    4  A    between atoms: C_9  and  N_10 
REMARK    5  A    between atoms: C_14  and  O_15 
REMARK    6  A    between atoms: C_14  and  C_16 
REMARK    7  A    between atoms: C_21  and  C_22 
REMARK       I    between atoms: C_22  and  N_23 
REMARK    8  A    between atoms: N_23  and  C_24 
REMARK    9  A    between atoms: C_24  and  C_25 
ROOT
HETATM    1  N   UNL     1      42.165 -16.714   1.450  1.00  0.00    -0.067 N 
HETATM    2  H   UNL     1      41.827 -17.503   0.885  1.00  0.00     0.280 HD
HETATM    3  C   UNL     1      41.333 -16.696   2.713  1.00  0.00     0.238 C 
HETATM    4  C   UNL     1      39.882 -16.381   2.379  1.00  0.00     0.071 C 
HETATM    5  C   UNL     1      39.740 -15.024   1.662  1.00  0.00     0.088 C 
HETATM    6  C   UNL     1      40.552 -15.159   0.357  1.00  0.00     0.071 C 
HETATM    7  C   UNL     1      42.017 -15.455   0.627  1.00  0.00     0.238 C 
ENDROOT
BRANCH   5   8
HETATM    8  O   UNL     1      38.370 -14.901   1.280  1.00  0.00    -0.385 OA
HETATM    9  H   UNL     1      38.127 -15.633   0.683  1.00  0.00     0.211 HD
ENDBRANCH   5   8
BRANCH   5  10
HETATM   10  C   UNL     1      40.110 -13.808   2.526  1.00  0.00    -0.023 A 
HETATM   11  C   UNL     1      40.008 -13.860   3.937  1.00  0.00     0.024 A 
HETATM   12  C   UNL     1      40.449 -12.777   4.720  1.00  0.00     0.001 A 
HETATM   13  C   UNL     1      40.924 -11.644   4.080  1.00  0.00     0.086 A 
HETATM   14  C   UNL     1      40.556 -12.510   6.108  1.00  0.00     0.057 A 
HETATM   15  O   UNL     1      41.340 -10.722   4.987  1.00  0.00    -0.304 OA
HETATM   16  C   UNL     1      40.958 -11.497   2.699  1.00  0.00     0.039 A 
HETATM   17  C   UNL     1      41.127 -11.256   6.233  1.00  0.00     0.144 A 
HETATM   18  C   UNL     1      40.532 -12.597   1.938  1.00  0.00     0.013 A 
BRANCH  17  19
HETATM   19  C   UNL     1      41.524 -10.515   7.411  1.00  0.00     0.275 C 
HETATM   20  N   UNL     1      41.172 -11.116   8.595  1.00  0.00    -0.353 N 
HETATM   21  H   UNL     1      40.609 -11.958   8.549  1.00  0.00     0.162 HD
HETATM   22  O   UNL     1      42.089  -9.427   7.357  1.00  0.00    -0.265 OA
BRANCH  20  23
HETATM   23  C   UNL     1      41.320 -10.483   9.891  1.00  0.00     0.155 C 
BRANCH  23  24
HETATM   24  C   UNL     1      42.409 -11.135  10.759  1.00  0.00     0.139 C 
HETATM   25  O   UNL     1      41.869 -11.414  12.072  1.00  0.00    -0.384 OA
HETATM   26  C   UNL     1      42.797 -10.928  13.047  1.00  0.00     0.168 C 
HETATM   27  C   UNL     1      43.546  -9.799  12.378  1.00  0.00     0.029 C 
HETATM   28  C   UNL     1      43.668 -10.299  10.960  1.00  0.00     0.035 C 
ENDBRANCH  23  24
ENDBRANCH  20  23
ENDBRANCH  17  19
ENDBRANCH   5  10
BRANCH   1  29
HETATM   29  C   UNL     1      43.639 -16.987   1.717  1.00  0.00     0.273 C 
BRANCH  29  30
HETATM   30  C   UNL     1      43.901 -18.196   2.574  1.00  0.00    -0.030 A 
HETATM   31  C   UNL     1      44.091 -18.075   3.962  1.00  0.00     0.048 A 
HETATM   32  C   UNL     1      44.397 -19.193   4.760  1.00  0.00     0.102 A 
HETATM   33  C   UNL     1      44.500 -20.456   4.150  1.00  0.00     0.101 A 
HETATM   34  C   UNL     1      44.298 -20.570   2.768  1.00  0.00     0.040 A 
HETATM   35  C   UNL     1      44.001 -19.458   1.984  1.00  0.00     0.012 A 
BRANCH  32  36
HETATM   36  O   UNL     1      44.620 -19.108   6.105  1.00  0.00    -0.353 OA
HETATM   37  C   UNL     1      45.312 -17.982   6.627  1.00  0.00     0.210 C 
ENDBRANCH  32  36
BRANCH  33  38
HETATM   38  O   UNL     1      44.798 -21.664   4.718  1.00  0.00    -0.353 OA
HETATM   39  C   UNL     1      44.681 -22.848   3.943  1.00  0.00     0.210 C 
ENDBRANCH  33  38
ENDBRANCH  29  30
ENDBRANCH   1  29
TORSDOF 9
ENDMDL
MODEL 3
REMARK VINA RESULT:      -9.2      1.045      1.911
REMARK  9 active torsions:
REMARK  status: ('A' for Active; 'I' for Inactive)
REMARK    1  A    between atoms: O_2  and  C_3 
REMARK    2  A    between atoms: C_4  and  O_5 
REMARK    3  A    between atoms: C_8  and  C_9 
REMARK    4  A    between atoms: C_9  and  N_10 
REMARK    5  A    between atoms: C_14  and  O_15 
REMARK    6  A    between atoms: C_14  and  C_16 
REMARK    7  A    between atoms: C_21  and  C_22 
REMARK       I    between atoms: C_22  and  N_23 
REMARK    8  A    between atoms: N_23  and  C_24 
REMARK    9  A    between atoms: C_24  and  C_25 
ROOT
HETATM    1  N   UNL     1      42.271 -16.647   1.430  1.00  0.00    -0.067 N 
HETATM    2  H   UNL     1      42.005 -17.376   0.756  1.00  0.00     0.280 HD
HETATM    3  C   UNL     1      41.371 -16.818   2.634  1.00  0.00     0.238 C 
HETATM    4  C   UNL     1      39.926 -16.531   2.252  1.00  0.00     0.071 C 
HETATM    5  C   UNL     1      39.753 -15.105   1.693  1.00  0.00     0.088 C 
HETATM    6  C   UNL     1      40.641 -15.046   0.433  1.00  0.00     0.071 C 
HETATM    7  C   UNL     1      42.102 -15.306   0.753  1.00  0.00     0.238 C 
ENDROOT
BRANCH   5   8
HETATM    8  O   UNL     1      38.401 -14.999   1.246  1.00  0.00    -0.385 OA
HETATM    9  H   UNL     1      38.385 -14.727   0.309  1.00  0.00     0.211 HD
ENDBRANCH   5   8
BRANCH   5  10
HETATM   10  C   UNL     1      40.011 -13.987   2.714  1.00  0.00    -0.023 A 
HETATM   11  C   UNL     1      39.476 -14.059   4.022  1.00  0.00     0.024 A 
HETATM   12  C   UNL     1      39.807 -13.081   4.980  1.00  0.00     0.001 A 
HETATM   13  C   UNL     1      40.613 -12.022   4.594  1.00  0.00     0.086 A 
HETATM   14  C   UNL     1      39.521 -12.871   6.352  1.00  0.00     0.057 A 
HETATM   15  O   UNL     1      40.859 -11.202   5.650  1.00  0.00    -0.304 OA
HETATM   16  C   UNL     1      41.088 -11.846   3.302  1.00  0.00     0.039 A 
HETATM   17  C   UNL     1      40.201 -11.728   6.732  1.00  0.00     0.144 A 
HETATM   18  C   UNL     1      40.762 -12.843   2.370  1.00  0.00     0.013 A 
BRANCH  17  19
HETATM   19  C   UNL     1      40.321 -11.090   8.027  1.00  0.00     0.275 C 
HETATM   20  N   UNL     1      41.605 -11.051   8.514  1.00  0.00    -0.353 N 
HETATM   21  H   UNL     1      42.327 -11.529   7.985  1.00  0.00     0.162 HD
HETATM   22  O   UNL     1      39.357 -10.659   8.652  1.00  0.00    -0.265 OA
BRANCH  20  23
HETATM   23  C   UNL     1      41.941 -10.611   9.854  1.00  0.00     0.155 C 
BRANCH  23  24
HETATM   24  C   UNL     1      43.446 -10.360  10.045  1.00  0.00     0.139 C 
HETATM   25  O   UNL     1      44.173 -10.945   8.940  1.00  0.00    -0.384 OA
HETATM   26  C   UNL     1      45.256 -11.712   9.476  1.00  0.00     0.168 C 
HETATM   27  C   UNL     1      44.818 -12.137  10.858  1.00  0.00     0.029 C 
HETATM   28  C   UNL     1      44.043 -10.931  11.327  1.00  0.00     0.035 C 
ENDBRANCH  23  24
ENDBRANCH  20  23
ENDBRANCH  17  19
ENDBRANCH   5  10
BRANCH   1  29
HETATM   29  C   UNL     1      43.740 -16.883   1.751  1.00  0.00     0.273 C 
BRANCH  29  30
HETATM   30  C   UNL     1      43.989 -17.999   2.729  1.00  0.00    -0.030 A 
HETATM   31  C   UNL     1      44.129 -19.329   2.294  1.00  0.00     0.048 A 
HETATM   32  C   UNL     1      44.302 -20.385   3.207  1.00  0.00     0.102 A 
HETATM   33  C   UNL     1      44.346 -20.094   4.583  1.00  0.00     0.101 A 
HETATM   34  C   UNL     1      44.217 -18.765   5.008  1.00  0.00     0.040 A 
HETATM   35  C   UNL     1      44.042 -17.726   4.098  1.00  0.00     0.012 A 
BRANCH  32  36
HETATM   36  O   UNL     1      44.409 -21.692   2.823  1.00  0.00    -0.353 OA
HETATM   37  C   UNL     1      44.124 -22.047   1.477  1.00  0.00     0.210 C 
ENDBRANCH  32  36
BRANCH  33  38
HETATM   38  O   UNL     1      44.489 -20.951   5.640  1.00  0.00    -0.353 OA
HETATM   39  C   UNL     1      43.728 -20.738   6.818  1.00  0.00     0.210 C 
ENDBRANCH  33  38
ENDBRANCH  29  30
ENDBRANCH   1  29
TORSDOF 9
ENDMDL
MODEL 4
REMARK VINA RESULT:      -9.0      1.923      2.438
REMARK  9 active torsions:
REMARK  status: ('A' for Active; 'I' for Inactive)
REMARK    1  A    between atoms: O_2  and  C_3 
REMARK    2  A    between atoms: C_4  and  O_5 
REMARK    3  A    between atoms: C_8  and  C_9 
REMARK    4  A    between atoms: C_9  and  N_10 
REMARK    5  A    between atoms: C_14  and  O_15 
REMARK    6  A    between atoms: C_14  and  C_16 
REMARK    7  A    between atoms: C_21  and  C_22 
REMARK       I    between atoms: C_22  and  N_23 
REMARK    8  A    between atoms: N_23  and  C_24 
REMARK    9  A    between atoms: C_24  and  C_25 
ROOT
HETATM    1  N   UNL     1      42.290 -15.501   3.514  1.00  0.00    -0.067 N 
HETATM    2  H   UNL     1      42.161 -16.075   2.671  1.00  0.00     0.280 HD
HETATM    3  C   UNL     1      40.982 -15.541   4.272  1.00  0.00     0.238 C 
HETATM    4  C   UNL     1      39.889 -14.858   3.463  1.00  0.00     0.071 C 
HETATM    5  C   UNL     1      40.241 -13.393   3.144  1.00  0.00     0.088 C 
HETATM    6  C   UNL     1      41.538 -13.452   2.310  1.00  0.00     0.071 C 
HETATM    7  C   UNL     1      42.676 -14.108   3.073  1.00  0.00     0.238 C 
ENDROOT
BRANCH   5   8
HETATM    8  O   UNL     1      39.219 -12.902   2.275  1.00  0.00    -0.385 OA
HETATM    9  H   UNL     1      38.655 -12.268   2.756  1.00  0.00     0.211 HD
ENDBRANCH   5   8
BRANCH   5  10
HETATM   10  C   UNL     1      40.310 -12.474   4.373  1.00  0.00    -0.023 A 
HETATM   11  C   UNL     1      39.603 -12.790   5.558  1.00  0.00     0.024 A 
HETATM   12  C   UNL     1      39.759 -11.996   6.711  1.00  0.00     0.001 A 
HETATM   13  C   UNL     1      40.564 -10.872   6.638  1.00  0.00     0.086 A 
HETATM   14  C   UNL     1      39.278 -12.043   8.043  1.00  0.00     0.057 A 
HETATM   15  O   UNL     1      40.629 -10.252   7.846  1.00  0.00    -0.304 OA
HETATM   16  C   UNL     1      41.205 -10.456   5.478  1.00  0.00     0.039 A 
HETATM   17  C   UNL     1      39.850 -10.976   8.713  1.00  0.00     0.144 A 
HETATM   18  C   UNL     1      41.052 -11.274   4.348  1.00  0.00     0.013 A 
BRANCH  17  19
HETATM   19  C   UNL     1      39.765 -10.582  10.104  1.00  0.00     0.275 C 
HETATM   20  N   UNL     1      40.304 -11.495  10.978  1.00  0.00    -0.353 N 
HETATM   21  H   UNL     1      40.631 -12.377  10.599  1.00  0.00     0.162 HD
HETATM   22  O   UNL     1      39.223  -9.545  10.472  1.00  0.00    -0.265 OA
BRANCH  20  23
HETATM   23  C   UNL     1      40.186 -11.390  12.419  1.00  0.00     0.155 C 
BRANCH  23  24
HETATM   24  C   UNL     1      41.546 -11.402  13.137  1.00  0.00     0.139 C 
HETATM   25  O   UNL     1      41.558 -10.374  14.154  1.00  0.00    -0.384 OA
HETATM   26  C   UNL     1      42.771  -9.625  14.015  1.00  0.00     0.168 C 
HETATM   27  C   UNL     1      43.167  -9.746  12.562  1.00  0.00     0.029 C 
HETATM   28  C   UNL     1      42.756 -11.162  12.241  1.00  0.00     0.035 C 
ENDBRANCH  23  24
ENDBRANCH  20  23
ENDBRANCH  17  19
ENDBRANCH   5  10
BRANCH   1  29
HETATM   29  C   UNL     1      43.440 -16.136   4.286  1.00  0.00     0.273 C 
BRANCH  29  30
HETATM   30  C   UNL     1      43.695 -17.578   3.944  1.00  0.00    -0.030 A 
HETATM   31  C   UNL     1      43.980 -18.524   4.945  1.00  0.00     0.048 A 
HETATM   32  C   UNL     1      44.279 -19.861   4.627  1.00  0.00     0.102 A 
HETATM   33  C   UNL     1      44.278 -20.255   3.277  1.00  0.00     0.101 A 
HETATM   34  C   UNL     1      43.982 -19.310   2.286  1.00  0.00     0.040 A 
HETATM   35  C   UNL     1      43.692 -17.987   2.608  1.00  0.00     0.012 A 
BRANCH  32  36
HETATM   36  O   UNL     1      44.593 -20.798   5.571  1.00  0.00    -0.353 OA
HETATM   37  C   UNL     1      43.846 -20.847   6.778  1.00  0.00     0.210 C 
ENDBRANCH  32  36
BRANCH  33  38
HETATM   38  O   UNL     1      44.551 -21.484   2.739  1.00  0.00    -0.353 OA
HETATM   39  C   UNL     1      43.925 -21.868   1.525  1.00  0.00     0.210 C 
ENDBRANCH  33  38
ENDBRANCH  29  30
ENDBRANCH   1  29
TORSDOF 9
ENDMDL
MODEL 5
REMARK VINA RESULT:      -8.9      3.202      8.791
REMARK  9 active torsions:
REMARK  status: ('A' for Active; 'I' for Inactive)
REMARK    1  A    between atoms: O_2  and  C_3 
REMARK    2  A    between atoms: C_4  and  O_5 
REMARK    3  A    between atoms: C_8  and  C_9 
REMARK    4  A    between atoms: C_9  and  N_10 
REMARK    5  A    between atoms: C_14  and  O_15 
REMARK    6  A    between atoms: C_14  and  C_16 
REMARK    7  A    between atoms: C_21  and  C_22 
REMARK       I    between atoms: C_22  and  N_23 
REMARK    8  A    between atoms: N_23  and  C_24 
REMARK    9  A    between atoms: C_24  and  C_25 
ROOT
HETATM    1  N   UNL     1      44.222 -18.642   7.348  1.00  0.00    -0.067 N 
HETATM    2  H   UNL     1      44.765 -19.204   8.015  1.00  0.00     0.280 HD
HETATM    3  C   UNL     1      43.167 -19.558   6.766  1.00  0.00     0.238 C 
HETATM    4  C   UNL     1      43.825 -20.659   5.948  1.00  0.00     0.071 C 
HETATM    5  C   UNL     1      44.684 -20.089   4.803  1.00  0.00     0.088 C 
HETATM    6  C   UNL     1      45.772 -19.236   5.488  1.00  0.00     0.071 C 
HETATM    7  C   UNL     1      45.176 -18.104   6.307  1.00  0.00     0.238 C 
ENDROOT
BRANCH   5   8
HETATM    8  O   UNL     1      45.354 -21.196   4.198  1.00  0.00    -0.385 OA
HETATM    9  H   UNL     1      45.503 -21.894   4.863  1.00  0.00     0.211 HD
ENDBRANCH   5   8
BRANCH   5  10
HETATM   10  C   UNL     1      43.885 -19.357   3.714  1.00  0.00    -0.023 A 
HETATM   11  C   UNL     1      42.751 -18.577   4.044  1.00  0.00     0.024 A 
HETATM   12  C   UNL     1      42.091 -17.827   3.052  1.00  0.00     0.001 A 
HETATM   13  C   UNL     1      42.538 -17.921   1.744  1.00  0.00     0.086 A 
HETATM   14  C   UNL     1      41.004 -16.918   3.026  1.00  0.00     0.057 A 
HETATM   15  O   UNL     1      41.813 -17.105   0.934  1.00  0.00    -0.304 OA
HETATM   16  C   UNL     1      43.583 -18.743   1.343  1.00  0.00     0.039 A 
HETATM   17  C   UNL     1      40.880 -16.479   1.721  1.00  0.00     0.144 A 
HETATM   18  C   UNL     1      44.238 -19.465   2.352  1.00  0.00     0.013 A 
BRANCH  17  19
HETATM   19  C   UNL     1      39.986 -15.501   1.137  1.00  0.00     0.275 C 
HETATM   20  N   UNL     1      40.274 -15.191  -0.171  1.00  0.00    -0.353 N 
HETATM   21  H   UNL     1      41.108 -15.597  -0.581  1.00  0.00     0.162 HD
HETATM   22  O   UNL     1      39.079 -14.965   1.765  1.00  0.00    -0.265 OA
BRANCH  20  23
HETATM   23  C   UNL     1      39.620 -14.125  -0.905  1.00  0.00     0.155 C 
BRANCH  23  24
HETATM   24  C   UNL     1      39.821 -14.229  -2.425  1.00  0.00     0.139 C 
HETATM   25  O   UNL     1      38.542 -14.449  -3.062  1.00  0.00    -0.384 OA
HETATM   26  C   UNL     1      38.683 -15.536  -3.982  1.00  0.00     0.168 C 
HETATM   27  C   UNL     1      39.810 -16.388  -3.445  1.00  0.00     0.029 C 
HETATM   28  C   UNL     1      40.748 -15.349  -2.884  1.00  0.00     0.035 C 
ENDBRANCH  23  24
ENDBRANCH  20  23
ENDBRANCH  17  19
ENDBRANCH   5  10
BRANCH   1  29
HETATM   29  C   UNL     1      43.628 -17.491   8.149  1.00  0.00     0.273 C 
BRANCH  29  30
HETATM   30  C   UNL     1      43.423 -16.227   7.360  1.00  0.00    -0.030 A 
HETATM   31  C   UNL     1      44.335 -15.160   7.446  1.00  0.00     0.048 A 
HETATM   32  C   UNL     1      44.117 -13.952   6.759  1.00  0.00     0.102 A 
HETATM   33  C   UNL     1      42.966 -13.822   5.960  1.00  0.00     0.101 A 
HETATM   34  C   UNL     1      42.068 -14.894   5.870  1.00  0.00     0.040 A 
HETATM   35  C   UNL     1      42.288 -16.084   6.558  1.00  0.00     0.012 A 
BRANCH  32  36
HETATM   36  O   UNL     1      44.965 -12.884   6.845  1.00  0.00    -0.353 OA
HETATM   37  C   UNL     1      45.788 -12.739   7.993  1.00  0.00     0.210 C 
ENDBRANCH  32  36
BRANCH  33  38
HETATM   38  O   UNL     1      42.547 -12.748   5.223  1.00  0.00    -0.353 OA
HETATM   39  C   UNL     1      42.273 -12.916   3.841  1.00  0.00     0.210 C 
ENDBRANCH  33  38
ENDBRANCH  29  30
ENDBRANCH   1  29
TORSDOF 9
ENDMDL
MODEL 6
REMARK VINA RESULT:      -8.9      2.085      2.952
REMARK  9 active torsions:
REMARK  status: ('A' for Active; 'I' for Inactive)
REMARK    1  A    between atoms: O_2  and  C_3 
REMARK    2  A    between atoms: C_4  and  O_5 
REMARK    3  A    between atoms: C_8  and  C_9 
REMARK    4  A    between atoms: C_9  and  N_10 
REMARK    5  A    between atoms: C_14  and  O_15 
REMARK    6  A    between atoms: C_14  and  C_16 
REMARK    7  A    between atoms: C_21  and  C_22 
REMARK       I    between atoms: C_22  and  N_23 
REMARK    8  A    between atoms: N_23  and  C_24 
REMARK    9  A    between atoms: C_24  and  C_25 
ROOT
HETATM    1  N   UNL     1      41.625 -15.816   2.661  1.00  0.00    -0.067 N 
HETATM    2  H   UNL     1      42.115 -16.103   1.804  1.00  0.00     0.280 HD
HETATM    3  C   UNL     1      40.443 -14.978   2.226  1.00  0.00     0.238 C 
HETATM    4  C   UNL     1      40.926 -13.694   1.569  1.00  0.00     0.071 C 
HETATM    5  C   UNL     1      41.812 -12.862   2.517  1.00  0.00     0.088 C 
HETATM    6  C   UNL     1      43.022 -13.760   2.845  1.00  0.00     0.071 C 
HETATM    7  C   UNL     1      42.605 -15.053   3.523  1.00  0.00     0.238 C 
ENDROOT
BRANCH   5   8
HETATM    8  O   UNL     1      42.313 -11.763   1.755  1.00  0.00    -0.385 OA
HETATM    9  H   UNL     1      42.179 -10.932   2.249  1.00  0.00     0.211 HD
ENDBRANCH   5   8
BRANCH   5  10
HETATM   10  C   UNL     1      41.077 -12.301   3.744  1.00  0.00    -0.023 A 
HETATM   11  C   UNL     1      41.759 -12.087   4.965  1.00  0.00     0.024 A 
HETATM   12  C   UNL     1      41.100 -11.475   6.049  1.00  0.00     0.001 A 
HETATM   13  C   UNL     1      39.761 -11.148   5.912  1.00  0.00     0.086 A 
HETATM   14  C   UNL     1      41.468 -11.061   7.353  1.00  0.00     0.057 A 
HETATM   15  O   UNL     1      39.302 -10.535   7.035  1.00  0.00    -0.304 OA
HETATM   16  C   UNL     1      39.014 -11.422   4.774  1.00  0.00     0.039 A 
HETATM   17  C   UNL     1      40.352 -10.469   7.916  1.00  0.00     0.144 A 
HETATM   18  C   UNL     1      39.696 -12.013   3.700  1.00  0.00     0.013 A 
BRANCH  17  19
HETATM   19  C   UNL     1      40.176  -9.814   9.195  1.00  0.00     0.275 C 
HETATM   20  N   UNL     1      41.354  -9.454   9.805  1.00  0.00    -0.353 N 
HETATM   21  H   UNL     1      42.222  -9.739   9.365  1.00  0.00     0.162 HD
HETATM   22  O   UNL     1      39.077  -9.634   9.709  1.00  0.00    -0.265 OA
BRANCH  20  23
HETATM   23  C   UNL     1      41.431  -8.936  11.157  1.00  0.00     0.155 C 
BRANCH  23  24
HETATM   24  C   UNL     1      41.883  -9.990  12.181  1.00  0.00     0.139 C 
HETATM   25  O   UNL     1      41.041  -9.910  13.354  1.00  0.00    -0.384 OA
HETATM   26  C   UNL     1      41.887  -9.887  14.508  1.00  0.00     0.168 C 
HETATM   27  C   UNL     1      43.199  -9.295  14.048  1.00  0.00     0.029 C 
HETATM   28  C   UNL     1      43.326  -9.860  12.655  1.00  0.00     0.035 C 
ENDBRANCH  23  24
ENDBRANCH  20  23
ENDBRANCH  17  19
ENDBRANCH   5  10
BRANCH   1  29
HETATM   29  C   UNL     1      41.212 -17.103   3.363  1.00  0.00     0.273 C 
BRANCH  29  30
HETATM   30  C   UNL     1      42.346 -18.053   3.634  1.00  0.00    -0.030 A 
HETATM   31  C   UNL     1      42.896 -18.841   2.608  1.00  0.00     0.048 A 
HETATM   32  C   UNL     1      43.915 -19.776   2.867  1.00  0.00     0.102 A 
HETATM   33  C   UNL     1      44.396 -19.909   4.182  1.00  0.00     0.101 A 
HETATM   34  C   UNL     1      43.851 -19.112   5.197  1.00  0.00     0.040 A 
HETATM   35  C   UNL     1      42.839 -18.194   4.934  1.00  0.00     0.012 A 
BRANCH  32  36
HETATM   36  O   UNL     1      44.450 -20.581   1.901  1.00  0.00    -0.353 OA
HETATM   37  C   UNL     1      43.875 -21.857   1.662  1.00  0.00     0.210 C 
ENDBRANCH  32  36
BRANCH  33  38
HETATM   38  O   UNL     1      45.360 -20.753   4.664  1.00  0.00    -0.353 OA
HETATM   39  C   UNL     1      44.988 -22.032   5.152  1.00  0.00     0.210 C 
ENDBRANCH  33  38
ENDBRANCH  29  30
ENDBRANCH   1  29
TORSDOF 9
ENDMDL
MODEL 7
REMARK VINA RESULT:      -8.8      1.382      1.938
REMARK  9 active torsions:
REMARK  status: ('A' for Active; 'I' for Inactive)
REMARK    1  A    between atoms: O_2  and  C_3 
REMARK    2  A    between atoms: C_4  and  O_5 
REMARK    3  A    between atoms: C_8  and  C_9 
REMARK    4  A    between atoms: C_9  and  N_10 
REMARK    5  A    between atoms: C_14  and  O_15 
REMARK    6  A    between atoms: C_14  and  C_16 
REMARK    7  A    between atoms: C_21  and  C_22 
REMARK       I    between atoms: C_22  and  N_23 
REMARK    8  A    between atoms: N_23  and  C_24 
REMARK    9  A    between atoms: C_24  and  C_25 
ROOT
HETATM    1  N   UNL     1      42.466 -17.269   1.459  1.00  0.00    -0.067 N 
HETATM    2  H   UNL     1      42.181 -17.908   0.708  1.00  0.00     0.280 HD
HETATM    3  C   UNL     1      41.381 -17.324   2.513  1.00  0.00     0.238 C 
HETATM    4  C   UNL     1      40.082 -16.762   1.955  1.00  0.00     0.071 C 
HETATM    5  C   UNL     1      40.244 -15.307   1.476  1.00  0.00     0.088 C 
HETATM    6  C   UNL     1      41.307 -15.357   0.358  1.00  0.00     0.071 C 
HETATM    7  C   UNL     1      42.636 -15.892   0.859  1.00  0.00     0.238 C 
ENDROOT
BRANCH   5   8
HETATM    8  O   UNL     1      39.014 -14.937   0.854  1.00  0.00    -0.385 OA
HETATM    9  H   UNL     1      38.561 -15.734   0.519  1.00  0.00     0.211 HD
ENDBRANCH   5   8
BRANCH   5  10
HETATM   10  C   UNL     1      40.539 -14.299   2.597  1.00  0.00    -0.023 A 
HETATM   11  C   UNL     1      39.591 -14.049   3.618  1.00  0.00     0.024 A 
HETATM   12  C   UNL     1      39.915 -13.203   4.696  1.00  0.00     0.001 A 
HETATM   13  C   UNL     1      41.151 -12.577   4.700  1.00  0.00     0.086 A 
HETATM   14  C   UNL     1      39.266 -12.786   5.885  1.00  0.00     0.057 A 
HETATM   15  O   UNL     1      41.306 -11.835   5.828  1.00  0.00    -0.304 OA
HETATM   16  C   UNL     1      42.084 -12.707   3.679  1.00  0.00     0.039 A 
HETATM   17  C   UNL     1      40.156 -11.972   6.563  1.00  0.00     0.144 A 
HETATM   18  C   UNL     1      41.747 -13.571   2.626  1.00  0.00     0.013 A 
BRANCH  17  19
HETATM   19  C   UNL     1      40.047 -11.328   7.855  1.00  0.00     0.275 C 
HETATM   20  N   UNL     1      41.255 -11.093   8.466  1.00  0.00    -0.353 N 
HETATM   21  H   UNL     1      42.090 -11.451   8.016  1.00  0.00     0.162 HD
HETATM   22  O   UNL     1      38.971 -11.054   8.377  1.00  0.00    -0.265 OA
BRANCH  20  23
HETATM   23  C   UNL     1      41.385 -10.611   9.827  1.00  0.00     0.155 C 
BRANCH  23  24
HETATM   24  C   UNL     1      42.828 -10.230  10.196  1.00  0.00     0.139 C 
HETATM   25  O   UNL     1      43.713 -10.608   9.117  1.00  0.00    -0.384 OA
HETATM   26  C   UNL     1      44.824 -11.314   9.679  1.00  0.00     0.168 C 
HETATM   27  C   UNL     1      44.314 -11.936  10.958  1.00  0.00     0.029 C 
HETATM   28  C   UNL     1      43.367 -10.878  11.467  1.00  0.00     0.035 C 
ENDBRANCH  23  24
ENDBRANCH  20  23
ENDBRANCH  17  19
ENDBRANCH   5  10
BRANCH   1  29
HETATM   29  C   UNL     1      43.808 -17.782   1.965  1.00  0.00     0.273 C 
BRANCH  29  30
HETATM   30  C   UNL     1      43.820 -18.155   3.422  1.00  0.00    -0.030 A 
HETATM   31  C   UNL     1      43.580 -17.195   4.421  1.00  0.00     0.048 A 
HETATM   32  C   UNL     1      43.650 -17.524   5.787  1.00  0.00     0.102 A 
HETATM   33  C   UNL     1      43.955 -18.848   6.152  1.00  0.00     0.101 A 
HETATM   34  C   UNL     1      44.181 -19.802   5.151  1.00  0.00     0.040 A 
HETATM   35  C   UNL     1      44.115 -19.467   3.801  1.00  0.00     0.012 A 
BRANCH  32  36
HETATM   36  O   UNL     1      43.455 -16.611   6.784  1.00  0.00    -0.353 OA
HETATM   37  C   UNL     1      44.295 -15.467   6.853  1.00  0.00     0.210 C 
ENDBRANCH  32  36
BRANCH  33  38
HETATM   38  O   UNL     1      44.088 -19.387   7.403  1.00  0.00    -0.353 OA
HETATM   39  C   UNL     1      43.600 -20.695   7.655  1.00  0.00     0.210 C 
ENDBRANCH  33  38
ENDBRANCH  29  30
ENDBRANCH   1  29
TORSDOF 9
ENDMDL
MODEL 8
REMARK VINA RESULT:      -8.7      3.388      7.746
REMARK  9 active torsions:
REMARK  status: ('A' for Active; 'I' for Inactive)
REMARK    1  A    between atoms: O_2  and  C_3 
REMARK    2  A    between atoms: C_4  and  O_5 
REMARK    3  A    between atoms: C_8  and  C_9 
REMARK    4  A    between atoms: C_9  and  N_10 
REMARK    5  A    between atoms: C_14  and  O_15 
REMARK    6  A    between atoms: C_14  and  C_16 
REMARK    7  A    between atoms: C_21  and  C_22 
REMARK       I    between atoms: C_22  and  N_23 
REMARK    8  A    between atoms: N_23  and  C_24 
REMARK    9  A    between atoms: C_24  and  C_25 
ROOT
HETATM    1  N   UNL     1      42.881 -15.875   6.653  1.00  0.00    -0.067 N 
HETATM    2  H   UNL     1      42.737 -15.607   7.634  1.00  0.00     0.280 HD
HETATM    3  C   UNL     1      42.829 -14.599   5.841  1.00  0.00     0.238 C 
HETATM    4  C   UNL     1      41.436 -13.992   5.910  1.00  0.00     0.071 C 
HETATM    5  C   UNL     1      40.360 -14.963   5.389  1.00  0.00     0.088 C 
HETATM    6  C   UNL     1      40.432 -16.194   6.316  1.00  0.00     0.071 C 
HETATM    7  C   UNL     1      41.797 -16.859   6.276  1.00  0.00     0.238 C 
ENDROOT
BRANCH   5   8
HETATM    8  O   UNL     1      39.095 -14.345   5.628  1.00  0.00    -0.385 OA
HETATM    9  H   UNL     1      38.377 -14.972   5.419  1.00  0.00     0.211 HD
ENDBRANCH   5   8
BRANCH   5  10
HETATM   10  C   UNL     1      40.464 -15.281   3.889  1.00  0.00    -0.023 A 
HETATM   11  C   UNL     1      40.419 -14.249   2.922  1.00  0.00     0.024 A 
HETATM   12  C   UNL     1      40.622 -14.543   1.560  1.00  0.00     0.001 A 
HETATM   13  C   UNL     1      40.802 -15.864   1.187  1.00  0.00     0.086 A 
HETATM   14  C   UNL     1      40.706 -13.787   0.364  1.00  0.00     0.057 A 
HETATM   15  O   UNL     1      41.020 -15.956  -0.152  1.00  0.00    -0.304 OA
HETATM   16  C   UNL     1      40.759 -16.929   2.077  1.00  0.00     0.039 A 
HETATM   17  C   UNL     1      40.974 -14.681  -0.657  1.00  0.00     0.144 A 
HETATM   18  C   UNL     1      40.576 -16.611   3.431  1.00  0.00     0.013 A 
BRANCH  17  19
HETATM   19  C   UNL     1      41.225 -14.456  -2.065  1.00  0.00     0.275 C 
HETATM   20  N   UNL     1      41.180 -13.134  -2.436  1.00  0.00    -0.353 N 
HETATM   21  H   UNL     1      40.904 -12.454  -1.735  1.00  0.00     0.162 HD
HETATM   22  O   UNL     1      41.419 -15.366  -2.863  1.00  0.00    -0.265 OA
BRANCH  20  23
HETATM   23  C   UNL     1      41.238 -12.685  -3.813  1.00  0.00     0.155 C 
BRANCH  23  24
HETATM   24  C   UNL     1      42.380 -11.689  -4.075  1.00  0.00     0.139 C 
HETATM   25  O   UNL     1      42.713 -11.009  -2.843  1.00  0.00    -0.384 OA
HETATM   26  C   UNL     1      42.775  -9.605  -3.112  1.00  0.00     0.168 C 
HETATM   27  C   UNL     1      41.859  -9.369  -4.290  1.00  0.00     0.029 C 
HETATM   28  C   UNL     1      42.079 -10.614  -5.114  1.00  0.00     0.035 C 
ENDBRANCH  23  24
ENDBRANCH  20  23
ENDBRANCH  17  19
ENDBRANCH   5  10
BRANCH   1  29
HETATM   29  C   UNL     1      44.241 -16.558   6.596  1.00  0.00     0.273 C 
BRANCH  29  30
HETATM   30  C   UNL     1      44.313 -17.717   5.640  1.00  0.00    -0.030 A 
HETATM   31  C   UNL     1      44.046 -17.548   4.270  1.00  0.00     0.048 A 
HETATM   32  C   UNL     1      44.052 -18.639   3.381  1.00  0.00     0.102 A 
HETATM   33  C   UNL     1      44.345 -19.921   3.881  1.00  0.00     0.101 A 
HETATM   34  C   UNL     1      44.622 -20.080   5.245  1.00  0.00     0.040 A 
HETATM   35  C   UNL     1      44.608 -18.996   6.119  1.00  0.00     0.012 A 
BRANCH  32  36
HETATM   36  O   UNL     1      43.766 -18.517   2.051  1.00  0.00    -0.353 OA
HETATM   37  C   UNL     1      44.225 -17.374   1.342  1.00  0.00     0.210 C 
ENDBRANCH  32  36
BRANCH  33  38
HETATM   38  O   UNL     1      44.394 -21.114   3.213  1.00  0.00    -0.353 OA
HETATM   39  C   UNL     1      44.629 -22.311   3.938  1.00  0.00     0.210 C 
ENDBRANCH  33  38
ENDBRANCH  29  30
ENDBRANCH   1  29
TORSDOF 9
ENDMDL
MODEL 9
REMARK VINA RESULT:      -8.7      3.265      8.357
REMARK  9 active torsions:
REMARK  status: ('A' for Active; 'I' for Inactive)
REMARK    1  A    between atoms: O_2  and  C_3 
REMARK    2  A    between atoms: C_4  and  O_5 
REMARK    3  A    between atoms: C_8  and  C_9 
REMARK    4  A    between atoms: C_9  and  N_10 
REMARK    5  A    between atoms: C_14  and  O_15 
REMARK    6  A    between atoms: C_14  and  C_16 
REMARK    7  A    between atoms: C_21  and  C_22 
REMARK       I    between atoms: C_22  and  N_23 
REMARK    8  A    between atoms: N_23  and  C_24 
REMARK    9  A    between atoms: C_24  and  C_25 
ROOT
HETATM    1  N   UNL     1      44.228 -18.311   7.277  1.00  0.00    -0.067 N 
HETATM    2  H   UNL     1      44.696 -18.894   7.981  1.00  0.00     0.280 HD
HETATM    3  C   UNL     1      43.063 -19.119   6.747  1.00  0.00     0.238 C 
HETATM    4  C   UNL     1      43.573 -20.345   6.004  1.00  0.00     0.071 C 
HETATM    5  C   UNL     1      44.495 -19.963   4.831  1.00  0.00     0.088 C 
HETATM    6  C   UNL     1      45.685 -19.215   5.467  1.00  0.00     0.071 C 
HETATM    7  C   UNL     1      45.241 -17.966   6.209  1.00  0.00     0.238 C 
ENDROOT
BRANCH   5   8
HETATM    8  O   UNL     1      45.016 -21.183   4.301  1.00  0.00    -0.385 OA
HETATM    9  H   UNL     1      45.986 -21.196   4.399  1.00  0.00     0.211 HD
ENDBRANCH   5   8
BRANCH   5  10
HETATM   10  C   UNL     1      43.794 -19.205   3.693  1.00  0.00    -0.023 A 
HETATM   11  C   UNL     1      42.627 -18.443   3.938  1.00  0.00     0.024 A 
HETATM   12  C   UNL     1      42.056 -17.669   2.910  1.00  0.00     0.001 A 
HETATM   13  C   UNL     1      42.623 -17.720   1.648  1.00  0.00     0.086 A 
HETATM   14  C   UNL     1      40.967 -16.767   2.809  1.00  0.00     0.057 A 
HETATM   15  O   UNL     1      41.970 -16.886   0.797  1.00  0.00    -0.304 OA
HETATM   16  C   UNL     1      43.708 -18.523   1.323  1.00  0.00     0.039 A 
HETATM   17  C   UNL     1      40.961 -16.290   1.510  1.00  0.00     0.144 A 
HETATM   18  C   UNL     1      44.274 -19.270   2.368  1.00  0.00     0.013 A 
BRANCH  17  19
HETATM   19  C   UNL     1      40.117 -15.301   0.874  1.00  0.00     0.275 C 
HETATM   20  N   UNL     1      40.346 -15.153  -0.473  1.00  0.00    -0.353 N 
HETATM   21  H   UNL     1      41.117 -15.671  -0.881  1.00  0.00     0.162 HD
HETATM   22  O   UNL     1      39.298 -14.625   1.489  1.00  0.00    -0.265 OA
BRANCH  20  23
HETATM   23  C   UNL     1      39.738 -14.114  -1.281  1.00  0.00     0.155 C 
BRANCH  23  24
HETATM   24  C   UNL     1      40.618 -12.859  -1.410  1.00  0.00     0.139 C 
HETATM   25  O   UNL     1      40.368 -12.230  -2.687  1.00  0.00    -0.384 OA
HETATM   26  C   UNL     1      41.631 -11.951  -3.301  1.00  0.00     0.168 C 
HETATM   27  C   UNL     1      42.596 -12.970  -2.742  1.00  0.00     0.029 C 
HETATM   28  C   UNL     1      42.120 -13.106  -1.317  1.00  0.00     0.035 C 
ENDBRANCH  23  24
ENDBRANCH  20  23
ENDBRANCH  17  19
ENDBRANCH   5  10
BRANCH   1  29
HETATM   29  C   UNL     1      43.789 -17.045   8.001  1.00  0.00     0.273 C 
BRANCH  29  30
HETATM   30  C   UNL     1      43.383 -15.919   7.089  1.00  0.00    -0.030 A 
HETATM   31  C   UNL     1      42.065 -15.810   6.610  1.00  0.00     0.048 A 
HETATM   32  C   UNL     1      41.694 -14.795   5.709  1.00  0.00     0.102 A 
HETATM   33  C   UNL     1      42.665 -13.865   5.295  1.00  0.00     0.101 A 
HETATM   34  C   UNL     1      43.973 -13.973   5.787  1.00  0.00     0.040 A 
HETATM   35  C   UNL     1      44.334 -14.984   6.673  1.00  0.00     0.012 A 
BRANCH  32  36
HETATM   36  O   UNL     1      40.432 -14.679   5.198  1.00  0.00    -0.353 OA
HETATM   37  C   UNL     1      39.602 -13.610   5.630  1.00  0.00     0.210 C 
ENDBRANCH  32  36
BRANCH  33  38
HETATM   38  O   UNL     1      42.537 -12.816   4.426  1.00  0.00    -0.353 OA
HETATM   39  C   UNL     1      42.526 -13.065   3.029  1.00  0.00     0.210 C 
ENDBRANCH  33  38
ENDBRANCH  29  30
ENDBRANCH   1  29
TORSDOF 9
ENDMDL
MODEL 10
REMARK VINA RESULT:      -8.7      1.622      2.690
REMARK  9 active torsions:
REMARK  status: ('A' for Active; 'I' for Inactive)
REMARK    1  A    between atoms: O_2  and  C_3 
REMARK    2  A    between atoms: C_4  and  O_5 
REMARK    3  A    between atoms: C_8  and  C_9 
REMARK    4  A    between atoms: C_9  and  N_10 
REMARK    5  A    between atoms: C_14  and  O_15 
REMARK    6  A    between atoms: C_14  and  C_16 
REMARK    7  A    between atoms: C_21  and  C_22 
REMARK       I    between atoms: C_22  and  N_23 
REMARK    8  A    between atoms: N_23  and  C_24 
REMARK    9  A    between atoms: C_24  and  C_25 
ROOT
HETATM    1  N   UNL     1      42.149 -17.626   1.950  1.00  0.00    -0.067 N 
HETATM    2  H   UNL     1      41.920 -18.275   1.187  1.00  0.00     0.280 HD
HETATM    3  C   UNL     1      40.865 -17.377   2.710  1.00  0.00     0.238 C 
HETATM    4  C   UNL     1      39.867 -16.647   1.824  1.00  0.00     0.071 C 
HETATM    5  C   UNL     1      40.424 -15.301   1.321  1.00  0.00     0.088 C 
HETATM    6  C   UNL     1      41.680 -15.655   0.499  1.00  0.00     0.071 C 
HETATM    7  C   UNL     1      42.725 -16.371   1.336  1.00  0.00     0.238 C 
ENDROOT
BRANCH   5   8
HETATM    8  O   UNL     1      39.467 -14.777   0.400  1.00  0.00    -0.385 OA
HETATM    9  H   UNL     1      39.926 -14.298  -0.315  1.00  0.00     0.211 HD
ENDBRANCH   5   8
BRANCH   5  10
HETATM   10  C   UNL     1      40.652 -14.256   2.424  1.00  0.00    -0.023 A 
HETATM   11  C   UNL     1      39.714 -14.087   3.471  1.00  0.00     0.024 A 
HETATM   12  C   UNL     1      39.986 -13.201   4.531  1.00  0.00     0.001 A 
HETATM   13  C   UNL     1      41.155 -12.460   4.493  1.00  0.00     0.086 A 
HETATM   14  C   UNL     1      39.335 -12.836   5.736  1.00  0.00     0.057 A 
HETATM   15  O   UNL     1      41.271 -11.693   5.609  1.00  0.00    -0.304 OA
HETATM   16  C   UNL     1      42.066 -12.510   3.445  1.00  0.00     0.039 A 
HETATM   17  C   UNL     1      40.161 -11.932   6.379  1.00  0.00     0.144 A 
HETATM   18  C   UNL     1      41.784 -13.415   2.410  1.00  0.00     0.013 A 
BRANCH  17  19
HETATM   19  C   UNL     1      40.028 -11.287   7.669  1.00  0.00     0.275 C 
HETATM   20  N   UNL     1      41.223 -11.079   8.315  1.00  0.00    -0.353 N 
HETATM   21  H   UNL     1      42.063 -11.455   7.890  1.00  0.00     0.162 HD
HETATM   22  O   UNL     1      38.944 -10.989   8.159  1.00  0.00    -0.265 OA
BRANCH  20  23
HETATM   23  C   UNL     1      41.323 -10.601   9.681  1.00  0.00     0.155 C 
BRANCH  23  24
HETATM   24  C   UNL     1      42.748 -10.170  10.065  1.00  0.00     0.139 C 
HETATM   25  O   UNL     1      43.665 -10.563   9.018  1.00  0.00    -0.384 OA
HETATM   26  C   UNL     1      44.780 -11.221   9.628  1.00  0.00     0.168 C 
HETATM   27  C   UNL     1      44.259 -11.809  10.918  1.00  0.00     0.029 C 
HETATM   28  C   UNL     1      43.276 -10.757  11.369  1.00  0.00     0.035 C 
ENDBRANCH  23  24
ENDBRANCH  20  23
ENDBRANCH  17  19
ENDBRANCH   5  10
BRANCH   1  29
HETATM   29  C   UNL     1      43.210 -18.323   2.793  1.00  0.00     0.273 C 
BRANCH  29  30
HETATM   30  C   UNL     1      43.476 -17.667   4.121  1.00  0.00    -0.030 A 
HETATM   31  C   UNL     1      43.627 -18.430   5.292  1.00  0.00     0.048 A 
HETATM   32  C   UNL     1      43.815 -17.820   6.546  1.00  0.00     0.102 A 
HETATM   33  C   UNL     1      43.865 -16.416   6.618  1.00  0.00     0.101 A 
HETATM   34  C   UNL     1      43.725 -15.662   5.445  1.00  0.00     0.040 A 
HETATM   35  C   UNL     1      43.534 -16.274   4.208  1.00  0.00     0.012 A 
BRANCH  32  36
HETATM   36  O   UNL     1      43.933 -18.529   7.708  1.00  0.00    -0.353 OA
HETATM   37  C   UNL     1      43.811 -19.943   7.676  1.00  0.00     0.210 C 
ENDBRANCH  32  36
BRANCH  33  38
HETATM   38  O   UNL     1      44.023 -15.616   7.716  1.00  0.00    -0.353 OA
HETATM   39  C   UNL     1      44.438 -14.270   7.545  1.00  0.00     0.210 C 
ENDBRANCH  33  38
ENDBRANCH  29  30
ENDBRANCH   1  29
TORSDOF 9
ENDMDL
