MODEL 1
REMARK VINA RESULT:      -8.9      0.000      0.000
REMARK  5 active torsions:
REMARK  status: ('A' for Active; 'I' for Inactive)
REMARK    1  A    between atoms: C_2  and  C_3 
REMARK    2  A    between atoms: C_2  and  C_9 
REMARK    3  A    between atoms: C_9  and  C_10 
REMARK       I    between atoms: C_10  and  N_11 
REMARK    4  A    between atoms: N_11  and  C_12 
REMARK    5  A    between atoms: C_19  and  C_20 
REMARK       I    between atoms: C_20  and  N_21 
ROOT
HETATM    1  C   UNL     1      40.227 -15.164   1.136  1.00  0.00     0.035 A 
HETATM    2  C   UNL     1      40.702 -14.943  -0.164  1.00  0.00     0.046 A 
HETATM    3  C   UNL     1      39.904 -14.231  -1.086  1.00  0.00     0.030 A 
HETATM    4  C   UNL     1      38.657 -13.772  -0.680  1.00  0.00     0.063 A 
HETATM    5  N   UNL     1      38.127 -13.147  -1.774  1.00  0.00    -0.277 N 
HETATM    6  H   UNL     1      37.222 -12.696  -1.844  1.00  0.00     0.189 HD
HETATM    7  N   UNL     1      38.923 -13.144  -2.855  1.00  0.00    -0.168 NA
HETATM    8  C   UNL     1      40.030 -13.806  -2.444  1.00  0.00     0.156 A 
HETATM    9  C   UNL     1      38.156 -13.967   0.607  1.00  0.00     0.034 A 
HETATM   10  C   UNL     1      38.971 -14.666   1.508  1.00  0.00     0.032 A 
ENDROOT
BRANCH   1  11
HETATM   11  N   UNL     1      40.963 -15.845   2.133  1.00  0.00    -0.327 N 
HETATM   12  C   UNL     1      41.327 -17.177   2.139  1.00  0.00     0.222 C 
HETATM   13  O   UNL     1      41.003 -18.012   1.298  1.00  0.00    -0.273 OA
HETATM   14  H   UNL     1      41.136 -15.318   2.976  1.00  0.00     0.169 HD
BRANCH  12  15
HETATM   15  C   UNL     1      42.289 -17.582   3.250  1.00  0.00     0.112 C 
BRANCH  15  16
HETATM   16  C   UNL     1      43.705 -18.029   2.851  1.00  0.00     0.023 C 
HETATM   17  C   UNL     1      44.048 -17.479   1.460  1.00  0.00     0.015 C 
BRANCH  16  18
HETATM   18  C   UNL     1      43.940 -19.529   2.873  1.00  0.00    -0.054 A 
HETATM   19  C   UNL     1      43.566 -20.359   1.806  1.00  0.00     0.007 A 
HETATM   20  C   UNL     1      43.811 -21.733   1.854  1.00  0.00     0.001 A 
HETATM   21  C   UNL     1      44.440 -22.295   2.963  1.00  0.00     0.000 A 
HETATM   22  C   UNL     1      44.827 -21.483   4.025  1.00  0.00     0.001 A 
HETATM   23  C   UNL     1      44.583 -20.110   3.980  1.00  0.00     0.007 A 
ENDBRANCH  16  18
ENDBRANCH  15  16
ENDBRANCH  12  15
ENDBRANCH   1  11
BRANCH   8  24
HETATM   24  C   UNL     1      41.173 -14.007  -3.346  1.00  0.00     0.270 C 
HETATM   25  N   UNL     1      41.707 -12.848  -3.837  1.00  0.00    -0.365 N 
HETATM   26  H   UNL     1      41.300 -11.965  -3.549  1.00  0.00     0.159 HD
HETATM   27  H   UNL     1      42.502 -12.888  -4.456  1.00  0.00     0.159 HD
HETATM   28  O   UNL     1      41.642 -15.099  -3.649  1.00  0.00    -0.266 OA
ENDBRANCH   8  24
TORSDOF 5
ENDMDL
MODEL 2
REMARK VINA RESULT:      -8.5      3.871      5.580
REMARK  5 active torsions:
REMARK  status: ('A' for Active; 'I' for Inactive)
REMARK    1  A    between atoms: C_2  and  C_3 
REMARK    2  A    between atoms: C_2  and  C_9 
REMARK    3  A    between atoms: C_9  and  C_10 
REMARK       I    between atoms: C_10  and  N_11 
REMARK    4  A    between atoms: N_11  and  C_12 
REMARK    5  A    between atoms: C_19  and  C_20 
REMARK       I    between atoms: C_20  and  N_21 
ROOT
HETATM    1  C   UNL     1      40.125 -14.569   3.523  1.00  0.00     0.035 A 
HETATM    2  C   UNL     1      40.144 -13.887   4.747  1.00  0.00     0.046 A 
HETATM    3  C   UNL     1      39.541 -12.613   4.845  1.00  0.00     0.030 A 
HETATM    4  C   UNL     1      38.948 -12.063   3.715  1.00  0.00     0.063 A 
HETATM    5  N   UNL     1      38.474 -10.844   4.113  1.00  0.00    -0.277 N 
HETATM    6  H   UNL     1      37.986 -10.161   3.544  1.00  0.00     0.189 HD
HETATM    7  N   UNL     1      38.692 -10.554   5.405  1.00  0.00    -0.168 NA
HETATM    8  C   UNL     1      39.346 -11.642   5.875  1.00  0.00     0.156 A 
HETATM    9  C   UNL     1      38.904 -12.716   2.484  1.00  0.00     0.034 A 
HETATM   10  C   UNL     1      39.499 -13.983   2.414  1.00  0.00     0.032 A 
ENDROOT
BRANCH   1  11
HETATM   11  N   UNL     1      40.682 -15.854   3.335  1.00  0.00    -0.327 N 
HETATM   12  C   UNL     1      42.021 -16.187   3.300  1.00  0.00     0.222 C 
HETATM   13  O   UNL     1      42.958 -15.396   3.359  1.00  0.00    -0.273 OA
HETATM   14  H   UNL     1      40.022 -16.577   3.087  1.00  0.00     0.169 HD
BRANCH  12  15
HETATM   15  C   UNL     1      42.318 -17.683   3.282  1.00  0.00     0.112 C 
BRANCH  15  16
HETATM   16  C   UNL     1      43.646 -18.148   2.661  1.00  0.00     0.023 C 
HETATM   17  C   UNL     1      43.657 -17.824   1.162  1.00  0.00     0.015 C 
BRANCH  16  18
HETATM   18  C   UNL     1      43.975 -19.616   2.865  1.00  0.00    -0.054 A 
HETATM   19  C   UNL     1      44.536 -20.096   4.057  1.00  0.00     0.007 A 
HETATM   20  C   UNL     1      44.812 -21.456   4.216  1.00  0.00     0.001 A 
HETATM   21  C   UNL     1      44.523 -22.355   3.191  1.00  0.00     0.000 A 
HETATM   22  C   UNL     1      43.955 -21.895   2.007  1.00  0.00     0.001 A 
HETATM   23  C   UNL     1      43.680 -20.536   1.845  1.00  0.00     0.007 A 
ENDBRANCH  16  18
ENDBRANCH  15  16
ENDBRANCH  12  15
ENDBRANCH   1  11
BRANCH   8  24
HETATM   24  C   UNL     1      39.759 -11.731   7.282  1.00  0.00     0.270 C 
HETATM   25  N   UNL     1      39.107 -12.701   7.995  1.00  0.00    -0.365 N 
HETATM   26  H   UNL     1      38.420 -13.274   7.518  1.00  0.00     0.159 HD
HETATM   27  H   UNL     1      39.332 -12.842   8.967  1.00  0.00     0.159 HD
HETATM   28  O   UNL     1      40.612 -11.025   7.809  1.00  0.00    -0.266 OA
ENDBRANCH   8  24
TORSDOF 5
ENDMDL
MODEL 3
REMARK VINA RESULT:      -8.3      1.883      2.786
REMARK  5 active torsions:
REMARK  status: ('A' for Active; 'I' for Inactive)
REMARK    1  A    between atoms: C_2  and  C_3 
REMARK    2  A    between atoms: C_2  and  C_9 
REMARK    3  A    between atoms: C_9  and  C_10 
REMARK       I    between atoms: C_10  and  N_11 
REMARK    4  A    between atoms: N_11  and  C_12 
REMARK    5  A    between atoms: C_19  and  C_20 
REMARK       I    between atoms: C_20  and  N_21 
ROOT
HETATM    1  C   UNL     1      41.000 -15.286  -1.128  1.00  0.00     0.035 A 
HETATM    2  C   UNL     1      40.041 -14.307  -0.833  1.00  0.00     0.046 A 
HETATM    3  C   UNL     1      39.114 -13.919  -1.826  1.00  0.00     0.030 A 
HETATM    4  C   UNL     1      39.181 -14.516  -3.078  1.00  0.00     0.063 A 
HETATM    5  N   UNL     1      38.184 -13.935  -3.811  1.00  0.00    -0.277 N 
HETATM    6  H   UNL     1      37.944 -14.125  -4.777  1.00  0.00     0.189 HD
HETATM    7  N   UNL     1      37.462 -13.021  -3.144  1.00  0.00    -0.168 NA
HETATM    8  C   UNL     1      38.020 -13.003  -1.912  1.00  0.00     0.156 A 
HETATM    9  C   UNL     1      40.117 -15.499  -3.403  1.00  0.00     0.034 A 
HETATM   10  C   UNL     1      41.018 -15.875  -2.399  1.00  0.00     0.032 A 
ENDROOT
BRANCH   1  11
HETATM   11  N   UNL     1      41.952 -15.754  -0.194  1.00  0.00    -0.327 N 
HETATM   12  C   UNL     1      41.840 -16.852   0.634  1.00  0.00     0.222 C 
HETATM   13  O   UNL     1      40.849 -17.569   0.743  1.00  0.00    -0.273 OA
HETATM   14  H   UNL     1      42.745 -15.146  -0.047  1.00  0.00     0.169 HD
BRANCH  12  15
HETATM   15  C   UNL     1      43.110 -17.227   1.391  1.00  0.00     0.112 C 
BRANCH  15  16
HETATM   16  C   UNL     1      42.959 -17.948   2.741  1.00  0.00     0.023 C 
HETATM   17  C   UNL     1      43.639 -17.127   3.844  1.00  0.00     0.015 C 
BRANCH  16  18
HETATM   18  C   UNL     1      43.483 -19.373   2.774  1.00  0.00    -0.054 A 
HETATM   19  C   UNL     1      43.216 -20.290   1.747  1.00  0.00     0.007 A 
HETATM   20  C   UNL     1      43.727 -21.588   1.803  1.00  0.00     0.001 A 
HETATM   21  C   UNL     1      44.518 -21.985   2.879  1.00  0.00     0.000 A 
HETATM   22  C   UNL     1      44.801 -21.083   3.900  1.00  0.00     0.001 A 
HETATM   23  C   UNL     1      44.291 -19.785   3.847  1.00  0.00     0.007 A 
ENDBRANCH  16  18
ENDBRANCH  15  16
ENDBRANCH  12  15
ENDBRANCH   1  11
BRANCH   8  24
HETATM   24  C   UNL     1      37.497 -12.127  -0.854  1.00  0.00     0.270 C 
HETATM   25  N   UNL     1      37.417 -10.809  -1.210  1.00  0.00    -0.365 N 
HETATM   26  H   UNL     1      37.704 -10.540  -2.144  1.00  0.00     0.159 HD
HETATM   27  H   UNL     1      37.060 -10.135  -0.551  1.00  0.00     0.159 HD
HETATM   28  O   UNL     1      37.144 -12.505   0.258  1.00  0.00    -0.266 OA
ENDBRANCH   8  24
TORSDOF 5
ENDMDL
MODEL 4
REMARK VINA RESULT:      -8.2      1.488      2.017
REMARK  5 active torsions:
REMARK  status: ('A' for Active; 'I' for Inactive)
REMARK    1  A    between atoms: C_2  and  C_3 
REMARK    2  A    between atoms: C_2  and  C_9 
REMARK    3  A    between atoms: C_9  and  C_10 
REMARK       I    between atoms: C_10  and  N_11 
REMARK    4  A    between atoms: N_11  and  C_12 
REMARK    5  A    between atoms: C_19  and  C_20 
REMARK       I    between atoms: C_20  and  N_21 
ROOT
HETATM    1  C   UNL     1      40.757 -15.151   1.571  1.00  0.00     0.035 A 
HETATM    2  C   UNL     1      40.984 -15.155   0.188  1.00  0.00     0.046 A 
HETATM    3  C   UNL     1      40.128 -14.419  -0.661  1.00  0.00     0.030 A 
HETATM    4  C   UNL     1      39.072 -13.711  -0.099  1.00  0.00     0.063 A 
HETATM    5  N   UNL     1      38.428 -13.125  -1.153  1.00  0.00    -0.277 N 
HETATM    6  H   UNL     1      37.604 -12.535  -1.116  1.00  0.00     0.189 HD
HETATM    7  N   UNL     1      38.977 -13.374  -2.352  1.00  0.00    -0.168 NA
HETATM    8  C   UNL     1      40.035 -14.169  -2.065  1.00  0.00     0.156 A 
HETATM    9  C   UNL     1      38.822 -13.679   1.273  1.00  0.00     0.034 A 
HETATM   10  C   UNL     1      39.691 -14.407   2.095  1.00  0.00     0.032 A 
ENDROOT
BRANCH   1  11
HETATM   11  N   UNL     1      41.573 -15.838   2.499  1.00  0.00    -0.327 N 
HETATM   12  C   UNL     1      42.744 -15.388   3.074  1.00  0.00     0.222 C 
HETATM   13  O   UNL     1      43.311 -14.330   2.813  1.00  0.00    -0.273 OA
HETATM   14  H   UNL     1      41.321 -16.802   2.663  1.00  0.00     0.169 HD
BRANCH  12  15
HETATM   15  C   UNL     1      43.299 -16.267   4.190  1.00  0.00     0.112 C 
BRANCH  15  16
HETATM   16  C   UNL     1      42.635 -17.633   4.431  1.00  0.00     0.023 C 
HETATM   17  C   UNL     1      42.484 -17.876   5.938  1.00  0.00     0.015 C 
BRANCH  16  18
HETATM   18  C   UNL     1      43.343 -18.816   3.796  1.00  0.00    -0.054 A 
HETATM   19  C   UNL     1      44.306 -19.568   4.486  1.00  0.00     0.007 A 
HETATM   20  C   UNL     1      44.926 -20.660   3.876  1.00  0.00     0.001 A 
HETATM   21  C   UNL     1      44.588 -21.022   2.574  1.00  0.00     0.000 A 
HETATM   22  C   UNL     1      43.627 -20.293   1.880  1.00  0.00     0.001 A 
HETATM   23  C   UNL     1      43.006 -19.200   2.487  1.00  0.00     0.007 A 
ENDBRANCH  16  18
ENDBRANCH  15  16
ENDBRANCH  12  15
ENDBRANCH   1  11
BRANCH   8  24
HETATM   24  C   UNL     1      40.926 -14.659  -3.125  1.00  0.00     0.270 C 
HETATM   25  N   UNL     1      42.154 -14.056  -3.145  1.00  0.00    -0.365 N 
HETATM   26  H   UNL     1      42.359 -13.348  -2.449  1.00  0.00     0.159 HD
HETATM   27  H   UNL     1      42.836 -14.336  -3.832  1.00  0.00     0.159 HD
HETATM   28  O   UNL     1      40.638 -15.534  -3.934  1.00  0.00    -0.266 OA
ENDBRANCH   8  24
TORSDOF 5
ENDMDL
MODEL 5
REMARK VINA RESULT:      -8.0      3.187      8.648
REMARK  5 active torsions:
REMARK  status: ('A' for Active; 'I' for Inactive)
REMARK    1  A    between atoms: C_2  and  C_3 
REMARK    2  A    between atoms: C_2  and  C_9 
REMARK    3  A    between atoms: C_9  and  C_10 
REMARK       I    between atoms: C_10  and  N_11 
REMARK    4  A    between atoms: N_11  and  C_12 
REMARK    5  A    between atoms: C_19  and  C_20 
REMARK       I    between atoms: C_20  and  N_21 
ROOT
HETATM    1  C   UNL     1      42.993 -17.391   2.537  1.00  0.00     0.035 A 
HETATM    2  C   UNL     1      42.901 -17.408   3.935  1.00  0.00     0.046 A 
HETATM    3  C   UNL     1      43.462 -18.485   4.658  1.00  0.00     0.030 A 
HETATM    4  C   UNL     1      44.088 -19.509   3.957  1.00  0.00     0.063 A 
HETATM    5  N   UNL     1      44.509 -20.394   4.910  1.00  0.00    -0.277 N 
HETATM    6  H   UNL     1      45.002 -21.267   4.761  1.00  0.00     0.189 HD
HETATM    7  N   UNL     1      44.226 -20.033   6.172  1.00  0.00    -0.168 NA
HETATM    8  C   UNL     1      43.583 -18.850   6.033  1.00  0.00     0.156 A 
HETATM    9  C   UNL     1      44.205 -19.520   2.567  1.00  0.00     0.034 A 
HETATM   10  C   UNL     1      43.650 -18.436   1.874  1.00  0.00     0.032 A 
ENDROOT
BRANCH   1  11
HETATM   11  N   UNL     1      42.482 -16.347   1.732  1.00  0.00    -0.327 N 
HETATM   12  C   UNL     1      41.163 -16.123   1.394  1.00  0.00     0.222 C 
HETATM   13  O   UNL     1      40.215 -16.847   1.686  1.00  0.00    -0.273 OA
HETATM   14  H   UNL     1      43.177 -15.780   1.269  1.00  0.00     0.169 HD
BRANCH  12  15
HETATM   15  C   UNL     1      40.891 -14.805   0.677  1.00  0.00     0.112 C 
BRANCH  15  16
HETATM   16  C   UNL     1      41.349 -14.670  -0.784  1.00  0.00     0.023 C 
HETATM   17  C   UNL     1      42.009 -13.301  -0.995  1.00  0.00     0.015 C 
BRANCH  16  18
HETATM   18  C   UNL     1      40.261 -14.872  -1.824  1.00  0.00    -0.054 A 
HETATM   19  C   UNL     1      39.059 -14.150  -1.796  1.00  0.00     0.007 A 
HETATM   20  C   UNL     1      38.086 -14.352  -2.778  1.00  0.00     0.001 A 
HETATM   21  C   UNL     1      38.304 -15.268  -3.804  1.00  0.00     0.000 A 
HETATM   22  C   UNL     1      39.496 -15.985  -3.851  1.00  0.00     0.001 A 
HETATM   23  C   UNL     1      40.470 -15.786  -2.870  1.00  0.00     0.007 A 
ENDBRANCH  16  18
ENDBRANCH  15  16
ENDBRANCH  12  15
ENDBRANCH   1  11
BRANCH   8  24
HETATM   24  C   UNL     1      43.112 -18.100   7.206  1.00  0.00     0.270 C 
HETATM   25  N   UNL     1      43.790 -18.385   8.360  1.00  0.00    -0.365 N 
HETATM   26  H   UNL     1      44.546 -19.059   8.325  1.00  0.00     0.159 HD
HETATM   27  H   UNL     1      43.543 -17.910   9.214  1.00  0.00     0.159 HD
HETATM   28  O   UNL     1      42.202 -17.277   7.193  1.00  0.00    -0.266 OA
ENDBRANCH   8  24
TORSDOF 5
ENDMDL
MODEL 6
REMARK VINA RESULT:      -7.9      3.426      8.182
REMARK  5 active torsions:
REMARK  status: ('A' for Active; 'I' for Inactive)
REMARK    1  A    between atoms: C_2  and  C_3 
REMARK    2  A    between atoms: C_2  and  C_9 
REMARK    3  A    between atoms: C_9  and  C_10 
REMARK       I    between atoms: C_10  and  N_11 
REMARK    4  A    between atoms: N_11  and  C_12 
REMARK    5  A    between atoms: C_19  and  C_20 
REMARK       I    between atoms: C_20  and  N_21 
ROOT
HETATM    1  C   UNL     1      43.294 -17.880   2.603  1.00  0.00     0.035 A 
HETATM    2  C   UNL     1      43.020 -17.607   3.951  1.00  0.00     0.046 A 
HETATM    3  C   UNL     1      43.457 -18.507   4.947  1.00  0.00     0.030 A 
HETATM    4  C   UNL     1      44.145 -19.652   4.563  1.00  0.00     0.063 A 
HETATM    5  N   UNL     1      44.417 -20.318   5.725  1.00  0.00    -0.277 N 
HETATM    6  H   UNL     1      44.904 -21.202   5.825  1.00  0.00     0.189 HD
HETATM    7  N   UNL     1      43.980 -19.704   6.836  1.00  0.00    -0.168 NA
HETATM    8  C   UNL     1      43.390 -18.578   6.372  1.00  0.00     0.156 A 
HETATM    9  C   UNL     1      44.441 -19.951   3.233  1.00  0.00     0.034 A 
HETATM   10  C   UNL     1      44.008 -19.037   2.264  1.00  0.00     0.032 A 
ENDROOT
BRANCH   1  11
HETATM   11  N   UNL     1      42.917 -17.028   1.540  1.00  0.00    -0.327 N 
HETATM   12  C   UNL     1      41.676 -16.937   0.943  1.00  0.00     0.222 C 
HETATM   13  O   UNL     1      40.704 -17.642   1.199  1.00  0.00    -0.273 OA
HETATM   14  H   UNL     1      43.674 -16.521   1.106  1.00  0.00     0.169 HD
BRANCH  12  15
HETATM   15  C   UNL     1      41.514 -15.787  -0.045  1.00  0.00     0.112 C 
BRANCH  15  16
HETATM   16  C   UNL     1      41.031 -14.432   0.497  1.00  0.00     0.023 C 
HETATM   17  C   UNL     1      41.667 -13.294  -0.312  1.00  0.00     0.015 C 
BRANCH  16  18
HETATM   18  C   UNL     1      41.281 -14.201   1.977  1.00  0.00    -0.054 A 
HETATM   19  C   UNL     1      40.342 -14.555   2.957  1.00  0.00     0.007 A 
HETATM   20  C   UNL     1      40.613 -14.343   4.310  1.00  0.00     0.001 A 
HETATM   21  C   UNL     1      41.827 -13.784   4.704  1.00  0.00     0.000 A 
HETATM   22  C   UNL     1      42.774 -13.438   3.744  1.00  0.00     0.001 A 
HETATM   23  C   UNL     1      42.505 -13.649   2.390  1.00  0.00     0.007 A 
ENDBRANCH  16  18
ENDBRANCH  15  16
ENDBRANCH  12  15
ENDBRANCH   1  11
BRANCH   8  24
HETATM   24  C   UNL     1      42.788 -17.603   7.292  1.00  0.00     0.270 C 
HETATM   25  N   UNL     1      43.383 -17.556   8.524  1.00  0.00    -0.365 N 
HETATM   26  H   UNL     1      44.172 -18.165   8.705  1.00  0.00     0.159 HD
HETATM   27  H   UNL     1      43.043 -16.908   9.217  1.00  0.00     0.159 HD
HETATM   28  O   UNL     1      41.842 -16.871   7.018  1.00  0.00    -0.266 OA
ENDBRANCH   8  24
TORSDOF 5
ENDMDL
MODEL 7
REMARK VINA RESULT:      -7.7      2.118      3.711
REMARK  5 active torsions:
REMARK  status: ('A' for Active; 'I' for Inactive)
REMARK    1  A    between atoms: C_2  and  C_3 
REMARK    2  A    between atoms: C_2  and  C_9 
REMARK    3  A    between atoms: C_9  and  C_10 
REMARK       I    between atoms: C_10  and  N_11 
REMARK    4  A    between atoms: N_11  and  C_12 
REMARK    5  A    between atoms: C_19  and  C_20 
REMARK       I    between atoms: C_20  and  N_21 
ROOT
HETATM    1  C   UNL     1      42.494 -17.255   2.462  1.00  0.00     0.035 A 
HETATM    2  C   UNL     1      42.227 -16.677   1.213  1.00  0.00     0.046 A 
HETATM    3  C   UNL     1      41.144 -15.781   1.076  1.00  0.00     0.030 A 
HETATM    4  C   UNL     1      40.361 -15.500   2.189  1.00  0.00     0.063 A 
HETATM    5  N   UNL     1      39.403 -14.630   1.747  1.00  0.00    -0.277 N 
HETATM    6  H   UNL     1      38.654 -14.216   2.290  1.00  0.00     0.189 HD
HETATM    7  N   UNL     1      39.499 -14.307   0.448  1.00  0.00    -0.168 NA
HETATM    8  C   UNL     1      40.576 -15.007   0.019  1.00  0.00     0.156 A 
HETATM    9  C   UNL     1      40.602 -16.050   3.448  1.00  0.00     0.034 A 
HETATM   10  C   UNL     1      41.689 -16.927   3.561  1.00  0.00     0.032 A 
ENDROOT
BRANCH   1  11
HETATM   11  N   UNL     1      43.567 -18.143   2.700  1.00  0.00    -0.327 N 
HETATM   12  C   UNL     1      43.613 -19.493   2.414  1.00  0.00     0.222 C 
HETATM   13  O   UNL     1      42.687 -20.162   1.963  1.00  0.00    -0.273 OA
HETATM   14  H   UNL     1      44.330 -17.762   3.240  1.00  0.00     0.169 HD
BRANCH  12  15
HETATM   15  C   UNL     1      44.976 -20.150   2.600  1.00  0.00     0.112 C 
BRANCH  15  16
HETATM   16  C   UNL     1      45.202 -20.999   3.861  1.00  0.00     0.023 C 
HETATM   17  C   UNL     1      44.508 -22.358   3.701  1.00  0.00     0.015 C 
BRANCH  16  18
HETATM   18  C   UNL     1      44.758 -20.354   5.162  1.00  0.00    -0.054 A 
HETATM   19  C   UNL     1      45.044 -19.016   5.467  1.00  0.00     0.007 A 
HETATM   20  C   UNL     1      44.607 -18.451   6.667  1.00  0.00     0.001 A 
HETATM   21  C   UNL     1      43.870 -19.210   7.573  1.00  0.00     0.000 A 
HETATM   22  C   UNL     1      43.568 -20.537   7.280  1.00  0.00     0.001 A 
HETATM   23  C   UNL     1      44.005 -21.104   6.082  1.00  0.00     0.007 A 
ENDBRANCH  16  18
ENDBRANCH  15  16
ENDBRANCH  12  15
ENDBRANCH   1  11
BRANCH   8  24
HETATM   24  C   UNL     1      41.036 -14.914  -1.374  1.00  0.00     0.270 C 
HETATM   25  N   UNL     1      40.595 -15.930  -2.176  1.00  0.00    -0.365 N 
HETATM   26  H   UNL     1      39.998 -16.643  -1.773  1.00  0.00     0.159 HD
HETATM   27  H   UNL     1      40.852 -15.944  -3.150  1.00  0.00     0.159 HD
HETATM   28  O   UNL     1      41.744 -14.017  -1.819  1.00  0.00    -0.266 OA
ENDBRANCH   8  24
TORSDOF 5
ENDMDL
MODEL 8
REMARK VINA RESULT:      -7.6      3.246      4.250
REMARK  5 active torsions:
REMARK  status: ('A' for Active; 'I' for Inactive)
REMARK    1  A    between atoms: C_2  and  C_3 
REMARK    2  A    between atoms: C_2  and  C_9 
REMARK    3  A    between atoms: C_9  and  C_10 
REMARK       I    between atoms: C_10  and  N_11 
REMARK    4  A    between atoms: N_11  and  C_12 
REMARK    5  A    between atoms: C_19  and  C_20 
REMARK       I    between atoms: C_20  and  N_21 
ROOT
HETATM    1  C   UNL     1      40.390 -14.761   4.353  1.00  0.00     0.035 A 
HETATM    2  C   UNL     1      39.841 -14.014   3.301  1.00  0.00     0.046 A 
HETATM    3  C   UNL     1      39.235 -12.768   3.573  1.00  0.00     0.030 A 
HETATM    4  C   UNL     1      39.193 -12.315   4.886  1.00  0.00     0.063 A 
HETATM    5  N   UNL     1      38.545 -11.112   4.833  1.00  0.00    -0.277 N 
HETATM    6  H   UNL     1      38.329 -10.497   5.610  1.00  0.00     0.189 HD
HETATM    7  N   UNL     1      38.173 -10.732   3.600  1.00  0.00    -0.168 NA
HETATM    8  C   UNL     1      38.599 -11.743   2.808  1.00  0.00     0.156 A 
HETATM    9  C   UNL     1      39.736 -13.027   5.955  1.00  0.00     0.034 A 
HETATM   10  C   UNL     1      40.341 -14.255   5.659  1.00  0.00     0.032 A 
ENDROOT
BRANCH   1  11
HETATM   11  N   UNL     1      41.035 -16.006   4.175  1.00  0.00    -0.327 N 
HETATM   12  C   UNL     1      42.394 -16.246   4.149  1.00  0.00     0.222 C 
HETATM   13  O   UNL     1      43.274 -15.391   4.208  1.00  0.00    -0.273 OA
HETATM   14  H   UNL     1      40.428 -16.774   3.928  1.00  0.00     0.169 HD
BRANCH  12  15
HETATM   15  C   UNL     1      42.794 -17.718   4.141  1.00  0.00     0.112 C 
BRANCH  15  16
HETATM   16  C   UNL     1      43.641 -18.229   2.964  1.00  0.00     0.023 C 
HETATM   17  C   UNL     1      42.942 -17.895   1.640  1.00  0.00     0.015 C 
BRANCH  16  18
HETATM   18  C   UNL     1      43.973 -19.710   3.002  1.00  0.00    -0.054 A 
HETATM   19  C   UNL     1      44.562 -20.314   4.123  1.00  0.00     0.007 A 
HETATM   20  C   UNL     1      44.839 -21.683   4.129  1.00  0.00     0.001 A 
HETATM   21  C   UNL     1      44.524 -22.468   3.022  1.00  0.00     0.000 A 
HETATM   22  C   UNL     1      43.929 -21.885   1.907  1.00  0.00     0.001 A 
HETATM   23  C   UNL     1      43.652 -20.517   1.898  1.00  0.00     0.007 A 
ENDBRANCH  16  18
ENDBRANCH  15  16
ENDBRANCH  12  15
ENDBRANCH   1  11
BRANCH   8  24
HETATM   24  C   UNL     1      38.397 -11.704   1.353  1.00  0.00     0.270 C 
HETATM   25  N   UNL     1      37.201 -11.161   0.970  1.00  0.00    -0.365 N 
HETATM   26  H   UNL     1      36.567 -10.828   1.687  1.00  0.00     0.159 HD
HETATM   27  H   UNL     1      36.980 -11.083  -0.010  1.00  0.00     0.159 HD
HETATM   28  O   UNL     1      39.206 -12.103   0.522  1.00  0.00    -0.266 OA
ENDBRANCH   8  24
TORSDOF 5
ENDMDL
MODEL 9
REMARK VINA RESULT:      -7.5      2.066      2.128
REMARK  5 active torsions:
REMARK  status: ('A' for Active; 'I' for Inactive)
REMARK    1  A    between atoms: C_2  and  C_3 
REMARK    2  A    between atoms: C_2  and  C_9 
REMARK    3  A    between atoms: C_9  and  C_10 
REMARK       I    between atoms: C_10  and  N_11 
REMARK    4  A    between atoms: N_11  and  C_12 
REMARK    5  A    between atoms: C_19  and  C_20 
REMARK       I    between atoms: C_20  and  N_21 
ROOT
HETATM    1  C   UNL     1      41.843 -14.009   2.029  1.00  0.00     0.035 A 
HETATM    2  C   UNL     1      41.946 -13.819   0.644  1.00  0.00     0.046 A 
HETATM    3  C   UNL     1      41.556 -12.584   0.079  1.00  0.00     0.030 A 
HETATM    4  C   UNL     1      41.070 -11.587   0.915  1.00  0.00     0.063 A 
HETATM    5  N   UNL     1      40.768 -10.539   0.092  1.00  0.00    -0.277 N 
HETATM    6  H   UNL     1      40.383  -9.640   0.359  1.00  0.00     0.189 HD
HETATM    7  N   UNL     1      41.026 -10.757  -1.207  1.00  0.00    -0.168 NA
HETATM    8  C   UNL     1      41.521 -12.017  -1.232  1.00  0.00     0.156 A 
HETATM    9  C   UNL     1      40.961 -11.739   2.298  1.00  0.00     0.034 A 
HETATM   10  C   UNL     1      41.365 -12.968   2.836  1.00  0.00     0.032 A 
ENDROOT
BRANCH   1  11
HETATM   11  N   UNL     1      42.230 -15.199   2.685  1.00  0.00    -0.327 N 
HETATM   12  C   UNL     1      41.575 -16.414   2.666  1.00  0.00     0.222 C 
HETATM   13  O   UNL     1      40.496 -16.638   2.123  1.00  0.00    -0.273 OA
HETATM   14  H   UNL     1      43.006 -15.106   3.324  1.00  0.00     0.169 HD
BRANCH  12  15
HETATM   15  C   UNL     1      42.334 -17.572   3.305  1.00  0.00     0.112 C 
BRANCH  15  16
HETATM   16  C   UNL     1      43.618 -18.061   2.615  1.00  0.00     0.023 C 
HETATM   17  C   UNL     1      43.566 -17.716   1.121  1.00  0.00     0.015 C 
BRANCH  16  18
HETATM   18  C   UNL     1      43.917 -19.540   2.783  1.00  0.00    -0.054 A 
HETATM   19  C   UNL     1      43.635 -20.477   1.778  1.00  0.00     0.007 A 
HETATM   20  C   UNL     1      43.939 -21.828   1.961  1.00  0.00     0.001 A 
HETATM   21  C   UNL     1      44.536 -22.260   3.143  1.00  0.00     0.000 A 
HETATM   22  C   UNL     1      44.832 -21.340   4.145  1.00  0.00     0.001 A 
HETATM   23  C   UNL     1      44.529 -19.990   3.965  1.00  0.00     0.007 A 
ENDBRANCH  16  18
ENDBRANCH  15  16
ENDBRANCH  12  15
ENDBRANCH   1  11
BRANCH   8  24
HETATM   24  C   UNL     1      41.951 -12.639  -2.492  1.00  0.00     0.270 C 
HETATM   25  N   UNL     1      40.995 -12.638  -3.470  1.00  0.00    -0.365 N 
HETATM   26  H   UNL     1      40.096 -12.216  -3.269  1.00  0.00     0.159 HD
HETATM   27  H   UNL     1      41.204 -13.034  -4.372  1.00  0.00     0.159 HD
HETATM   28  O   UNL     1      43.061 -13.120  -2.693  1.00  0.00    -0.266 OA
ENDBRANCH   8  24
TORSDOF 5
ENDMDL
MODEL 10
REMARK VINA RESULT:      -7.4      3.292      8.606
REMARK  5 active torsions:
REMARK  status: ('A' for Active; 'I' for Inactive)
REMARK    1  A    between atoms: C_2  and  C_3 
REMARK    2  A    between atoms: C_2  and  C_9 
REMARK    3  A    between atoms: C_9  and  C_10 
REMARK       I    between atoms: C_10  and  N_11 
REMARK    4  A    between atoms: N_11  and  C_12 
REMARK    5  A    between atoms: C_19  and  C_20 
REMARK       I    between atoms: C_20  and  N_21 
ROOT
HETATM    1  C   UNL     1      42.906 -17.401   2.431  1.00  0.00     0.035 A 
HETATM    2  C   UNL     1      43.298 -17.563   3.768  1.00  0.00     0.046 A 
HETATM    3  C   UNL     1      43.892 -18.777   4.178  1.00  0.00     0.030 A 
HETATM    4  C   UNL     1      44.068 -19.788   3.241  1.00  0.00     0.063 A 
HETATM    5  N   UNL     1      44.642 -20.821   3.927  1.00  0.00    -0.277 N 
HETATM    6  H   UNL     1      44.907 -21.729   3.561  1.00  0.00     0.189 HD
HETATM    7  N   UNL     1      44.870 -20.570   5.226  1.00  0.00    -0.168 NA
HETATM    8  C   UNL     1      44.418 -19.306   5.396  1.00  0.00     0.156 A 
HETATM    9  C   UNL     1      43.698 -19.658   1.902  1.00  0.00     0.034 A 
HETATM   10  C   UNL     1      43.121 -18.441   1.517  1.00  0.00     0.032 A 
ENDROOT
BRANCH   1  11
HETATM   11  N   UNL     1      42.325 -16.216   1.925  1.00  0.00    -0.327 N 
HETATM   12  C   UNL     1      40.981 -15.956   1.746  1.00  0.00     0.222 C 
HETATM   13  O   UNL     1      40.066 -16.752   1.936  1.00  0.00    -0.273 OA
HETATM   14  H   UNL     1      42.977 -15.542   1.552  1.00  0.00     0.169 HD
BRANCH  12  15
HETATM   15  C   UNL     1      40.643 -14.518   1.369  1.00  0.00     0.112 C 
BRANCH  15  16
HETATM   16  C   UNL     1      41.802 -13.574   1.008  1.00  0.00     0.023 C 
HETATM   17  C   UNL     1      41.682 -12.275   1.815  1.00  0.00     0.015 C 
BRANCH  16  18
HETATM   18  C   UNL     1      41.929 -13.243  -0.468  1.00  0.00    -0.054 A 
HETATM   19  C   UNL     1      41.457 -14.104  -1.470  1.00  0.00     0.007 A 
HETATM   20  C   UNL     1      41.577 -13.759  -2.818  1.00  0.00     0.001 A 
HETATM   21  C   UNL     1      42.160 -12.548  -3.184  1.00  0.00     0.000 A 
HETATM   22  C   UNL     1      42.624 -11.679  -2.201  1.00  0.00     0.001 A 
HETATM   23  C   UNL     1      42.506 -12.021  -0.853  1.00  0.00     0.007 A 
ENDBRANCH  16  18
ENDBRANCH  15  16
ENDBRANCH  12  15
ENDBRANCH   1  11
BRANCH   8  24
HETATM   24  C   UNL     1      44.503 -18.638   6.702  1.00  0.00     0.270 C 
HETATM   25  N   UNL     1      43.555 -19.045   7.600  1.00  0.00    -0.365 N 
HETATM   26  H   UNL     1      42.892 -19.757   7.317  1.00  0.00     0.159 HD
HETATM   27  H   UNL     1      43.543 -18.648   8.527  1.00  0.00     0.159 HD
HETATM   28  O   UNL     1      45.340 -17.793   7.004  1.00  0.00    -0.266 OA
ENDBRANCH   8  24
TORSDOF 5
ENDMDL
