MODEL 1
REMARK VINA RESULT:      -9.4      0.000      0.000
REMARK  7 active torsions:
REMARK  status: ('A' for Active; 'I' for Inactive)
REMARK    1  A    between atoms: C_2  and  C_3 
REMARK    2  A    between atoms: C_2  and  C_9 
REMARK    3  A    between atoms: C_9  and  C_10 
REMARK       I    between atoms: C_10  and  N_11 
REMARK    4  A    between atoms: N_11  and  N_12 
REMARK       I    between atoms: N_12  and  C_13 
REMARK    5  A    between atoms: C_13  and  C_14 
REMARK    6  A    between atoms: C_18  and  C_19 
REMARK    7  A    between atoms: C_22  and  O_23 
ROOT
HETATM    1  N   UNL     1      43.984 -14.395   7.780  1.00  0.00    -0.262 N 
HETATM    2  C   UNL     1      44.740 -13.276   8.052  1.00  0.00     0.288 C 
HETATM    3  O   UNL     1      45.863 -13.117   7.576  1.00  0.00    -0.264 OA
HETATM    4  H   UNL     1      43.048 -14.551   8.145  1.00  0.00     0.190 HD
ENDROOT
BRANCH   2   5
HETATM    5  C   UNL     1      44.122 -12.315   8.923  1.00  0.00     0.121 A 
HETATM    6  N   UNL     1      43.201 -11.413   8.469  1.00  0.00    -0.272 N 
HETATM    7  H   UNL     1      42.867 -11.311   7.516  1.00  0.00     0.189 HD
HETATM    8  N   UNL     1      42.710 -10.605   9.418  1.00  0.00    -0.174 NA
HETATM    9  C   UNL     1      43.330 -10.981  10.547  1.00  0.00     0.089 A 
HETATM   10  C   UNL     1      44.230 -12.051  10.275  1.00  0.00     0.071 A 
BRANCH   9  11
HETATM   11  C   UNL     1      43.046 -10.338  11.838  1.00  0.00    -0.005 A 
HETATM   12  C   UNL     1      42.785 -11.113  12.976  1.00  0.00     0.016 A 
HETATM   13  C   UNL     1      42.537 -10.508  14.212  1.00  0.00     0.037 A 
HETATM   14  C   UNL     1      42.545  -9.119  14.341  1.00  0.00     0.068 A 
HETATM   15  C   UNL     1      42.792  -8.337  13.214  1.00  0.00     0.037 A 
HETATM   16  C   UNL     1      43.040  -8.943  11.973  1.00  0.00     0.016 A 
BRANCH  14  17
HETATM   17  O   UNL     1      42.297  -8.657  15.603  1.00  0.00    -0.356 OA
HETATM   18  C   UNL     1      41.468  -7.507  15.715  1.00  0.00     0.210 C 
ENDBRANCH  14  17
ENDBRANCH   9  11
ENDBRANCH   2   5
BRANCH   1  19
HETATM   19  N   UNL     1      44.473 -15.361   6.898  1.00  0.00    -0.267 N 
HETATM   20  C   UNL     1      43.858 -16.595   6.891  1.00  0.00     0.236 C 
HETATM   21  O   UNL     1      42.963 -16.885   7.682  1.00  0.00    -0.272 OA
HETATM   22  H   UNL     1      45.178 -15.065   6.225  1.00  0.00     0.190 HD
BRANCH  20  23
HETATM   23  C   UNL     1      44.411 -17.532   5.836  1.00  0.00     0.113 C 
BRANCH  23  24
HETATM   24  C   UNL     1      43.417 -17.805   4.694  1.00  0.00     0.023 C 
HETATM   25  C   UNL     1      43.346 -16.636   3.701  1.00  0.00     0.015 C 
BRANCH  24  26
HETATM   26  C   UNL     1      43.775 -19.096   3.972  1.00  0.00    -0.054 A 
HETATM   27  C   UNL     1      44.517 -20.110   4.597  1.00  0.00     0.007 A 
HETATM   28  C   UNL     1      44.835 -21.285   3.912  1.00  0.00     0.001 A 
HETATM   29  C   UNL     1      44.415 -21.462   2.596  1.00  0.00     0.000 A 
HETATM   30  C   UNL     1      43.677 -20.464   1.963  1.00  0.00     0.001 A 
HETATM   31  C   UNL     1      43.358 -19.289   2.647  1.00  0.00     0.007 A 
ENDBRANCH  24  26
ENDBRANCH  23  24
ENDBRANCH  20  23
ENDBRANCH   1  19
TORSDOF 7
ENDMDL
MODEL 2
REMARK VINA RESULT:      -9.2      1.303      1.725
REMARK  7 active torsions:
REMARK  status: ('A' for Active; 'I' for Inactive)
REMARK    1  A    between atoms: C_2  and  C_3 
REMARK    2  A    between atoms: C_2  and  C_9 
REMARK    3  A    between atoms: C_9  and  C_10 
REMARK       I    between atoms: C_10  and  N_11 
REMARK    4  A    between atoms: N_11  and  N_12 
REMARK       I    between atoms: N_12  and  C_13 
REMARK    5  A    between atoms: C_13  and  C_14 
REMARK    6  A    between atoms: C_18  and  C_19 
REMARK    7  A    between atoms: C_22  and  O_23 
ROOT
HETATM    1  N   UNL     1      44.291 -14.634   7.432  1.00  0.00    -0.262 N 
HETATM    2  C   UNL     1      45.172 -13.579   7.348  1.00  0.00     0.288 C 
HETATM    3  O   UNL     1      46.042 -13.524   6.480  1.00  0.00    -0.264 OA
HETATM    4  H   UNL     1      43.552 -14.704   8.128  1.00  0.00     0.190 HD
ENDROOT
BRANCH   2   5
HETATM    5  C   UNL     1      44.996 -12.553   8.338  1.00  0.00     0.121 A 
HETATM    6  N   UNL     1      45.974 -11.638   8.614  1.00  0.00    -0.272 N 
HETATM    7  H   UNL     1      46.892 -11.580   8.185  1.00  0.00     0.189 HD
HETATM    8  N   UNL     1      45.637 -10.740   9.548  1.00  0.00    -0.174 NA
HETATM    9  C   UNL     1      44.388 -11.070   9.912  1.00  0.00     0.089 A 
HETATM   10  C   UNL     1      43.953 -12.210   9.175  1.00  0.00     0.071 A 
BRANCH   9  11
HETATM   11  C   UNL     1      43.644 -10.301  10.919  1.00  0.00    -0.005 A 
HETATM   12  C   UNL     1      42.498  -9.579  10.558  1.00  0.00     0.016 A 
HETATM   13  C   UNL     1      41.773  -8.863  11.517  1.00  0.00     0.037 A 
HETATM   14  C   UNL     1      42.173  -8.853  12.853  1.00  0.00     0.068 A 
HETATM   15  C   UNL     1      43.317  -9.558  13.222  1.00  0.00     0.037 A 
HETATM   16  C   UNL     1      44.046 -10.275  12.262  1.00  0.00     0.016 A 
BRANCH  14  17
HETATM   17  O   UNL     1      41.373  -8.124  13.687  1.00  0.00    -0.356 OA
HETATM   18  C   UNL     1      40.958  -8.754  14.893  1.00  0.00     0.210 C 
ENDBRANCH  14  17
ENDBRANCH   9  11
ENDBRANCH   2   5
BRANCH   1  19
HETATM   19  N   UNL     1      44.343 -15.655   6.481  1.00  0.00    -0.267 N 
HETATM   20  C   UNL     1      43.216 -16.432   6.308  1.00  0.00     0.236 C 
HETATM   21  O   UNL     1      42.218 -16.302   7.014  1.00  0.00    -0.272 OA
HETATM   22  H   UNL     1      45.166 -15.695   5.882  1.00  0.00     0.190 HD
BRANCH  20  23
HETATM   23  C   UNL     1      43.355 -17.446   5.191  1.00  0.00     0.113 C 
BRANCH  23  24
HETATM   24  C   UNL     1      44.351 -18.571   5.521  1.00  0.00     0.023 C 
HETATM   25  C   UNL     1      44.072 -19.201   6.893  1.00  0.00     0.015 C 
BRANCH  24  26
HETATM   26  C   UNL     1      44.334 -19.634   4.432  1.00  0.00    -0.054 A 
HETATM   27  C   UNL     1      44.753 -20.951   4.679  1.00  0.00     0.007 A 
HETATM   28  C   UNL     1      44.730 -21.909   3.662  1.00  0.00     0.001 A 
HETATM   29  C   UNL     1      44.288 -21.563   2.387  1.00  0.00     0.000 A 
HETATM   30  C   UNL     1      43.868 -20.260   2.128  1.00  0.00     0.001 A 
HETATM   31  C   UNL     1      43.890 -19.302   3.143  1.00  0.00     0.007 A 
ENDBRANCH  24  26
ENDBRANCH  23  24
ENDBRANCH  20  23
ENDBRANCH   1  19
TORSDOF 7
ENDMDL
MODEL 3
REMARK VINA RESULT:      -9.0      2.040     11.515
REMARK  7 active torsions:
REMARK  status: ('A' for Active; 'I' for Inactive)
REMARK    1  A    between atoms: C_2  and  C_3 
REMARK    2  A    between atoms: C_2  and  C_9 
REMARK    3  A    between atoms: C_9  and  C_10 
REMARK       I    between atoms: C_10  and  N_11 
REMARK    4  A    between atoms: N_11  and  N_12 
REMARK       I    between atoms: N_12  and  C_13 
REMARK    5  A    between atoms: C_13  and  C_14 
REMARK    6  A    between atoms: C_18  and  C_19 
REMARK    7  A    between atoms: C_22  and  O_23 
ROOT
HETATM    1  N   UNL     1      44.310 -13.834   8.357  1.00  0.00    -0.262 N 
HETATM    2  C   UNL     1      43.778 -14.183   7.135  1.00  0.00     0.288 C 
HETATM    3  O   UNL     1      43.345 -13.343   6.349  1.00  0.00    -0.264 OA
HETATM    4  H   UNL     1      44.689 -14.502   9.024  1.00  0.00     0.190 HD
ENDROOT
BRANCH   2   5
HETATM    5  C   UNL     1      43.773 -15.591   6.849  1.00  0.00     0.121 A 
HETATM    6  N   UNL     1      43.325 -16.512   7.753  1.00  0.00    -0.272 N 
HETATM    7  H   UNL     1      42.970 -16.328   8.687  1.00  0.00     0.189 HD
HETATM    8  N   UNL     1      43.370 -17.778   7.317  1.00  0.00    -0.174 NA
HETATM    9  C   UNL     1      43.870 -17.697   6.073  1.00  0.00     0.089 A 
HETATM   10  C   UNL     1      44.141 -16.337   5.746  1.00  0.00     0.071 A 
BRANCH   9  11
HETATM   11  C   UNL     1      44.060 -18.889   5.235  1.00  0.00    -0.005 A 
HETATM   12  C   UNL     1      43.794 -18.840   3.860  1.00  0.00     0.016 A 
HETATM   13  C   UNL     1      43.995 -19.965   3.053  1.00  0.00     0.037 A 
HETATM   14  C   UNL     1      44.465 -21.160   3.598  1.00  0.00     0.068 A 
HETATM   15  C   UNL     1      44.722 -21.224   4.966  1.00  0.00     0.037 A 
HETATM   16  C   UNL     1      44.520 -20.098   5.777  1.00  0.00     0.016 A 
BRANCH  14  17
HETATM   17  O   UNL     1      44.626 -22.177   2.700  1.00  0.00    -0.356 OA
HETATM   18  C   UNL     1      44.108 -21.968   1.392  1.00  0.00     0.210 C 
ENDBRANCH  14  17
ENDBRANCH   9  11
ENDBRANCH   2   5
BRANCH   1  19
HETATM   19  N   UNL     1      44.412 -12.486   8.705  1.00  0.00    -0.267 N 
HETATM   20  C   UNL     1      44.414 -12.166  10.047  1.00  0.00     0.236 C 
HETATM   21  O   UNL     1      44.248 -13.014  10.921  1.00  0.00    -0.272 OA
HETATM   22  H   UNL     1      44.601 -11.822   7.956  1.00  0.00     0.190 HD
BRANCH  20  23
HETATM   23  C   UNL     1      44.620 -10.688  10.309  1.00  0.00     0.113 C 
BRANCH  23  24
HETATM   24  C   UNL     1      43.299  -9.918  10.479  1.00  0.00     0.023 C 
HETATM   25  C   UNL     1      42.216 -10.412   9.510  1.00  0.00     0.015 C 
BRANCH  24  26
HETATM   26  C   UNL     1      42.809 -10.012  11.918  1.00  0.00    -0.054 A 
HETATM   27  C   UNL     1      41.653 -10.730  12.259  1.00  0.00     0.007 A 
HETATM   28  C   UNL     1      41.223 -10.798  13.586  1.00  0.00     0.001 A 
HETATM   29  C   UNL     1      41.943 -10.152  14.588  1.00  0.00     0.000 A 
HETATM   30  C   UNL     1      43.094  -9.437  14.264  1.00  0.00     0.001 A 
HETATM   31  C   UNL     1      43.524  -9.367  12.938  1.00  0.00     0.007 A 
ENDBRANCH  24  26
ENDBRANCH  23  24
ENDBRANCH  20  23
ENDBRANCH   1  19
TORSDOF 7
ENDMDL
MODEL 4
REMARK VINA RESULT:      -9.0      2.262     11.633
REMARK  7 active torsions:
REMARK  status: ('A' for Active; 'I' for Inactive)
REMARK    1  A    between atoms: C_2  and  C_3 
REMARK    2  A    between atoms: C_2  and  C_9 
REMARK    3  A    between atoms: C_9  and  C_10 
REMARK       I    between atoms: C_10  and  N_11 
REMARK    4  A    between atoms: N_11  and  N_12 
REMARK       I    between atoms: N_12  and  C_13 
REMARK    5  A    between atoms: C_13  and  C_14 
REMARK    6  A    between atoms: C_18  and  C_19 
REMARK    7  A    between atoms: C_22  and  O_23 
ROOT
HETATM    1  N   UNL     1      43.682 -13.223   7.303  1.00  0.00    -0.262 N 
HETATM    2  C   UNL     1      42.837 -13.155   6.217  1.00  0.00     0.288 C 
HETATM    3  O   UNL     1      41.963 -12.294   6.124  1.00  0.00    -0.264 OA
HETATM    4  H   UNL     1      44.423 -13.912   7.405  1.00  0.00     0.190 HD
ENDROOT
BRANCH   2   5
HETATM    5  C   UNL     1      43.055 -14.154   5.207  1.00  0.00     0.121 A 
HETATM    6  N   UNL     1      43.307 -13.824   3.905  1.00  0.00    -0.272 N 
HETATM    7  H   UNL     1      43.360 -12.889   3.512  1.00  0.00     0.189 HD
HETATM    8  N   UNL     1      43.507 -14.877   3.101  1.00  0.00    -0.174 NA
HETATM    9  C   UNL     1      43.381 -15.950   3.897  1.00  0.00     0.089 A 
HETATM   10  C   UNL     1      43.091 -15.535   5.230  1.00  0.00     0.071 A 
BRANCH   9  11
HETATM   11  C   UNL     1      43.551 -17.317   3.389  1.00  0.00    -0.005 A 
HETATM   12  C   UNL     1      43.324 -17.606   2.037  1.00  0.00     0.016 A 
HETATM   13  C   UNL     1      43.506 -18.902   1.541  1.00  0.00     0.037 A 
HETATM   14  C   UNL     1      43.919 -19.935   2.382  1.00  0.00     0.068 A 
HETATM   15  C   UNL     1      44.138 -19.663   3.731  1.00  0.00     0.037 A 
HETATM   16  C   UNL     1      43.954 -18.365   4.230  1.00  0.00     0.016 A 
BRANCH  14  17
HETATM   17  O   UNL     1      44.068 -21.148   1.772  1.00  0.00    -0.356 OA
HETATM   18  C   UNL     1      44.418 -22.248   2.604  1.00  0.00     0.210 C 
ENDBRANCH  14  17
ENDBRANCH   9  11
ENDBRANCH   2   5
BRANCH   1  19
HETATM   19  N   UNL     1      43.588 -12.262   8.311  1.00  0.00    -0.267 N 
HETATM   20  C   UNL     1      44.685 -12.075   9.127  1.00  0.00     0.236 C 
HETATM   21  O   UNL     1      45.691 -12.776   9.040  1.00  0.00    -0.272 OA
HETATM   22  H   UNL     1      42.761 -11.668   8.316  1.00  0.00     0.190 HD
BRANCH  20  23
HETATM   23  C   UNL     1      44.503 -10.949  10.124  1.00  0.00     0.113 C 
BRANCH  23  24
HETATM   24  C   UNL     1      43.403 -11.236  11.160  1.00  0.00     0.023 C 
HETATM   25  C   UNL     1      43.766 -12.416  12.073  1.00  0.00     0.015 C 
BRANCH  24  26
HETATM   26  C   UNL     1      43.112  -9.992  11.988  1.00  0.00    -0.054 A 
HETATM   27  C   UNL     1      43.273  -9.979  13.382  1.00  0.00     0.007 A 
HETATM   28  C   UNL     1      42.998  -8.825  14.120  1.00  0.00     0.001 A 
HETATM   29  C   UNL     1      42.559  -7.671  13.474  1.00  0.00     0.000 A 
HETATM   30  C   UNL     1      42.396  -7.670  12.091  1.00  0.00     0.001 A 
HETATM   31  C   UNL     1      42.670  -8.822  11.352  1.00  0.00     0.007 A 
ENDBRANCH  24  26
ENDBRANCH  23  24
ENDBRANCH  20  23
ENDBRANCH   1  19
TORSDOF 7
ENDMDL
MODEL 5
REMARK VINA RESULT:      -8.2      3.424     11.363
REMARK  7 active torsions:
REMARK  status: ('A' for Active; 'I' for Inactive)
REMARK    1  A    between atoms: C_2  and  C_3 
REMARK    2  A    between atoms: C_2  and  C_9 
REMARK    3  A    between atoms: C_9  and  C_10 
REMARK       I    between atoms: C_10  and  N_11 
REMARK    4  A    between atoms: N_11  and  N_12 
REMARK       I    between atoms: N_12  and  C_13 
REMARK    5  A    between atoms: C_13  and  C_14 
REMARK    6  A    between atoms: C_18  and  C_19 
REMARK    7  A    between atoms: C_22  and  O_23 
ROOT
HETATM    1  N   UNL     1      40.147 -13.588   6.594  1.00  0.00    -0.262 N 
HETATM    2  C   UNL     1      39.834 -13.622   5.253  1.00  0.00     0.288 C 
HETATM    3  O   UNL     1      39.163 -12.741   4.717  1.00  0.00    -0.264 OA
HETATM    4  H   UNL     1      40.709 -14.291   7.065  1.00  0.00     0.190 HD
ENDROOT
BRANCH   2   5
HETATM    5  C   UNL     1      40.351 -14.752   4.531  1.00  0.00     0.121 A 
HETATM    6  N   UNL     1      39.873 -15.106   3.301  1.00  0.00    -0.272 N 
HETATM    7  H   UNL     1      39.132 -14.647   2.780  1.00  0.00     0.189 HD
HETATM    8  N   UNL     1      40.480 -16.171   2.761  1.00  0.00    -0.174 NA
HETATM    9  C   UNL     1      41.397 -16.543   3.669  1.00  0.00     0.089 A 
HETATM   10  C   UNL     1      41.342 -15.677   4.799  1.00  0.00     0.071 A 
BRANCH   9  11
HETATM   11  C   UNL     1      42.298 -17.680   3.439  1.00  0.00    -0.005 A 
HETATM   12  C   UNL     1      42.425 -18.240   2.161  1.00  0.00     0.016 A 
HETATM   13  C   UNL     1      43.298 -19.309   1.931  1.00  0.00     0.037 A 
HETATM   14  C   UNL     1      44.063 -19.841   2.970  1.00  0.00     0.068 A 
HETATM   15  C   UNL     1      43.937 -19.300   4.248  1.00  0.00     0.037 A 
HETATM   16  C   UNL     1      43.061 -18.229   4.480  1.00  0.00     0.016 A 
BRANCH  14  17
HETATM   17  O   UNL     1      44.881 -20.874   2.610  1.00  0.00    -0.356 OA
HETATM   18  C   UNL     1      44.293 -21.927   1.855  1.00  0.00     0.210 C 
ENDBRANCH  14  17
ENDBRANCH   9  11
ENDBRANCH   2   5
BRANCH   1  19
HETATM   19  N   UNL     1      39.739 -12.501   7.370  1.00  0.00    -0.267 N 
HETATM   20  C   UNL     1      40.609 -11.438   7.497  1.00  0.00     0.236 C 
HETATM   21  O   UNL     1      41.742 -11.461   7.022  1.00  0.00    -0.272 OA
HETATM   22  H   UNL     1      38.775 -12.497   7.701  1.00  0.00     0.190 HD
BRANCH  20  23
HETATM   23  C   UNL     1      40.028 -10.281   8.284  1.00  0.00     0.113 C 
BRANCH  23  24
HETATM   24  C   UNL     1      41.105  -9.405   8.946  1.00  0.00     0.023 C 
HETATM   25  C   UNL     1      40.569  -8.012   9.310  1.00  0.00     0.015 C 
BRANCH  24  26
HETATM   26  C   UNL     1      41.671 -10.096  10.178  1.00  0.00    -0.054 A 
HETATM   27  C   UNL     1      43.053 -10.262  10.363  1.00  0.00     0.007 A 
HETATM   28  C   UNL     1      43.548 -10.902  11.501  1.00  0.00     0.001 A 
HETATM   29  C   UNL     1      42.670 -11.384  12.469  1.00  0.00     0.000 A 
HETATM   30  C   UNL     1      41.296 -11.226  12.300  1.00  0.00     0.001 A 
HETATM   31  C   UNL     1      40.800 -10.586  11.163  1.00  0.00     0.007 A 
ENDBRANCH  24  26
ENDBRANCH  23  24
ENDBRANCH  20  23
ENDBRANCH   1  19
TORSDOF 7
ENDMDL
MODEL 6
REMARK VINA RESULT:      -8.2      2.499     11.110
REMARK  7 active torsions:
REMARK  status: ('A' for Active; 'I' for Inactive)
REMARK    1  A    between atoms: C_2  and  C_3 
REMARK    2  A    between atoms: C_2  and  C_9 
REMARK    3  A    between atoms: C_9  and  C_10 
REMARK       I    between atoms: C_10  and  N_11 
REMARK    4  A    between atoms: N_11  and  N_12 
REMARK       I    between atoms: N_12  and  C_13 
REMARK    5  A    between atoms: C_13  and  C_14 
REMARK    6  A    between atoms: C_18  and  C_19 
REMARK    7  A    between atoms: C_22  and  O_23 
ROOT
HETATM    1  N   UNL     1      43.635 -12.928   7.680  1.00  0.00    -0.262 N 
HETATM    2  C   UNL     1      42.802 -12.968   6.583  1.00  0.00     0.288 C 
HETATM    3  O   UNL     1      42.014 -12.058   6.329  1.00  0.00    -0.264 OA
HETATM    4  H   UNL     1      44.306 -13.656   7.911  1.00  0.00     0.190 HD
ENDROOT
BRANCH   2   5
HETATM    5  C   UNL     1      42.924 -14.142   5.763  1.00  0.00     0.121 A 
HETATM    6  N   UNL     1      42.537 -14.153   4.453  1.00  0.00    -0.272 N 
HETATM    7  H   UNL     1      42.131 -13.382   3.930  1.00  0.00     0.189 HD
HETATM    8  N   UNL     1      42.740 -15.321   3.830  1.00  0.00    -0.174 NA
HETATM    9  C   UNL     1      43.281 -16.121   4.763  1.00  0.00     0.089 A 
HETATM   10  C   UNL     1      43.408 -15.415   5.994  1.00  0.00     0.071 A 
BRANCH   9  11
HETATM   11  C   UNL     1      43.673 -17.505   4.465  1.00  0.00    -0.005 A 
HETATM   12  C   UNL     1      43.346 -18.087   3.232  1.00  0.00     0.016 A 
HETATM   13  C   UNL     1      43.736 -19.397   2.933  1.00  0.00     0.037 A 
HETATM   14  C   UNL     1      44.460 -20.153   3.855  1.00  0.00     0.068 A 
HETATM   15  C   UNL     1      44.781 -19.590   5.088  1.00  0.00     0.037 A 
HETATM   16  C   UNL     1      44.390 -18.277   5.390  1.00  0.00     0.016 A 
BRANCH  14  17
HETATM   17  O   UNL     1      44.785 -21.412   3.436  1.00  0.00    -0.356 OA
HETATM   18  C   UNL     1      44.406 -21.767   2.112  1.00  0.00     0.210 C 
ENDBRANCH  14  17
ENDBRANCH   9  11
ENDBRANCH   2   5
BRANCH   1  19
HETATM   19  N   UNL     1      43.632 -11.803   8.507  1.00  0.00    -0.267 N 
HETATM   20  C   UNL     1      44.116 -11.947   9.791  1.00  0.00     0.236 C 
HETATM   21  O   UNL     1      44.465 -13.038  10.239  1.00  0.00    -0.272 OA
HETATM   22  H   UNL     1      43.386 -10.910   8.083  1.00  0.00     0.190 HD
BRANCH  20  23
HETATM   23  C   UNL     1      44.149 -10.646  10.567  1.00  0.00     0.113 C 
BRANCH  23  24
HETATM   24  C   UNL     1      43.135 -10.611  11.723  1.00  0.00     0.023 C 
HETATM   25  C   UNL     1      43.653  -9.796  12.917  1.00  0.00     0.015 C 
BRANCH  24  26
HETATM   26  C   UNL     1      41.798 -10.064  11.244  1.00  0.00    -0.054 A 
HETATM   27  C   UNL     1      41.708  -9.184  10.154  1.00  0.00     0.007 A 
HETATM   28  C   UNL     1      40.469  -8.693   9.735  1.00  0.00     0.001 A 
HETATM   29  C   UNL     1      39.305  -9.076  10.398  1.00  0.00     0.000 A 
HETATM   30  C   UNL     1      39.380  -9.950  11.481  1.00  0.00     0.001 A 
HETATM   31  C   UNL     1      40.617 -10.441  11.901  1.00  0.00     0.007 A 
ENDBRANCH  24  26
ENDBRANCH  23  24
ENDBRANCH  20  23
ENDBRANCH   1  19
TORSDOF 7
ENDMDL
MODEL 7
REMARK VINA RESULT:      -8.2      9.311     12.776
REMARK  7 active torsions:
REMARK  status: ('A' for Active; 'I' for Inactive)
REMARK    1  A    between atoms: C_2  and  C_3 
REMARK    2  A    between atoms: C_2  and  C_9 
REMARK    3  A    between atoms: C_9  and  C_10 
REMARK       I    between atoms: C_10  and  N_11 
REMARK    4  A    between atoms: N_11  and  N_12 
REMARK       I    between atoms: N_12  and  C_13 
REMARK    5  A    between atoms: C_13  and  C_14 
REMARK    6  A    between atoms: C_18  and  C_19 
REMARK    7  A    between atoms: C_22  and  O_23 
ROOT
HETATM    1  N   UNL     1      40.670 -16.028  -0.470  1.00  0.00    -0.262 N 
HETATM    2  C   UNL     1      41.007 -14.747  -0.848  1.00  0.00     0.288 C 
HETATM    3  O   UNL     1      41.998 -14.174  -0.398  1.00  0.00    -0.264 OA
HETATM    4  H   UNL     1      39.866 -16.535  -0.832  1.00  0.00     0.190 HD
ENDROOT
BRANCH   2   5
HETATM    5  C   UNL     1      40.122 -14.136  -1.801  1.00  0.00     0.121 A 
HETATM    6  N   UNL     1      40.572 -13.260  -2.748  1.00  0.00    -0.272 N 
HETATM    7  H   UNL     1      41.528 -12.944  -2.882  1.00  0.00     0.189 HD
HETATM    8  N   UNL     1      39.619 -12.801  -3.570  1.00  0.00    -0.174 NA
HETATM    9  C   UNL     1      38.488 -13.393  -3.152  1.00  0.00     0.089 A 
HETATM   10  C   UNL     1      38.765 -14.237  -2.037  1.00  0.00     0.071 A 
BRANCH   9  11
HETATM   11  C   UNL     1      37.200 -13.161  -3.818  1.00  0.00    -0.005 A 
HETATM   12  C   UNL     1      36.497 -14.226  -4.397  1.00  0.00     0.016 A 
HETATM   13  C   UNL     1      35.259 -14.016  -5.013  1.00  0.00     0.037 A 
HETATM   14  C   UNL     1      34.695 -12.741  -5.063  1.00  0.00     0.068 A 
HETATM   15  C   UNL     1      35.389 -11.672  -4.501  1.00  0.00     0.037 A 
HETATM   16  C   UNL     1      36.632 -11.881  -3.884  1.00  0.00     0.016 A 
BRANCH  14  17
HETATM   17  O   UNL     1      33.480 -12.674  -5.684  1.00  0.00    -0.356 OA
HETATM   18  C   UNL     1      32.553 -11.718  -5.183  1.00  0.00     0.210 C 
ENDBRANCH  14  17
ENDBRANCH   9  11
ENDBRANCH   2   5
BRANCH   1  19
HETATM   19  N   UNL     1      41.498 -16.728   0.409  1.00  0.00    -0.267 N 
HETATM   20  C   UNL     1      41.060 -16.902   1.705  1.00  0.00     0.236 C 
HETATM   21  O   UNL     1      40.018 -16.396   2.116  1.00  0.00    -0.272 OA
HETATM   22  H   UNL     1      42.325 -17.176   0.017  1.00  0.00     0.190 HD
BRANCH  20  23
HETATM   23  C   UNL     1      41.994 -17.751   2.544  1.00  0.00     0.113 C 
BRANCH  23  24
HETATM   24  C   UNL     1      43.186 -18.302   1.742  1.00  0.00     0.023 C 
HETATM   25  C   UNL     1      44.316 -17.271   1.609  1.00  0.00     0.015 C 
BRANCH  24  26
HETATM   26  C   UNL     1      43.707 -19.585   2.376  1.00  0.00    -0.054 A 
HETATM   27  C   UNL     1      44.346 -19.585   3.625  1.00  0.00     0.007 A 
HETATM   28  C   UNL     1      44.818 -20.775   4.185  1.00  0.00     0.001 A 
HETATM   29  C   UNL     1      44.655 -21.979   3.503  1.00  0.00     0.000 A 
HETATM   30  C   UNL     1      44.021 -21.994   2.263  1.00  0.00     0.001 A 
HETATM   31  C   UNL     1      43.550 -20.806   1.703  1.00  0.00     0.007 A 
ENDBRANCH  24  26
ENDBRANCH  23  24
ENDBRANCH  20  23
ENDBRANCH   1  19
TORSDOF 7
ENDMDL
MODEL 8
REMARK VINA RESULT:      -8.1      7.592     10.943
REMARK  7 active torsions:
REMARK  status: ('A' for Active; 'I' for Inactive)
REMARK    1  A    between atoms: C_2  and  C_3 
REMARK    2  A    between atoms: C_2  and  C_9 
REMARK    3  A    between atoms: C_9  and  C_10 
REMARK       I    between atoms: C_10  and  N_11 
REMARK    4  A    between atoms: N_11  and  N_12 
REMARK       I    between atoms: N_12  and  C_13 
REMARK    5  A    between atoms: C_13  and  C_14 
REMARK    6  A    between atoms: C_18  and  C_19 
REMARK    7  A    between atoms: C_22  and  O_23 
ROOT
HETATM    1  N   UNL     1      40.288 -16.253   2.989  1.00  0.00    -0.262 N 
HETATM    2  C   UNL     1      40.044 -14.929   3.283  1.00  0.00     0.288 C 
HETATM    3  O   UNL     1      40.285 -14.453   4.392  1.00  0.00    -0.264 OA
HETATM    4  H   UNL     1      40.113 -16.675   2.081  1.00  0.00     0.190 HD
ENDROOT
BRANCH   2   5
HETATM    5  C   UNL     1      39.495 -14.153   2.206  1.00  0.00     0.121 A 
HETATM    6  N   UNL     1      39.431 -12.789   2.257  1.00  0.00    -0.272 N 
HETATM    7  H   UNL     1      39.736 -12.192   3.019  1.00  0.00     0.189 HD
HETATM    8  N   UNL     1      38.910 -12.223   1.160  1.00  0.00    -0.174 NA
HETATM    9  C   UNL     1      38.613 -13.250   0.348  1.00  0.00     0.089 A 
HETATM   10  C   UNL     1      38.962 -14.481   0.975  1.00  0.00     0.071 A 
BRANCH   9  11
HETATM   11  C   UNL     1      38.031 -13.042  -0.984  1.00  0.00    -0.005 A 
HETATM   12  C   UNL     1      38.193 -14.004  -1.990  1.00  0.00     0.016 A 
HETATM   13  C   UNL     1      37.623 -13.823  -3.254  1.00  0.00     0.037 A 
HETATM   14  C   UNL     1      36.877 -12.680  -3.542  1.00  0.00     0.068 A 
HETATM   15  C   UNL     1      36.717 -11.710  -2.554  1.00  0.00     0.037 A 
HETATM   16  C   UNL     1      37.290 -11.890  -1.287  1.00  0.00     0.016 A 
BRANCH  14  17
HETATM   17  O   UNL     1      36.367 -12.630  -4.809  1.00  0.00    -0.356 OA
HETATM   18  C   UNL     1      35.722 -13.804  -5.289  1.00  0.00     0.210 C 
ENDBRANCH  14  17
ENDBRANCH   9  11
ENDBRANCH   2   5
BRANCH   1  19
HETATM   19  N   UNL     1      40.874 -17.077   3.952  1.00  0.00    -0.267 N 
HETATM   20  C   UNL     1      42.215 -17.371   3.818  1.00  0.00     0.236 C 
HETATM   21  O   UNL     1      42.871 -17.000   2.847  1.00  0.00    -0.272 OA
HETATM   22  H   UNL     1      40.312 -17.318   4.766  1.00  0.00     0.190 HD
BRANCH  20  23
HETATM   23  C   UNL     1      42.764 -18.196   4.964  1.00  0.00     0.113 C 
BRANCH  23  24
HETATM   24  C   UNL     1      44.249 -18.554   4.789  1.00  0.00     0.023 C 
HETATM   25  C   UNL     1      45.047 -18.349   6.085  1.00  0.00     0.015 C 
BRANCH  24  26
HETATM   26  C   UNL     1      44.398 -19.985   4.292  1.00  0.00    -0.054 A 
HETATM   27  C   UNL     1      44.252 -20.315   2.936  1.00  0.00     0.007 A 
HETATM   28  C   UNL     1      44.391 -21.637   2.505  1.00  0.00     0.001 A 
HETATM   29  C   UNL     1      44.679 -22.644   3.424  1.00  0.00     0.000 A 
HETATM   30  C   UNL     1      44.828 -22.331   4.773  1.00  0.00     0.001 A 
HETATM   31  C   UNL     1      44.689 -21.010   5.205  1.00  0.00     0.007 A 
ENDBRANCH  24  26
ENDBRANCH  23  24
ENDBRANCH  20  23
ENDBRANCH   1  19
TORSDOF 7
ENDMDL
MODEL 9
REMARK VINA RESULT:      -8.1      3.170     11.377
REMARK  7 active torsions:
REMARK  status: ('A' for Active; 'I' for Inactive)
REMARK    1  A    between atoms: C_2  and  C_3 
REMARK    2  A    between atoms: C_2  and  C_9 
REMARK    3  A    between atoms: C_9  and  C_10 
REMARK       I    between atoms: C_10  and  N_11 
REMARK    4  A    between atoms: N_11  and  N_12 
REMARK       I    between atoms: N_12  and  C_13 
REMARK    5  A    between atoms: C_13  and  C_14 
REMARK    6  A    between atoms: C_18  and  C_19 
REMARK    7  A    between atoms: C_22  and  O_23 
ROOT
HETATM    1  N   UNL     1      41.324 -13.392   6.205  1.00  0.00    -0.262 N 
HETATM    2  C   UNL     1      42.082 -13.475   5.058  1.00  0.00     0.288 C 
HETATM    3  O   UNL     1      42.691 -12.506   4.608  1.00  0.00    -0.264 OA
HETATM    4  H   UNL     1      40.819 -14.176   6.610  1.00  0.00     0.190 HD
ENDROOT
BRANCH   2   5
HETATM    5  C   UNL     1      42.110 -14.769   4.433  1.00  0.00     0.121 A 
HETATM    6  N   UNL     1      41.133 -15.178   3.570  1.00  0.00    -0.272 N 
HETATM    7  H   UNL     1      40.311 -14.654   3.287  1.00  0.00     0.189 HD
HETATM    8  N   UNL     1      41.326 -16.403   3.063  1.00  0.00    -0.174 NA
HETATM    9  C   UNL     1      42.475 -16.828   3.612  1.00  0.00     0.089 A 
HETATM   10  C   UNL     1      42.995 -15.828   4.485  1.00  0.00     0.071 A 
BRANCH   9  11
HETATM   11  C   UNL     1      43.049 -18.141   3.290  1.00  0.00    -0.005 A 
HETATM   12  C   UNL     1      43.856 -18.811   4.219  1.00  0.00     0.016 A 
HETATM   13  C   UNL     1      44.388 -20.072   3.927  1.00  0.00     0.037 A 
HETATM   14  C   UNL     1      44.125 -20.691   2.705  1.00  0.00     0.068 A 
HETATM   15  C   UNL     1      43.334 -20.029   1.768  1.00  0.00     0.037 A 
HETATM   16  C   UNL     1      42.801 -18.765   2.059  1.00  0.00     0.016 A 
BRANCH  14  17
HETATM   17  O   UNL     1      44.696 -21.922   2.550  1.00  0.00    -0.356 OA
HETATM   18  C   UNL     1      44.732 -22.764   3.696  1.00  0.00     0.210 C 
ENDBRANCH  14  17
ENDBRANCH   9  11
ENDBRANCH   2   5
BRANCH   1  19
HETATM   19  N   UNL     1      41.278 -12.192   6.916  1.00  0.00    -0.267 N 
HETATM   20  C   UNL     1      40.041 -11.722   7.307  1.00  0.00     0.236 C 
HETATM   21  O   UNL     1      38.996 -12.280   6.978  1.00  0.00    -0.272 OA
HETATM   22  H   UNL     1      42.165 -11.790   7.214  1.00  0.00     0.190 HD
BRANCH  20  23
HETATM   23  C   UNL     1      40.118 -10.464   8.147  1.00  0.00     0.113 C 
BRANCH  23  24
HETATM   24  C   UNL     1      41.493  -9.776   8.076  1.00  0.00     0.023 C 
HETATM   25  C   UNL     1      41.385  -8.325   7.587  1.00  0.00     0.015 C 
BRANCH  24  26
HETATM   26  C   UNL     1      42.188  -9.833   9.428  1.00  0.00    -0.054 A 
HETATM   27  C   UNL     1      41.696  -9.134  10.542  1.00  0.00     0.007 A 
HETATM   28  C   UNL     1      42.354  -9.201  11.772  1.00  0.00     0.001 A 
HETATM   29  C   UNL     1      43.511  -9.966  11.905  1.00  0.00     0.000 A 
HETATM   30  C   UNL     1      44.010 -10.665  10.809  1.00  0.00     0.001 A 
HETATM   31  C   UNL     1      43.354 -10.600   9.579  1.00  0.00     0.007 A 
ENDBRANCH  24  26
ENDBRANCH  23  24
ENDBRANCH  20  23
ENDBRANCH   1  19
TORSDOF 7
ENDMDL
MODEL 10
REMARK VINA RESULT:      -8.0      8.451     12.958
REMARK  7 active torsions:
REMARK  status: ('A' for Active; 'I' for Inactive)
REMARK    1  A    between atoms: C_2  and  C_3 
REMARK    2  A    between atoms: C_2  and  C_9 
REMARK    3  A    between atoms: C_9  and  C_10 
REMARK       I    between atoms: C_10  and  N_11 
REMARK    4  A    between atoms: N_11  and  N_12 
REMARK       I    between atoms: N_12  and  C_13 
REMARK    5  A    between atoms: C_13  and  C_14 
REMARK    6  A    between atoms: C_18  and  C_19 
REMARK    7  A    between atoms: C_22  and  O_23 
ROOT
HETATM    1  N   UNL     1      41.625 -16.183  -0.595  1.00  0.00    -0.262 N 
HETATM    2  C   UNL     1      41.239 -14.882  -0.833  1.00  0.00     0.288 C 
HETATM    3  O   UNL     1      41.737 -13.933  -0.228  1.00  0.00    -0.264 OA
HETATM    4  H   UNL     1      41.244 -16.987  -1.085  1.00  0.00     0.190 HD
ENDROOT
BRANCH   2   5
HETATM    5  C   UNL     1      40.224 -14.718  -1.837  1.00  0.00     0.121 A 
HETATM    6  N   UNL     1      40.257 -15.401  -3.019  1.00  0.00    -0.272 N 
HETATM    7  H   UNL     1      40.966 -16.064  -3.321  1.00  0.00     0.189 HD
HETATM    8  N   UNL     1      39.223 -15.145  -3.831  1.00  0.00    -0.174 NA
HETATM    9  C   UNL     1      38.472 -14.254  -3.165  1.00  0.00     0.089 A 
HETATM   10  C   UNL     1      39.073 -13.956  -1.907  1.00  0.00     0.071 A 
BRANCH   9  11
HETATM   11  C   UNL     1      37.218 -13.728  -3.719  1.00  0.00    -0.005 A 
HETATM   12  C   UNL     1      36.423 -14.521  -4.557  1.00  0.00     0.016 A 
HETATM   13  C   UNL     1      35.216 -14.034  -5.070  1.00  0.00     0.037 A 
HETATM   14  C   UNL     1      34.776 -12.748  -4.758  1.00  0.00     0.068 A 
HETATM   15  C   UNL     1      35.564 -11.945  -3.935  1.00  0.00     0.037 A 
HETATM   16  C   UNL     1      36.774 -12.431  -3.421  1.00  0.00     0.016 A 
BRANCH  14  17
HETATM   17  O   UNL     1      33.579 -12.399  -5.316  1.00  0.00    -0.356 OA
HETATM   18  C   UNL     1      33.575 -12.126  -6.712  1.00  0.00     0.210 C 
ENDBRANCH  14  17
ENDBRANCH   9  11
ENDBRANCH   2   5
BRANCH   1  19
HETATM   19  N   UNL     1      42.645 -16.443   0.322  1.00  0.00    -0.267 N 
HETATM   20  C   UNL     1      42.427 -17.422   1.268  1.00  0.00     0.236 C 
HETATM   21  O   UNL     1      41.348 -18.002   1.371  1.00  0.00    -0.272 OA
HETATM   22  H   UNL     1      43.540 -15.981   0.169  1.00  0.00     0.190 HD
BRANCH  20  23
HETATM   23  C   UNL     1      43.632 -17.681   2.149  1.00  0.00     0.113 C 
BRANCH  23  24
HETATM   24  C   UNL     1      43.472 -18.930   3.034  1.00  0.00     0.023 C 
HETATM   25  C   UNL     1      44.501 -20.015   2.688  1.00  0.00     0.015 C 
BRANCH  24  26
HETATM   26  C   UNL     1      43.566 -18.556   4.506  1.00  0.00    -0.054 A 
HETATM   27  C   UNL     1      42.502 -17.935   5.180  1.00  0.00     0.007 A 
HETATM   28  C   UNL     1      42.614 -17.600   6.532  1.00  0.00     0.001 A 
HETATM   29  C   UNL     1      43.788 -17.880   7.226  1.00  0.00     0.000 A 
HETATM   30  C   UNL     1      44.852 -18.497   6.570  1.00  0.00     0.001 A 
HETATM   31  C   UNL     1      44.742 -18.833   5.220  1.00  0.00     0.007 A 
ENDBRANCH  24  26
ENDBRANCH  23  24
ENDBRANCH  20  23
ENDBRANCH   1  19
TORSDOF 7
ENDMDL
