MODEL 1
REMARK VINA RESULT:      -8.9      0.000      0.000
REMARK  6 active torsions:
REMARK  status: ('A' for Active; 'I' for Inactive)
REMARK    1  A    between atoms: C_2  and  C_3 
REMARK    2  A    between atoms: C_3  and  C_4 
REMARK    3  A    between atoms: C_3  and  C_10 
REMARK    4  A    between atoms: C_10  and  C_11 
REMARK       I    between atoms: C_11  and  N_12 
REMARK    5  A    between atoms: N_12  and  C_13 
REMARK    6  A    between atoms: C_20  and  C_21 
REMARK       I    between atoms: C_21  and  N_22 
ROOT
HETATM    1  C   UNL     1      41.129 -16.545   1.098  1.00  0.00     0.035 A 
HETATM    2  C   UNL     1      41.370 -16.046  -0.189  1.00  0.00     0.046 A 
HETATM    3  C   UNL     1      40.804 -14.808  -0.572  1.00  0.00     0.030 A 
HETATM    4  C   UNL     1      40.007 -14.125   0.337  1.00  0.00     0.063 A 
HETATM    5  N   UNL     1      39.602 -12.993  -0.311  1.00  0.00    -0.277 N 
HETATM    6  H   UNL     1      39.001 -12.261   0.049  1.00  0.00     0.189 HD
HETATM    7  N   UNL     1      40.081 -12.865  -1.559  1.00  0.00    -0.168 NA
HETATM    8  C   UNL     1      40.828 -13.979  -1.735  1.00  0.00     0.156 A 
HETATM    9  C   UNL     1      39.744 -14.593   1.625  1.00  0.00     0.034 A 
HETATM   10  C   UNL     1      40.328 -15.812   1.987  1.00  0.00     0.032 A 
ENDROOT
BRANCH   1  11
HETATM   11  N   UNL     1      41.656 -17.759   1.586  1.00  0.00    -0.327 N 
HETATM   12  C   UNL     1      42.984 -18.134   1.677  1.00  0.00     0.222 C 
HETATM   13  O   UNL     1      43.953 -17.446   1.369  1.00  0.00    -0.273 OA
HETATM   14  H   UNL     1      40.969 -18.449   1.851  1.00  0.00     0.169 HD
BRANCH  12  15
HETATM   15  C   UNL     1      43.200 -19.511   2.300  1.00  0.00     0.113 C 
BRANCH  15  16
HETATM   16  C   UNL     1      44.375 -19.613   3.295  1.00  0.00     0.030 C 
BRANCH  16  17
HETATM   17  C   UNL     1      44.904 -21.067   3.504  1.00  0.00    -0.014 C 
HETATM   18  C   UNL     1      44.356 -22.015   2.428  1.00  0.00     0.010 C 
HETATM   19  C   UNL     1      44.620 -21.663   4.887  1.00  0.00     0.010 C 
ENDBRANCH  16  17
BRANCH  16  20
HETATM   20  C   UNL     1      44.114 -18.918   4.627  1.00  0.00    -0.053 A 
HETATM   21  C   UNL     1      45.143 -18.594   5.521  1.00  0.00     0.007 A 
HETATM   22  C   UNL     1      44.862 -17.960   6.734  1.00  0.00     0.001 A 
HETATM   23  C   UNL     1      43.549 -17.646   7.072  1.00  0.00     0.000 A 
HETATM   24  C   UNL     1      42.514 -17.961   6.197  1.00  0.00     0.001 A 
HETATM   25  C   UNL     1      42.795 -18.586   4.980  1.00  0.00     0.007 A 
ENDBRANCH  16  20
ENDBRANCH  15  16
ENDBRANCH  12  15
ENDBRANCH   1  11
BRANCH   8  26
HETATM   26  C   UNL     1      41.549 -14.214  -2.994  1.00  0.00     0.270 C 
HETATM   27  N   UNL     1      42.767 -13.594  -3.062  1.00  0.00    -0.365 N 
HETATM   28  H   UNL     1      43.078 -13.050  -2.267  1.00  0.00     0.159 HD
HETATM   29  H   UNL     1      43.344 -13.715  -3.879  1.00  0.00     0.159 HD
HETATM   30  O   UNL     1      41.136 -14.903  -3.920  1.00  0.00    -0.266 OA
ENDBRANCH   8  26
TORSDOF 6
ENDMDL
MODEL 2
REMARK VINA RESULT:      -8.7      1.584      3.191
REMARK  6 active torsions:
REMARK  status: ('A' for Active; 'I' for Inactive)
REMARK    1  A    between atoms: C_2  and  C_3 
REMARK    2  A    between atoms: C_3  and  C_4 
REMARK    3  A    between atoms: C_3  and  C_10 
REMARK    4  A    between atoms: C_10  and  C_11 
REMARK       I    between atoms: C_11  and  N_12 
REMARK    5  A    between atoms: N_12  and  C_13 
REMARK    6  A    between atoms: C_20  and  C_21 
REMARK       I    between atoms: C_21  and  N_22 
ROOT
HETATM    1  C   UNL     1      40.645 -15.058   1.414  1.00  0.00     0.035 A 
HETATM    2  C   UNL     1      41.005 -14.945   0.065  1.00  0.00     0.046 A 
HETATM    3  C   UNL     1      40.088 -14.387  -0.855  1.00  0.00     0.030 A 
HETATM    4  C   UNL     1      38.841 -13.980  -0.398  1.00  0.00     0.063 A 
HETATM    5  N   UNL     1      38.186 -13.506  -1.498  1.00  0.00    -0.277 N 
HETATM    6  H   UNL     1      37.245 -13.131  -1.538  1.00  0.00     0.189 HD
HETATM    7  N   UNL     1      38.901 -13.548  -2.633  1.00  0.00    -0.168 NA
HETATM    8  C   UNL     1      40.081 -14.088  -2.252  1.00  0.00     0.156 A 
HETATM    9  C   UNL     1      38.448 -14.081   0.937  1.00  0.00     0.034 A 
HETATM   10  C   UNL     1      39.379 -14.620   1.832  1.00  0.00     0.032 A 
ENDROOT
BRANCH   1  11
HETATM   11  N   UNL     1      41.487 -15.583   2.416  1.00  0.00    -0.327 N 
HETATM   12  C   UNL     1      42.645 -15.029   2.929  1.00  0.00     0.222 C 
HETATM   13  O   UNL     1      43.131 -13.947   2.615  1.00  0.00    -0.273 OA
HETATM   14  H   UNL     1      41.230 -16.498   2.756  1.00  0.00     0.169 HD
BRANCH  12  15
HETATM   15  C   UNL     1      43.287 -15.853   4.044  1.00  0.00     0.113 C 
BRANCH  15  16
HETATM   16  C   UNL     1      42.560 -17.166   4.403  1.00  0.00     0.030 C 
BRANCH  16  17
HETATM   17  C   UNL     1      42.194 -17.295   5.915  1.00  0.00    -0.014 C 
HETATM   18  C   UNL     1      40.735 -16.891   6.167  1.00  0.00     0.010 C 
HETATM   19  C   UNL     1      43.103 -16.510   6.866  1.00  0.00     0.010 C 
ENDBRANCH  16  17
BRANCH  16  20
HETATM   20  C   UNL     1      43.266 -18.418   3.891  1.00  0.00    -0.053 A 
HETATM   21  C   UNL     1      44.184 -19.135   4.670  1.00  0.00     0.007 A 
HETATM   22  C   UNL     1      44.813 -20.275   4.163  1.00  0.00     0.001 A 
HETATM   23  C   UNL     1      44.538 -20.710   2.870  1.00  0.00     0.000 A 
HETATM   24  C   UNL     1      43.630 -20.011   2.083  1.00  0.00     0.001 A 
HETATM   25  C   UNL     1      42.994 -18.876   2.591  1.00  0.00     0.007 A 
ENDBRANCH  16  20
ENDBRANCH  15  16
ENDBRANCH  12  15
ENDBRANCH   1  11
BRANCH   8  26
HETATM   26  C   UNL     1      41.167 -14.293  -3.222  1.00  0.00     0.270 C 
HETATM   27  N   UNL     1      41.717 -13.132  -3.695  1.00  0.00    -0.365 N 
HETATM   28  H   UNL     1      41.360 -12.251  -3.348  1.00  0.00     0.159 HD
HETATM   29  H   UNL     1      42.482 -13.173  -4.349  1.00  0.00     0.159 HD
HETATM   30  O   UNL     1      41.579 -15.386  -3.593  1.00  0.00    -0.266 OA
ENDBRANCH   8  26
TORSDOF 6
ENDMDL
MODEL 3
REMARK VINA RESULT:      -8.7      5.620      8.574
REMARK  6 active torsions:
REMARK  status: ('A' for Active; 'I' for Inactive)
REMARK    1  A    between atoms: C_2  and  C_3 
REMARK    2  A    between atoms: C_3  and  C_4 
REMARK    3  A    between atoms: C_3  and  C_10 
REMARK    4  A    between atoms: C_10  and  C_11 
REMARK       I    between atoms: C_11  and  N_12 
REMARK    5  A    between atoms: N_12  and  C_13 
REMARK    6  A    between atoms: C_20  and  C_21 
REMARK       I    between atoms: C_21  and  N_22 
ROOT
HETATM    1  C   UNL     1      44.589 -14.462   6.957  1.00  0.00     0.035 A 
HETATM    2  C   UNL     1      44.163 -13.913   8.173  1.00  0.00     0.046 A 
HETATM    3  C   UNL     1      44.889 -12.842   8.744  1.00  0.00     0.030 A 
HETATM    4  C   UNL     1      46.020 -12.373   8.089  1.00  0.00     0.063 A 
HETATM    5  N   UNL     1      46.505 -11.366   8.874  1.00  0.00    -0.277 N 
HETATM    6  H   UNL     1      47.329 -10.800   8.707  1.00  0.00     0.189 HD
HETATM    7  N   UNL     1      45.779 -11.121   9.977  1.00  0.00    -0.168 NA
HETATM    8  C   UNL     1      44.775 -12.024   9.910  1.00  0.00     0.156 A 
HETATM    9  C   UNL     1      46.474 -12.898   6.879  1.00  0.00     0.034 A 
HETATM   10  C   UNL     1      45.730 -13.946   6.324  1.00  0.00     0.032 A 
ENDROOT
BRANCH   1  11
HETATM   11  N   UNL     1      43.931 -15.519   6.294  1.00  0.00    -0.327 N 
HETATM   12  C   UNL     1      44.318 -16.844   6.216  1.00  0.00     0.222 C 
HETATM   13  O   UNL     1      45.306 -17.343   6.747  1.00  0.00    -0.273 OA
HETATM   14  H   UNL     1      43.107 -15.254   5.776  1.00  0.00     0.169 HD
BRANCH  12  15
HETATM   15  C   UNL     1      43.341 -17.733   5.449  1.00  0.00     0.113 C 
BRANCH  15  16
HETATM   16  C   UNL     1      43.608 -17.861   3.933  1.00  0.00     0.030 C 
BRANCH  16  17
HETATM   17  C   UNL     1      42.537 -17.159   3.041  1.00  0.00    -0.014 C 
HETATM   18  C   UNL     1      43.116 -15.912   2.359  1.00  0.00     0.010 C 
HETATM   19  C   UNL     1      41.243 -16.777   3.767  1.00  0.00     0.010 C 
ENDBRANCH  16  17
BRANCH  16  20
HETATM   20  C   UNL     1      43.866 -19.292   3.474  1.00  0.00    -0.053 A 
HETATM   21  C   UNL     1      43.475 -19.759   2.212  1.00  0.00     0.007 A 
HETATM   22  C   UNL     1      43.726 -21.079   1.831  1.00  0.00     0.001 A 
HETATM   23  C   UNL     1      44.367 -21.952   2.705  1.00  0.00     0.000 A 
HETATM   24  C   UNL     1      44.762 -21.505   3.962  1.00  0.00     0.001 A 
HETATM   25  C   UNL     1      44.519 -20.183   4.342  1.00  0.00     0.007 A 
ENDBRANCH  16  20
ENDBRANCH  15  16
ENDBRANCH  12  15
ENDBRANCH   1  11
BRANCH   8  26
HETATM   26  C   UNL     1      43.733 -12.075  10.947  1.00  0.00     0.270 C 
HETATM   27  N   UNL     1      43.945 -13.032  11.902  1.00  0.00    -0.365 N 
HETATM   28  H   UNL     1      44.777 -13.605  11.836  1.00  0.00     0.159 HD
HETATM   29  H   UNL     1      43.295 -13.128  12.665  1.00  0.00     0.159 HD
HETATM   30  O   UNL     1      42.754 -11.339  10.993  1.00  0.00    -0.266 OA
ENDBRANCH   8  26
TORSDOF 6
ENDMDL
MODEL 4
REMARK VINA RESULT:      -8.5      2.357      4.192
REMARK  6 active torsions:
REMARK  status: ('A' for Active; 'I' for Inactive)
REMARK    1  A    between atoms: C_2  and  C_3 
REMARK    2  A    between atoms: C_3  and  C_4 
REMARK    3  A    between atoms: C_3  and  C_10 
REMARK    4  A    between atoms: C_10  and  C_11 
REMARK       I    between atoms: C_11  and  N_12 
REMARK    5  A    between atoms: N_12  and  C_13 
REMARK    6  A    between atoms: C_20  and  C_21 
REMARK       I    between atoms: C_21  and  N_22 
ROOT
HETATM    1  C   UNL     1      40.978 -15.297  -1.175  1.00  0.00     0.035 A 
HETATM    2  C   UNL     1      40.036 -14.309  -0.862  1.00  0.00     0.046 A 
HETATM    3  C   UNL     1      39.127 -13.875  -1.855  1.00  0.00     0.030 A 
HETATM    4  C   UNL     1      39.205 -14.430  -3.125  1.00  0.00     0.063 A 
HETATM    5  N   UNL     1      38.228 -13.814  -3.854  1.00  0.00    -0.277 N 
HETATM    6  H   UNL     1      38.000 -13.968  -4.829  1.00  0.00     0.189 HD
HETATM    7  N   UNL     1      37.503 -12.917  -3.166  1.00  0.00    -0.168 NA
HETATM    8  C   UNL     1      38.045 -12.945  -1.927  1.00  0.00     0.156 A 
HETATM    9  C   UNL     1      40.132 -15.413  -3.473  1.00  0.00     0.034 A 
HETATM   10  C   UNL     1      41.010 -15.839  -2.469  1.00  0.00     0.032 A 
ENDROOT
BRANCH   1  11
HETATM   11  N   UNL     1      41.918 -15.812  -0.258  1.00  0.00    -0.327 N 
HETATM   12  C   UNL     1      41.749 -16.851   0.638  1.00  0.00     0.222 C 
HETATM   13  O   UNL     1      40.740 -17.537   0.770  1.00  0.00    -0.273 OA
HETATM   14  H   UNL     1      42.800 -15.322  -0.227  1.00  0.00     0.169 HD
BRANCH  12  15
HETATM   15  C   UNL     1      42.998 -17.177   1.455  1.00  0.00     0.113 C 
BRANCH  15  16
HETATM   16  C   UNL     1      42.749 -17.946   2.770  1.00  0.00     0.030 C 
BRANCH  16  17
HETATM   17  C   UNL     1      43.066 -17.120   4.056  1.00  0.00    -0.014 C 
HETATM   18  C   UNL     1      41.948 -17.266   5.097  1.00  0.00     0.010 C 
HETATM   19  C   UNL     1      43.334 -15.631   3.815  1.00  0.00     0.010 C 
ENDBRANCH  16  17
BRANCH  16  20
HETATM   20  C   UNL     1      43.411 -19.319   2.812  1.00  0.00    -0.053 A 
HETATM   21  C   UNL     1      44.294 -19.698   3.832  1.00  0.00     0.007 A 
HETATM   22  C   UNL     1      44.883 -20.965   3.833  1.00  0.00     0.001 A 
HETATM   23  C   UNL     1      44.602 -21.868   2.812  1.00  0.00     0.000 A 
HETATM   24  C   UNL     1      43.728 -21.509   1.791  1.00  0.00     0.001 A 
HETATM   25  C   UNL     1      43.132 -20.246   1.794  1.00  0.00     0.007 A 
ENDBRANCH  16  20
ENDBRANCH  15  16
ENDBRANCH  12  15
ENDBRANCH   1  11
BRANCH   8  26
HETATM   26  C   UNL     1      37.513 -12.097  -0.850  1.00  0.00     0.270 C 
HETATM   27  N   UNL     1      36.638 -11.136  -1.279  1.00  0.00    -0.365 N 
HETATM   28  H   UNL     1      36.418 -11.088  -2.267  1.00  0.00     0.159 HD
HETATM   29  H   UNL     1      36.205 -10.521  -0.610  1.00  0.00     0.159 HD
HETATM   30  O   UNL     1      37.795 -12.213   0.337  1.00  0.00    -0.266 OA
ENDBRANCH   8  26
TORSDOF 6
ENDMDL
MODEL 5
REMARK VINA RESULT:      -8.3      3.619      5.660
REMARK  6 active torsions:
REMARK  status: ('A' for Active; 'I' for Inactive)
REMARK    1  A    between atoms: C_2  and  C_3 
REMARK    2  A    between atoms: C_3  and  C_4 
REMARK    3  A    between atoms: C_3  and  C_10 
REMARK    4  A    between atoms: C_10  and  C_11 
REMARK       I    between atoms: C_11  and  N_12 
REMARK    5  A    between atoms: N_12  and  C_13 
REMARK    6  A    between atoms: C_20  and  C_21 
REMARK       I    between atoms: C_21  and  N_22 
ROOT
HETATM    1  C   UNL     1      40.894 -14.541   3.217  1.00  0.00     0.035 A 
HETATM    2  C   UNL     1      40.703 -13.838   4.413  1.00  0.00     0.046 A 
HETATM    3  C   UNL     1      39.764 -12.782   4.456  1.00  0.00     0.030 A 
HETATM    4  C   UNL     1      39.065 -12.457   3.300  1.00  0.00     0.063 A 
HETATM    5  N   UNL     1      38.258 -11.410   3.643  1.00  0.00    -0.277 N 
HETATM    6  H   UNL     1      37.612 -10.911   3.043  1.00  0.00     0.189 HD
HETATM    7  N   UNL     1      38.353 -11.032   4.928  1.00  0.00    -0.168 NA
HETATM    8  C   UNL     1      39.278 -11.873   5.445  1.00  0.00     0.156 A 
HETATM    9  C   UNL     1      39.233 -13.134   2.092  1.00  0.00     0.034 A 
HETATM   10  C   UNL     1      40.155 -14.187   2.078  1.00  0.00     0.032 A 
ENDROOT
BRANCH   1  11
HETATM   11  N   UNL     1      41.792 -15.619   3.069  1.00  0.00    -0.327 N 
HETATM   12  C   UNL     1      43.174 -15.580   3.071  1.00  0.00     0.222 C 
HETATM   13  O   UNL     1      43.870 -14.582   3.238  1.00  0.00    -0.273 OA
HETATM   14  H   UNL     1      41.362 -16.514   2.890  1.00  0.00     0.169 HD
BRANCH  12  15
HETATM   15  C   UNL     1      43.835 -16.949   2.929  1.00  0.00     0.113 C 
BRANCH  15  16
HETATM   16  C   UNL     1      43.158 -18.098   3.707  1.00  0.00     0.030 C 
BRANCH  16  17
HETATM   17  C   UNL     1      43.250 -17.952   5.259  1.00  0.00    -0.014 C 
HETATM   18  C   UNL     1      41.923 -17.454   5.847  1.00  0.00     0.010 C 
HETATM   19  C   UNL     1      44.387 -17.053   5.755  1.00  0.00     0.010 C 
ENDBRANCH  16  17
BRANCH  16  20
HETATM   20  C   UNL     1      43.591 -19.487   3.251  1.00  0.00    -0.053 A 
HETATM   21  C   UNL     1      43.207 -20.027   2.017  1.00  0.00     0.007 A 
HETATM   22  C   UNL     1      43.622 -21.306   1.637  1.00  0.00     0.001 A 
HETATM   23  C   UNL     1      44.420 -22.065   2.488  1.00  0.00     0.000 A 
HETATM   24  C   UNL     1      44.810 -21.545   3.718  1.00  0.00     0.001 A 
HETATM   25  C   UNL     1      44.404 -20.264   4.095  1.00  0.00     0.007 A 
ENDBRANCH  16  20
ENDBRANCH  15  16
ENDBRANCH  12  15
ENDBRANCH   1  11
BRANCH   8  26
HETATM   26  C   UNL     1      39.663 -11.794   6.862  1.00  0.00     0.270 C 
HETATM   27  N   UNL     1      39.227 -12.850   7.617  1.00  0.00    -0.365 N 
HETATM   28  H   UNL     1      38.703 -13.586   7.160  1.00  0.00     0.159 HD
HETATM   29  H   UNL     1      39.461 -12.894   8.595  1.00  0.00     0.159 HD
HETATM   30  O   UNL     1      40.322 -10.888   7.360  1.00  0.00    -0.266 OA
ENDBRANCH   8  26
TORSDOF 6
ENDMDL
MODEL 6
REMARK VINA RESULT:      -8.2      2.831      8.724
REMARK  6 active torsions:
REMARK  status: ('A' for Active; 'I' for Inactive)
REMARK    1  A    between atoms: C_2  and  C_3 
REMARK    2  A    between atoms: C_3  and  C_4 
REMARK    3  A    between atoms: C_3  and  C_10 
REMARK    4  A    between atoms: C_10  and  C_11 
REMARK       I    between atoms: C_11  and  N_12 
REMARK    5  A    between atoms: N_12  and  C_13 
REMARK    6  A    between atoms: C_20  and  C_21 
REMARK       I    between atoms: C_21  and  N_22 
ROOT
HETATM    1  C   UNL     1      42.967 -16.835   2.181  1.00  0.00     0.035 A 
HETATM    2  C   UNL     1      43.173 -16.884   3.566  1.00  0.00     0.046 A 
HETATM    3  C   UNL     1      43.723 -18.050   4.146  1.00  0.00     0.030 A 
HETATM    4  C   UNL     1      44.029 -19.128   3.324  1.00  0.00     0.063 A 
HETATM    5  N   UNL     1      44.521 -20.092   4.157  1.00  0.00    -0.277 N 
HETATM    6  H   UNL     1      44.841 -21.020   3.900  1.00  0.00     0.189 HD
HETATM    7  N   UNL     1      44.583 -19.734   5.449  1.00  0.00    -0.168 NA
HETATM    8  C   UNL     1      44.094 -18.473   5.459  1.00  0.00     0.156 A 
HETATM    9  C   UNL     1      43.834 -19.115   1.943  1.00  0.00     0.034 A 
HETATM   10  C   UNL     1      43.305 -17.943   1.390  1.00  0.00     0.032 A 
ENDROOT
BRANCH   1  11
HETATM   11  N   UNL     1      42.440 -15.717   1.500  1.00  0.00    -0.327 N 
HETATM   12  C   UNL     1      41.124 -15.478   1.151  1.00  0.00     0.222 C 
HETATM   13  O   UNL     1      40.164 -16.200   1.407  1.00  0.00    -0.273 OA
HETATM   14  H   UNL     1      43.123 -15.042   1.191  1.00  0.00     0.169 HD
BRANCH  12  15
HETATM   15  C   UNL     1      40.899 -14.138   0.454  1.00  0.00     0.113 C 
BRANCH  15  16
HETATM   16  C   UNL     1      41.326 -14.080  -1.029  1.00  0.00     0.030 C 
BRANCH  16  17
HETATM   17  C   UNL     1      41.820 -12.673  -1.491  1.00  0.00    -0.014 C 
HETATM   18  C   UNL     1      42.863 -12.794  -2.610  1.00  0.00     0.010 C 
HETATM   19  C   UNL     1      42.384 -11.790  -0.374  1.00  0.00     0.010 C 
ENDBRANCH  16  17
BRANCH  16  20
HETATM   20  C   UNL     1      40.288 -14.650  -1.989  1.00  0.00    -0.053 A 
HETATM   21  C   UNL     1      40.555 -15.745  -2.822  1.00  0.00     0.007 A 
HETATM   22  C   UNL     1      39.577 -16.235  -3.692  1.00  0.00     0.001 A 
HETATM   23  C   UNL     1      38.322 -15.635  -3.745  1.00  0.00     0.000 A 
HETATM   24  C   UNL     1      38.040 -14.547  -2.926  1.00  0.00     0.001 A 
HETATM   25  C   UNL     1      39.013 -14.061  -2.049  1.00  0.00     0.007 A 
ENDBRANCH  16  20
ENDBRANCH  15  16
ENDBRANCH  12  15
ENDBRANCH   1  11
BRANCH   8  26
HETATM   26  C   UNL     1      44.007 -17.706   6.710  1.00  0.00     0.270 C 
HETATM   27  N   UNL     1      43.400 -18.380   7.735  1.00  0.00    -0.365 N 
HETATM   28  H   UNL     1      43.079 -19.326   7.569  1.00  0.00     0.159 HD
HETATM   29  H   UNL     1      43.313 -17.942   8.637  1.00  0.00     0.159 HD
HETATM   30  O   UNL     1      44.434 -16.567   6.865  1.00  0.00    -0.266 OA
ENDBRANCH   8  26
TORSDOF 6
ENDMDL
MODEL 7
REMARK VINA RESULT:      -8.1      2.452      4.251
REMARK  6 active torsions:
REMARK  status: ('A' for Active; 'I' for Inactive)
REMARK    1  A    between atoms: C_2  and  C_3 
REMARK    2  A    between atoms: C_3  and  C_4 
REMARK    3  A    between atoms: C_3  and  C_10 
REMARK    4  A    between atoms: C_10  and  C_11 
REMARK       I    between atoms: C_11  and  N_12 
REMARK    5  A    between atoms: N_12  and  C_13 
REMARK    6  A    between atoms: C_20  and  C_21 
REMARK       I    between atoms: C_21  and  N_22 
ROOT
HETATM    1  C   UNL     1      41.327 -15.124  -0.858  1.00  0.00     0.035 A 
HETATM    2  C   UNL     1      41.835 -13.825  -0.727  1.00  0.00     0.046 A 
HETATM    3  C   UNL     1      41.980 -13.016  -1.878  1.00  0.00     0.030 A 
HETATM    4  C   UNL     1      41.629 -13.541  -3.116  1.00  0.00     0.063 A 
HETATM    5  N   UNL     1      41.887 -12.549  -4.018  1.00  0.00    -0.277 N 
HETATM    6  H   UNL     1      41.756 -12.584  -5.023  1.00  0.00     0.189 HD
HETATM    7  N   UNL     1      42.358 -11.413  -3.479  1.00  0.00    -0.168 NA
HETATM    8  C   UNL     1      42.419 -11.685  -2.155  1.00  0.00     0.156 A 
HETATM    9  C   UNL     1      41.124 -14.830  -3.283  1.00  0.00     0.034 A 
HETATM   10  C   UNL     1      40.973 -15.606  -2.127  1.00  0.00     0.032 A 
ENDROOT
BRANCH   1  11
HETATM   11  N   UNL     1      41.127 -16.007   0.224  1.00  0.00    -0.327 N 
HETATM   12  C   UNL     1      40.289 -15.843   1.311  1.00  0.00     0.222 C 
HETATM   13  O   UNL     1      39.536 -14.894   1.509  1.00  0.00    -0.273 OA
HETATM   14  H   UNL     1      41.709 -16.831   0.218  1.00  0.00     0.169 HD
BRANCH  12  15
HETATM   15  C   UNL     1      40.287 -17.025   2.279  1.00  0.00     0.113 C 
BRANCH  15  16
HETATM   16  C   UNL     1      41.350 -16.969   3.397  1.00  0.00     0.030 C 
BRANCH  16  17
HETATM   17  C   UNL     1      41.993 -15.560   3.589  1.00  0.00    -0.014 C 
HETATM   18  C   UNL     1      43.390 -15.499   2.956  1.00  0.00     0.010 C 
HETATM   19  C   UNL     1      42.080 -15.084   5.043  1.00  0.00     0.010 C 
ENDBRANCH  16  17
BRANCH  16  20
HETATM   20  C   UNL     1      42.412 -18.057   3.290  1.00  0.00    -0.053 A 
HETATM   21  C   UNL     1      43.169 -18.481   4.390  1.00  0.00     0.007 A 
HETATM   22  C   UNL     1      44.136 -19.479   4.249  1.00  0.00     0.001 A 
HETATM   23  C   UNL     1      44.366 -20.063   3.007  1.00  0.00     0.000 A 
HETATM   24  C   UNL     1      43.624 -19.654   1.903  1.00  0.00     0.001 A 
HETATM   25  C   UNL     1      42.651 -18.663   2.044  1.00  0.00     0.007 A 
ENDBRANCH  16  20
ENDBRANCH  15  16
ENDBRANCH  12  15
ENDBRANCH   1  11
BRANCH   8  26
HETATM   26  C   UNL     1      42.880 -10.672  -1.195  1.00  0.00     0.270 C 
HETATM   27  N   UNL     1      41.868 -10.043  -0.521  1.00  0.00    -0.365 N 
HETATM   28  H   UNL     1      40.913 -10.319  -0.714  1.00  0.00     0.159 HD
HETATM   29  H   UNL     1      42.088  -9.347   0.173  1.00  0.00     0.159 HD
HETATM   30  O   UNL     1      44.054 -10.391  -0.981  1.00  0.00    -0.266 OA
ENDBRANCH   8  26
TORSDOF 6
ENDMDL
MODEL 8
REMARK VINA RESULT:      -8.0      2.894      8.480
REMARK  6 active torsions:
REMARK  status: ('A' for Active; 'I' for Inactive)
REMARK    1  A    between atoms: C_2  and  C_3 
REMARK    2  A    between atoms: C_3  and  C_4 
REMARK    3  A    between atoms: C_3  and  C_10 
REMARK    4  A    between atoms: C_10  and  C_11 
REMARK       I    between atoms: C_11  and  N_12 
REMARK    5  A    between atoms: N_12  and  C_13 
REMARK    6  A    between atoms: C_20  and  C_21 
REMARK       I    between atoms: C_21  and  N_22 
ROOT
HETATM    1  C   UNL     1      43.411 -17.454   2.684  1.00  0.00     0.035 A 
HETATM    2  C   UNL     1      43.224 -17.454   4.072  1.00  0.00     0.046 A 
HETATM    3  C   UNL     1      43.634 -18.575   4.829  1.00  0.00     0.030 A 
HETATM    4  C   UNL     1      44.199 -19.660   4.170  1.00  0.00     0.063 A 
HETATM    5  N   UNL     1      44.475 -20.575   5.145  1.00  0.00    -0.277 N 
HETATM    6  H   UNL     1      44.888 -21.494   5.026  1.00  0.00     0.189 HD
HETATM    7  N   UNL     1      44.159 -20.178   6.388  1.00  0.00    -0.168 NA
HETATM    8  C   UNL     1      43.640 -18.941   6.210  1.00  0.00     0.156 A 
HETATM    9  C   UNL     1      44.397 -19.696   2.790  1.00  0.00     0.034 A 
HETATM   10  C   UNL     1      43.999 -18.567   2.064  1.00  0.00     0.032 A 
ENDROOT
BRANCH   1  11
HETATM   11  N   UNL     1      43.054 -16.384   1.837  1.00  0.00    -0.327 N 
HETATM   12  C   UNL     1      41.912 -16.254   1.068  1.00  0.00     0.222 C 
HETATM   13  O   UNL     1      40.981 -17.052   1.013  1.00  0.00    -0.273 OA
HETATM   14  H   UNL     1      43.745 -15.654   1.753  1.00  0.00     0.169 HD
BRANCH  12  15
HETATM   15  C   UNL     1      41.826 -14.936   0.301  1.00  0.00     0.113 C 
BRANCH  15  16
HETATM   16  C   UNL     1      40.526 -14.719  -0.503  1.00  0.00     0.030 C 
BRANCH  16  17
HETATM   17  C   UNL     1      40.761 -14.374  -2.007  1.00  0.00    -0.014 C 
HETATM   18  C   UNL     1      40.870 -15.648  -2.856  1.00  0.00     0.010 C 
HETATM   19  C   UNL     1      41.978 -13.484  -2.281  1.00  0.00     0.010 C 
ENDBRANCH  16  17
BRANCH  16  20
HETATM   20  C   UNL     1      39.559 -13.737   0.150  1.00  0.00    -0.053 A 
HETATM   21  C   UNL     1      39.994 -12.594   0.833  1.00  0.00     0.007 A 
HETATM   22  C   UNL     1      39.075 -11.721   1.421  1.00  0.00     0.001 A 
HETATM   23  C   UNL     1      37.710 -11.981   1.339  1.00  0.00     0.000 A 
HETATM   24  C   UNL     1      37.260 -13.111   0.665  1.00  0.00     0.001 A 
HETATM   25  C   UNL     1      38.176 -13.980   0.069  1.00  0.00     0.007 A 
ENDBRANCH  16  20
ENDBRANCH  15  16
ENDBRANCH  12  15
ENDBRANCH   1  11
BRANCH   8  26
HETATM   26  C   UNL     1      43.177 -18.143   7.355  1.00  0.00     0.270 C 
HETATM   27  N   UNL     1      43.839 -18.410   8.523  1.00  0.00    -0.365 N 
HETATM   28  H   UNL     1      44.580 -19.101   8.512  1.00  0.00     0.159 HD
HETATM   29  H   UNL     1      43.605 -17.897   9.357  1.00  0.00     0.159 HD
HETATM   30  O   UNL     1      42.289 -17.300   7.308  1.00  0.00    -0.266 OA
ENDBRANCH   8  26
TORSDOF 6
ENDMDL
MODEL 9
REMARK VINA RESULT:      -7.9      3.289      8.236
REMARK  6 active torsions:
REMARK  status: ('A' for Active; 'I' for Inactive)
REMARK    1  A    between atoms: C_2  and  C_3 
REMARK    2  A    between atoms: C_3  and  C_4 
REMARK    3  A    between atoms: C_3  and  C_10 
REMARK    4  A    between atoms: C_10  and  C_11 
REMARK       I    between atoms: C_11  and  N_12 
REMARK    5  A    between atoms: N_12  and  C_13 
REMARK    6  A    between atoms: C_20  and  C_21 
REMARK       I    between atoms: C_21  and  N_22 
ROOT
HETATM    1  C   UNL     1      42.998 -17.699   2.844  1.00  0.00     0.035 A 
HETATM    2  C   UNL     1      43.155 -18.045   4.192  1.00  0.00     0.046 A 
HETATM    3  C   UNL     1      43.788 -19.264   4.528  1.00  0.00     0.030 A 
HETATM    4  C   UNL     1      44.224 -20.098   3.506  1.00  0.00     0.063 A 
HETATM    5  N   UNL     1      44.771 -21.183   4.129  1.00  0.00    -0.277 N 
HETATM    6  H   UNL     1      45.184 -21.998   3.691  1.00  0.00     0.189 HD
HETATM    7  N   UNL     1      44.751 -21.124   5.470  1.00  0.00    -0.168 NA
HETATM    8  C   UNL     1      44.148 -19.942   5.732  1.00  0.00     0.156 A 
HETATM    9  C   UNL     1      44.081 -19.787   2.154  1.00  0.00     0.034 A 
HETATM   10  C   UNL     1      43.466 -18.567   1.846  1.00  0.00     0.032 A 
ENDROOT
BRANCH   1  11
HETATM   11  N   UNL     1      42.396 -16.503   2.400  1.00  0.00    -0.327 N 
HETATM   12  C   UNL     1      41.095 -16.314   1.972  1.00  0.00     0.222 C 
HETATM   13  O   UNL     1      40.214 -17.169   1.934  1.00  0.00    -0.273 OA
HETATM   14  H   UNL     1      43.013 -15.707   2.345  1.00  0.00     0.169 HD
BRANCH  12  15
HETATM   15  C   UNL     1      40.765 -14.870   1.601  1.00  0.00     0.113 C 
BRANCH  15  16
HETATM   16  C   UNL     1      39.426 -14.332   2.150  1.00  0.00     0.030 C 
BRANCH  16  17
HETATM   17  C   UNL     1      38.648 -13.425   1.146  1.00  0.00    -0.014 C 
HETATM   18  C   UNL     1      37.324 -14.076   0.724  1.00  0.00     0.010 C 
HETATM   19  C   UNL     1      39.435 -13.032  -0.108  1.00  0.00     0.010 C 
ENDBRANCH  16  17
BRANCH  16  20
HETATM   20  C   UNL     1      39.545 -13.673   3.521  1.00  0.00    -0.053 A 
HETATM   21  C   UNL     1      40.006 -14.363   4.649  1.00  0.00     0.007 A 
HETATM   22  C   UNL     1      40.097 -13.723   5.889  1.00  0.00     0.001 A 
HETATM   23  C   UNL     1      39.722 -12.390   6.018  1.00  0.00     0.000 A 
HETATM   24  C   UNL     1      39.261 -11.689   4.908  1.00  0.00     0.001 A 
HETATM   25  C   UNL     1      39.178 -12.324   3.667  1.00  0.00     0.007 A 
ENDBRANCH  16  20
ENDBRANCH  15  16
ENDBRANCH  12  15
ENDBRANCH   1  11
BRANCH   8  26
HETATM   26  C   UNL     1      43.943 -19.489   7.116  1.00  0.00     0.270 C 
HETATM   27  N   UNL     1      43.543 -20.479   7.972  1.00  0.00    -0.365 N 
HETATM   28  H   UNL     1      43.434 -21.418   7.609  1.00  0.00     0.159 HD
HETATM   29  H   UNL     1      43.397 -20.268   8.946  1.00  0.00     0.159 HD
HETATM   30  O   UNL     1      44.112 -18.341   7.510  1.00  0.00    -0.266 OA
ENDBRANCH   8  26
TORSDOF 6
ENDMDL
MODEL 10
REMARK VINA RESULT:      -7.9      2.864      8.920
REMARK  6 active torsions:
REMARK  status: ('A' for Active; 'I' for Inactive)
REMARK    1  A    between atoms: C_2  and  C_3 
REMARK    2  A    between atoms: C_3  and  C_4 
REMARK    3  A    between atoms: C_3  and  C_10 
REMARK    4  A    between atoms: C_10  and  C_11 
REMARK       I    between atoms: C_11  and  N_12 
REMARK    5  A    between atoms: N_12  and  C_13 
REMARK    6  A    between atoms: C_20  and  C_21 
REMARK       I    between atoms: C_21  and  N_22 
ROOT
HETATM    1  C   UNL     1      41.754 -17.485   2.828  1.00  0.00     0.035 A 
HETATM    2  C   UNL     1      42.011 -17.585   4.201  1.00  0.00     0.046 A 
HETATM    3  C   UNL     1      43.040 -18.443   4.655  1.00  0.00     0.030 A 
HETATM    4  C   UNL     1      43.759 -19.180   3.724  1.00  0.00     0.063 A 
HETATM    5  N   UNL     1      44.656 -19.910   4.450  1.00  0.00    -0.277 N 
HETATM    6  H   UNL     1      45.342 -20.568   4.097  1.00  0.00     0.189 HD
HETATM    7  N   UNL     1      44.601 -19.701   5.775  1.00  0.00    -0.168 NA
HETATM    8  C   UNL     1      43.607 -18.794   5.918  1.00  0.00     0.156 A 
HETATM    9  C   UNL     1      43.528 -19.108   2.350  1.00  0.00     0.034 A 
HETATM   10  C   UNL     1      42.516 -18.239   1.923  1.00  0.00     0.032 A 
ENDROOT
BRANCH   1  11
HETATM   11  N   UNL     1      40.764 -16.651   2.268  1.00  0.00    -0.327 N 
HETATM   12  C   UNL     1      40.885 -15.328   1.885  1.00  0.00     0.222 C 
HETATM   13  O   UNL     1      41.906 -14.648   1.941  1.00  0.00    -0.273 OA
HETATM   14  H   UNL     1      39.848 -17.066   2.188  1.00  0.00     0.169 HD
BRANCH  12  15
HETATM   15  C   UNL     1      39.617 -14.740   1.270  1.00  0.00     0.113 C 
BRANCH  15  16
HETATM   16  C   UNL     1      39.841 -13.728   0.126  1.00  0.00     0.030 C 
BRANCH  16  17
HETATM   17  C   UNL     1      38.985 -12.429   0.253  1.00  0.00    -0.014 C 
HETATM   18  C   UNL     1      39.846 -11.241   0.702  1.00  0.00     0.010 C 
HETATM   19  C   UNL     1      37.770 -12.546   1.180  1.00  0.00     0.010 C 
ENDBRANCH  16  17
BRANCH  16  20
HETATM   20  C   UNL     1      39.722 -14.340  -1.266  1.00  0.00    -0.053 A 
HETATM   21  C   UNL     1      38.604 -14.135  -2.085  1.00  0.00     0.007 A 
HETATM   22  C   UNL     1      38.533 -14.717  -3.353  1.00  0.00     0.001 A 
HETATM   23  C   UNL     1      39.573 -15.516  -3.818  1.00  0.00     0.000 A 
HETATM   24  C   UNL     1      40.691 -15.730  -3.018  1.00  0.00     0.001 A 
HETATM   25  C   UNL     1      40.769 -15.142  -1.754  1.00  0.00     0.007 A 
ENDBRANCH  16  20
ENDBRANCH  15  16
ENDBRANCH  12  15
ENDBRANCH   1  11
BRANCH   8  26
HETATM   26  C   UNL     1      43.237 -18.282   7.246  1.00  0.00     0.270 C 
HETATM   27  N   UNL     1      43.858 -18.923   8.283  1.00  0.00    -0.365 N 
HETATM   28  H   UNL     1      44.513 -19.666   8.070  1.00  0.00     0.159 HD
HETATM   29  H   UNL     1      43.683 -18.627   9.229  1.00  0.00     0.159 HD
HETATM   30  O   UNL     1      42.454 -17.361   7.448  1.00  0.00    -0.266 OA
ENDBRANCH   8  26
TORSDOF 6
ENDMDL
