MODEL 1
REMARK VINA RESULT:      -8.7      0.000      0.000
REMARK  8 active torsions:
REMARK  status: ('A' for Active; 'I' for Inactive)
REMARK    1  A    between atoms: C_3  and  N_4 
REMARK       I    between atoms: N_4  and  C_5 
REMARK       I    between atoms: C_5  and  N_6 
REMARK       I    between atoms: N_6  and  C_7 
REMARK    2  A    between atoms: C_7  and  C_8 
REMARK    3  A    between atoms: C_8  and  N_9 
REMARK    4  A    between atoms: N_9  and  C_11 
REMARK    5  A    between atoms: N_9  and  C_17 
REMARK    6  A    between atoms: C_11  and  C_12 
REMARK    7  A    between atoms: C_17  and  C_18 
REMARK    8  A    between atoms: C_19  and  O_20 
ROOT
HETATM    1  N   UNL     1      44.028 -13.389   7.784  1.00  0.00    -0.053 N 
HETATM    2  H   UNL     1      43.497 -14.030   8.390  1.00  0.00     0.281 HD
ENDROOT
BRANCH   1   3
HETATM    3  C   UNL     1      42.992 -12.682   6.932  1.00  0.00     0.338 C 
BRANCH   3   4
HETATM    4  C   UNL     1      42.455 -13.533   5.777  1.00  0.00     0.251 C 
HETATM    5  N   UNL     1      41.540 -14.498   6.155  1.00  0.00    -0.278 N 
HETATM    6  C   UNL     1      41.254 -15.682   5.523  1.00  0.00     0.323 C 
HETATM    7  H   UNL     1      41.205 -14.547   7.109  1.00  0.00     0.173 HD
HETATM    8  N   UNL     1      41.800 -15.856   4.295  1.00  0.00    -0.338 N 
HETATM    9  O   UNL     1      40.598 -16.503   6.148  1.00  0.00    -0.247 OA
HETATM   10  H   UNL     1      42.157 -15.015   3.849  1.00  0.00     0.164 HD
HETATM   11  O   UNL     1      42.731 -13.276   4.607  1.00  0.00    -0.271 OA
BRANCH   8  12
HETATM   12  C   UNL     1      41.685 -17.030   3.422  1.00  0.00     0.089 C 
HETATM   13  C   UNL     1      41.869 -16.727   1.912  1.00  0.00     0.004 C 
HETATM   14  C   UNL     1      40.897 -17.586   1.084  1.00  0.00     0.012 C 
HETATM   15  C   UNL     1      43.302 -16.933   1.390  1.00  0.00     0.006 C 
HETATM   16  C   UNL     1      43.957 -18.215   1.889  1.00  0.00     0.001 C 
HETATM   17  C   UNL     1      43.914 -18.314   3.406  1.00  0.00     0.002 C 
HETATM   18  C   UNL     1      42.488 -18.235   3.932  1.00  0.00     0.026 C 
ENDBRANCH   8  12
ENDBRANCH   3   4
ENDBRANCH   1   3
BRANCH   1  19
HETATM   19  C   UNL     1      44.909 -14.334   6.998  1.00  0.00     0.300 C 
BRANCH  19  20
HETATM   20  C   UNL     1      44.494 -15.750   7.197  1.00  0.00     0.078 A 
HETATM   21  O   UNL     1      43.609 -15.983   8.215  1.00  0.00    -0.325 OA
HETATM   22  C   UNL     1      43.389 -17.323   8.244  1.00  0.00     0.142 A 
HETATM   23  C   UNL     1      44.108 -17.950   7.253  1.00  0.00     0.027 A 
HETATM   24  C   UNL     1      44.822 -16.934   6.573  1.00  0.00     0.036 A 
ENDBRANCH  19  20
ENDBRANCH   1  19
BRANCH   1  25
HETATM   25  C   UNL     1      44.785 -12.530   8.763  1.00  0.00     0.277 C 
BRANCH  25  26
HETATM   26  C   UNL     1      44.098 -11.821   9.905  1.00  0.00     0.001 A 
HETATM   27  C   UNL     1      43.881 -12.327  11.192  1.00  0.00     0.073 A 
HETATM   28  C   UNL     1      43.142 -11.610  12.142  1.00  0.00     0.037 A 
HETATM   29  C   UNL     1      42.582 -10.379  11.812  1.00  0.00     0.003 A 
HETATM   30  C   UNL     1      42.765  -9.860  10.538  1.00  0.00     0.001 A 
HETATM   31  C   UNL     1      43.513 -10.573   9.598  1.00  0.00     0.011 A 
BRANCH  27  32
HETATM   32  O   UNL     1      44.385 -13.544  11.557  1.00  0.00    -0.360 OA
HETATM   33  H   UNL     1      44.067 -13.740  12.460  1.00  0.00     0.217 HD
ENDBRANCH  27  32
ENDBRANCH  25  26
ENDBRANCH   1  25
TORSDOF 8
ENDMDL
MODEL 2
REMARK VINA RESULT:      -8.4      3.860      7.845
REMARK  8 active torsions:
REMARK  status: ('A' for Active; 'I' for Inactive)
REMARK    1  A    between atoms: C_3  and  N_4 
REMARK       I    between atoms: N_4  and  C_5 
REMARK       I    between atoms: C_5  and  N_6 
REMARK       I    between atoms: N_6  and  C_7 
REMARK    2  A    between atoms: C_7  and  C_8 
REMARK    3  A    between atoms: C_8  and  N_9 
REMARK    4  A    between atoms: N_9  and  C_11 
REMARK    5  A    between atoms: N_9  and  C_17 
REMARK    6  A    between atoms: C_11  and  C_12 
REMARK    7  A    between atoms: C_17  and  C_18 
REMARK    8  A    between atoms: C_19  and  O_20 
ROOT
HETATM    1  N   UNL     1      42.348 -17.374   3.603  1.00  0.00    -0.053 N 
HETATM    2  H   UNL     1      42.597 -16.415   3.888  1.00  0.00     0.281 HD
ENDROOT
BRANCH   1   3
HETATM    3  C   UNL     1      41.301 -17.217   2.517  1.00  0.00     0.338 C 
BRANCH   3   4
HETATM    4  C   UNL     1      41.662 -16.176   1.454  1.00  0.00     0.251 C 
HETATM    5  N   UNL     1      42.244 -15.026   1.953  1.00  0.00    -0.278 N 
HETATM    6  C   UNL     1      42.235 -13.769   1.403  1.00  0.00     0.323 C 
HETATM    7  H   UNL     1      42.485 -14.953   2.934  1.00  0.00     0.173 HD
HETATM    8  N   UNL     1      41.751 -13.667   0.141  1.00  0.00    -0.338 N 
HETATM    9  O   UNL     1      42.592 -12.845   2.119  1.00  0.00    -0.247 OA
HETATM   10  H   UNL     1      41.673 -14.541  -0.371  1.00  0.00     0.164 HD
HETATM   11  O   UNL     1      41.551 -16.419   0.254  1.00  0.00    -0.271 OA
BRANCH   8  12
HETATM   12  C   UNL     1      41.597 -12.451  -0.663  1.00  0.00     0.089 C 
HETATM   13  C   UNL     1      42.829 -12.100  -1.539  1.00  0.00     0.004 C 
HETATM   14  C   UNL     1      43.038 -10.577  -1.562  1.00  0.00     0.012 C 
HETATM   15  C   UNL     1      42.755 -12.626  -2.984  1.00  0.00     0.006 C 
HETATM   16  C   UNL     1      41.397 -12.416  -3.642  1.00  0.00     0.001 C 
HETATM   17  C   UNL     1      40.269 -12.990  -2.799  1.00  0.00     0.002 C 
HETATM   18  C   UNL     1      40.253 -12.387  -1.401  1.00  0.00     0.026 C 
ENDBRANCH   8  12
ENDBRANCH   3   4
ENDBRANCH   1   3
BRANCH   1  19
HETATM   19  C   UNL     1      41.803 -17.966   4.883  1.00  0.00     0.300 C 
BRANCH  19  20
HETATM   20  C   UNL     1      42.545 -17.461   6.070  1.00  0.00     0.078 A 
HETATM   21  O   UNL     1      42.994 -18.407   6.951  1.00  0.00    -0.325 OA
HETATM   22  C   UNL     1      43.609 -17.741   7.963  1.00  0.00     0.142 A 
HETATM   23  C   UNL     1      43.573 -16.385   7.738  1.00  0.00     0.027 A 
HETATM   24  C   UNL     1      42.887 -16.201   6.512  1.00  0.00     0.036 A 
ENDBRANCH  19  20
ENDBRANCH   1  19
BRANCH   1  25
HETATM   25  C   UNL     1      43.667 -17.964   3.177  1.00  0.00     0.277 C 
BRANCH  25  26
HETATM   26  C   UNL     1      43.906 -19.454   3.147  1.00  0.00     0.001 A 
HETATM   27  C   UNL     1      44.597 -20.209   4.103  1.00  0.00     0.073 A 
HETATM   28  C   UNL     1      44.839 -21.575   3.915  1.00  0.00     0.037 A 
HETATM   29  C   UNL     1      44.414 -22.211   2.753  1.00  0.00     0.003 A 
HETATM   30  C   UNL     1      43.741 -21.485   1.779  1.00  0.00     0.001 A 
HETATM   31  C   UNL     1      43.491 -20.125   1.975  1.00  0.00     0.011 A 
BRANCH  27  32
HETATM   32  O   UNL     1      45.061 -19.626   5.248  1.00  0.00    -0.360 OA
HETATM   33  H   UNL     1      44.515 -19.951   5.991  1.00  0.00     0.217 HD
ENDBRANCH  27  32
ENDBRANCH  25  26
ENDBRANCH   1  25
TORSDOF 8
ENDMDL
MODEL 3
REMARK VINA RESULT:      -8.1      4.342      8.210
REMARK  8 active torsions:
REMARK  status: ('A' for Active; 'I' for Inactive)
REMARK    1  A    between atoms: C_3  and  N_4 
REMARK       I    between atoms: N_4  and  C_5 
REMARK       I    between atoms: C_5  and  N_6 
REMARK       I    between atoms: N_6  and  C_7 
REMARK    2  A    between atoms: C_7  and  C_8 
REMARK    3  A    between atoms: C_8  and  N_9 
REMARK    4  A    between atoms: N_9  and  C_11 
REMARK    5  A    between atoms: N_9  and  C_17 
REMARK    6  A    between atoms: C_11  and  C_12 
REMARK    7  A    between atoms: C_17  and  C_18 
REMARK    8  A    between atoms: C_19  and  O_20 
ROOT
HETATM    1  N   UNL     1      42.599 -17.416   2.723  1.00  0.00    -0.053 N 
HETATM    2  H   UNL     1      42.853 -16.419   2.763  1.00  0.00     0.281 HD
ENDROOT
BRANCH   1   3
HETATM    3  C   UNL     1      41.689 -17.556   1.517  1.00  0.00     0.338 C 
BRANCH   3   4
HETATM    4  C   UNL     1      41.423 -16.237   0.786  1.00  0.00     0.251 C 
HETATM    5  N   UNL     1      40.917 -16.383  -0.492  1.00  0.00    -0.278 N 
HETATM    6  C   UNL     1      41.027 -15.513  -1.548  1.00  0.00     0.323 C 
HETATM    7  H   UNL     1      40.666 -17.298  -0.846  1.00  0.00     0.173 HD
HETATM    8  N   UNL     1      41.539 -14.290  -1.268  1.00  0.00    -0.338 N 
HETATM    9  O   UNL     1      40.726 -15.938  -2.654  1.00  0.00    -0.247 OA
HETATM   10  H   UNL     1      41.562 -14.037  -0.284  1.00  0.00     0.164 HD
HETATM   11  O   UNL     1      41.537 -15.153   1.355  1.00  0.00    -0.271 OA
BRANCH   8  12
HETATM   12  C   UNL     1      41.794 -13.191  -2.205  1.00  0.00     0.089 C 
HETATM   13  C   UNL     1      40.549 -12.327  -2.537  1.00  0.00     0.004 C 
HETATM   14  C   UNL     1      40.572 -11.924  -4.021  1.00  0.00     0.012 C 
HETATM   15  C   UNL     1      40.398 -11.065  -1.668  1.00  0.00     0.006 C 
HETATM   16  C   UNL     1      41.699 -10.297  -1.474  1.00  0.00     0.001 C 
HETATM   17  C   UNL     1      42.806 -11.193  -0.939  1.00  0.00     0.002 C 
HETATM   18  C   UNL     1      43.052 -12.385  -1.854  1.00  0.00     0.026 C 
ENDBRANCH   8  12
ENDBRANCH   3   4
ENDBRANCH   1   3
BRANCH   1  19
HETATM   19  C   UNL     1      41.886 -17.626   4.041  1.00  0.00     0.300 C 
BRANCH  19  20
HETATM   20  C   UNL     1      42.601 -16.946   5.155  1.00  0.00     0.078 A 
HETATM   21  O   UNL     1      42.819 -17.694   6.280  1.00  0.00    -0.325 OA
HETATM   22  C   UNL     1      43.449 -16.887   7.172  1.00  0.00     0.142 A 
HETATM   23  C   UNL     1      43.650 -15.638   6.633  1.00  0.00     0.027 A 
HETATM   24  C   UNL     1      43.104 -15.674   5.326  1.00  0.00     0.036 A 
ENDBRANCH  19  20
ENDBRANCH   1  19
BRANCH   1  25
HETATM   25  C   UNL     1      43.931 -18.114   2.638  1.00  0.00     0.277 C 
BRANCH  25  26
HETATM   26  C   UNL     1      44.089 -19.581   2.954  1.00  0.00     0.001 A 
HETATM   27  C   UNL     1      44.651 -20.130   4.113  1.00  0.00     0.073 A 
HETATM   28  C   UNL     1      44.833 -21.512   4.250  1.00  0.00     0.037 A 
HETATM   29  C   UNL     1      44.476 -22.373   3.216  1.00  0.00     0.003 A 
HETATM   30  C   UNL     1      43.933 -21.856   2.048  1.00  0.00     0.001 A 
HETATM   31  C   UNL     1      43.742 -20.479   1.920  1.00  0.00     0.011 A 
BRANCH  27  32
HETATM   32  O   UNL     1      45.045 -19.326   5.145  1.00  0.00    -0.360 OA
HETATM   33  H   UNL     1      45.645 -19.845   5.716  1.00  0.00     0.217 HD
ENDBRANCH  27  32
ENDBRANCH  25  26
ENDBRANCH   1  25
TORSDOF 8
ENDMDL
MODEL 4
REMARK VINA RESULT:      -8.0      3.423      7.248
REMARK  8 active torsions:
REMARK  status: ('A' for Active; 'I' for Inactive)
REMARK    1  A    between atoms: C_3  and  N_4 
REMARK       I    between atoms: N_4  and  C_5 
REMARK       I    between atoms: C_5  and  N_6 
REMARK       I    between atoms: N_6  and  C_7 
REMARK    2  A    between atoms: C_7  and  C_8 
REMARK    3  A    between atoms: C_8  and  N_9 
REMARK    4  A    between atoms: N_9  and  C_11 
REMARK    5  A    between atoms: N_9  and  C_17 
REMARK    6  A    between atoms: C_11  and  C_12 
REMARK    7  A    between atoms: C_17  and  C_18 
REMARK    8  A    between atoms: C_19  and  O_20 
ROOT
HETATM    1  N   UNL     1      43.771 -17.455   5.437  1.00  0.00    -0.053 N 
HETATM    2  H   UNL     1      43.739 -17.205   4.439  1.00  0.00     0.281 HD
ENDROOT
BRANCH   1   3
HETATM    3  C   UNL     1      42.334 -17.741   5.830  1.00  0.00     0.338 C 
BRANCH   3   4
HETATM    4  C   UNL     1      41.299 -17.143   4.872  1.00  0.00     0.251 C 
HETATM    5  N   UNL     1      41.290 -17.711   3.612  1.00  0.00    -0.278 N 
HETATM    6  C   UNL     1      40.886 -17.140   2.432  1.00  0.00     0.323 C 
HETATM    7  H   UNL     1      41.867 -18.517   3.405  1.00  0.00     0.173 HD
HETATM    8  N   UNL     1      40.260 -15.941   2.527  1.00  0.00    -0.338 N 
HETATM    9  O   UNL     1      41.189 -17.720   1.399  1.00  0.00    -0.247 OA
HETATM   10  H   UNL     1      39.926 -15.692   3.453  1.00  0.00     0.164 HD
HETATM   11  O   UNL     1      40.472 -16.317   5.254  1.00  0.00    -0.271 OA
BRANCH   8  12
HETATM   12  C   UNL     1      39.761 -15.103   1.432  1.00  0.00     0.089 C 
HETATM   13  C   UNL     1      38.656 -14.096   1.847  1.00  0.00     0.004 C 
HETATM   14  C   UNL     1      37.603 -13.986   0.731  1.00  0.00     0.012 C 
HETATM   15  C   UNL     1      39.174 -12.690   2.199  1.00  0.00     0.006 C 
HETATM   16  C   UNL     1      40.216 -12.159   1.222  1.00  0.00     0.001 C 
HETATM   17  C   UNL     1      41.371 -13.134   1.048  1.00  0.00     0.002 C 
HETATM   18  C   UNL     1      40.885 -14.499   0.580  1.00  0.00     0.026 C 
ENDBRANCH   8  12
ENDBRANCH   3   4
ENDBRANCH   1   3
BRANCH   1  19
HETATM   19  C   UNL     1      44.329 -16.202   6.073  1.00  0.00     0.300 C 
BRANCH  19  20
HETATM   20  C   UNL     1      43.671 -14.982   5.530  1.00  0.00     0.078 A 
HETATM   21  O   UNL     1      42.988 -14.212   6.431  1.00  0.00    -0.325 OA
HETATM   22  C   UNL     1      42.446 -13.179   5.734  1.00  0.00     0.142 A 
HETATM   23  C   UNL     1      42.782 -13.269   4.403  1.00  0.00     0.027 A 
HETATM   24  C   UNL     1      43.578 -14.433   4.270  1.00  0.00     0.036 A 
ENDBRANCH  19  20
ENDBRANCH   1  19
BRANCH   1  25
HETATM   25  C   UNL     1      44.718 -18.626   5.474  1.00  0.00     0.277 C 
BRANCH  25  26
HETATM   26  C   UNL     1      44.641 -19.750   4.470  1.00  0.00     0.001 A 
HETATM   27  C   UNL     1      44.274 -19.643   3.123  1.00  0.00     0.073 A 
HETATM   28  C   UNL     1      44.144 -20.777   2.311  1.00  0.00     0.037 A 
HETATM   29  C   UNL     1      44.356 -22.047   2.839  1.00  0.00     0.003 A 
HETATM   30  C   UNL     1      44.703 -22.186   4.176  1.00  0.00     0.001 A 
HETATM   31  C   UNL     1      44.844 -21.052   4.980  1.00  0.00     0.011 A 
BRANCH  27  32
HETATM   32  O   UNL     1      44.026 -18.422   2.563  1.00  0.00    -0.360 OA
HETATM   33  H   UNL     1      43.810 -17.800   3.286  1.00  0.00     0.217 HD
ENDBRANCH  27  32
ENDBRANCH  25  26
ENDBRANCH   1  25
TORSDOF 8
ENDMDL
MODEL 5
REMARK VINA RESULT:      -7.9      3.968      7.898
REMARK  8 active torsions:
REMARK  status: ('A' for Active; 'I' for Inactive)
REMARK    1  A    between atoms: C_3  and  N_4 
REMARK       I    between atoms: N_4  and  C_5 
REMARK       I    between atoms: C_5  and  N_6 
REMARK       I    between atoms: N_6  and  C_7 
REMARK    2  A    between atoms: C_7  and  C_8 
REMARK    3  A    between atoms: C_8  and  N_9 
REMARK    4  A    between atoms: N_9  and  C_11 
REMARK    5  A    between atoms: N_9  and  C_17 
REMARK    6  A    between atoms: C_11  and  C_12 
REMARK    7  A    between atoms: C_17  and  C_18 
REMARK    8  A    between atoms: C_19  and  O_20 
ROOT
HETATM    1  N   UNL     1      42.601 -17.116   3.335  1.00  0.00    -0.053 N 
HETATM    2  H   UNL     1      42.837 -16.121   3.207  1.00  0.00     0.281 HD
ENDROOT
BRANCH   1   3
HETATM    3  C   UNL     1      41.350 -17.347   2.511  1.00  0.00     0.338 C 
BRANCH   3   4
HETATM    4  C   UNL     1      41.096 -16.268   1.454  1.00  0.00     0.251 C 
HETATM    5  N   UNL     1      40.143 -15.332   1.809  1.00  0.00    -0.278 N 
HETATM    6  C   UNL     1      39.350 -14.579   0.979  1.00  0.00     0.323 C 
HETATM    7  H   UNL     1      39.736 -15.335   2.736  1.00  0.00     0.173 HD
HETATM    8  N   UNL     1      39.649 -14.623  -0.342  1.00  0.00    -0.338 N 
HETATM    9  O   UNL     1      38.404 -13.996   1.490  1.00  0.00    -0.247 OA
HETATM   10  H   UNL     1      40.565 -14.998  -0.573  1.00  0.00     0.164 HD
HETATM   11  O   UNL     1      41.785 -16.188   0.439  1.00  0.00    -0.271 OA
BRANCH   8  12
HETATM   12  C   UNL     1      38.950 -13.948  -1.441  1.00  0.00     0.089 C 
HETATM   13  C   UNL     1      39.086 -12.402  -1.434  1.00  0.00     0.004 C 
HETATM   14  C   UNL     1      37.758 -11.759  -1.870  1.00  0.00     0.012 C 
HETATM   15  C   UNL     1      40.227 -11.858  -2.311  1.00  0.00     0.006 C 
HETATM   16  C   UNL     1      40.316 -12.521  -3.680  1.00  0.00     0.001 C 
HETATM   17  C   UNL     1      40.396 -14.036  -3.567  1.00  0.00     0.002 C 
HETATM   18  C   UNL     1      39.206 -14.603  -2.805  1.00  0.00     0.026 C 
ENDBRANCH   8  12
ENDBRANCH   3   4
ENDBRANCH   1   3
BRANCH   1  19
HETATM   19  C   UNL     1      42.364 -17.208   4.826  1.00  0.00     0.300 C 
BRANCH  19  20
HETATM   20  C   UNL     1      43.171 -16.199   5.565  1.00  0.00     0.078 A 
HETATM   21  O   UNL     1      43.118 -14.917   5.089  1.00  0.00    -0.325 OA
HETATM   22  C   UNL     1      43.938 -14.172   5.877  1.00  0.00     0.142 A 
HETATM   23  C   UNL     1      44.504 -14.954   6.857  1.00  0.00     0.027 A 
HETATM   24  C   UNL     1      44.007 -16.266   6.658  1.00  0.00     0.036 A 
ENDBRANCH  19  20
ENDBRANCH   1  19
BRANCH   1  25
HETATM   25  C   UNL     1      43.845 -17.830   2.876  1.00  0.00     0.277 C 
BRANCH  25  26
HETATM   26  C   UNL     1      44.002 -19.326   3.001  1.00  0.00     0.001 A 
HETATM   27  C   UNL     1      44.615 -20.016   4.055  1.00  0.00     0.073 A 
HETATM   28  C   UNL     1      44.788 -21.405   4.012  1.00  0.00     0.037 A 
HETATM   29  C   UNL     1      44.372 -22.131   2.901  1.00  0.00     0.003 A 
HETATM   30  C   UNL     1      43.777 -21.473   1.833  1.00  0.00     0.001 A 
HETATM   31  C   UNL     1      43.595 -20.089   1.884  1.00  0.00     0.011 A 
BRANCH  27  32
HETATM   32  O   UNL     1      45.067 -19.346   5.156  1.00  0.00    -0.360 OA
HETATM   33  H   UNL     1      45.834 -19.838   5.511  1.00  0.00     0.217 HD
ENDBRANCH  27  32
ENDBRANCH  25  26
ENDBRANCH   1  25
TORSDOF 8
ENDMDL
MODEL 6
REMARK VINA RESULT:      -7.8      3.178      7.527
REMARK  8 active torsions:
REMARK  status: ('A' for Active; 'I' for Inactive)
REMARK    1  A    between atoms: C_3  and  N_4 
REMARK       I    between atoms: N_4  and  C_5 
REMARK       I    between atoms: C_5  and  N_6 
REMARK       I    between atoms: N_6  and  C_7 
REMARK    2  A    between atoms: C_7  and  C_8 
REMARK    3  A    between atoms: C_8  and  N_9 
REMARK    4  A    between atoms: N_9  and  C_11 
REMARK    5  A    between atoms: N_9  and  C_17 
REMARK    6  A    between atoms: C_11  and  C_12 
REMARK    7  A    between atoms: C_17  and  C_18 
REMARK    8  A    between atoms: C_19  and  O_20 
ROOT
HETATM    1  N   UNL     1      41.298 -13.736   3.161  1.00  0.00    -0.053 N 
HETATM    2  H   UNL     1      40.590 -14.469   3.016  1.00  0.00     0.281 HD
ENDROOT
BRANCH   1   3
HETATM    3  C   UNL     1      41.242 -13.402   4.640  1.00  0.00     0.338 C 
BRANCH   3   4
HETATM    4  C   UNL     1      41.753 -14.524   5.548  1.00  0.00     0.251 C 
HETATM    5  N   UNL     1      42.876 -14.197   6.284  1.00  0.00    -0.278 N 
HETATM    6  C   UNL     1      43.836 -15.044   6.779  1.00  0.00     0.323 C 
HETATM    7  H   UNL     1      43.247 -13.255   6.271  1.00  0.00     0.173 HD
HETATM    8  N   UNL     1      43.571 -16.370   6.692  1.00  0.00    -0.338 N 
HETATM    9  O   UNL     1      44.871 -14.536   7.186  1.00  0.00    -0.247 OA
HETATM   10  H   UNL     1      42.603 -16.614   6.503  1.00  0.00     0.164 HD
HETATM   11  O   UNL     1      41.126 -15.572   5.690  1.00  0.00    -0.271 OA
BRANCH   8  12
HETATM   12  C   UNL     1      44.430 -17.484   7.108  1.00  0.00     0.089 C 
HETATM   13  C   UNL     1      43.684 -18.631   7.840  1.00  0.00     0.004 C 
HETATM   14  C   UNL     1      44.560 -19.183   8.978  1.00  0.00     0.012 C 
HETATM   15  C   UNL     1      43.246 -19.790   6.927  1.00  0.00     0.006 C 
HETATM   16  C   UNL     1      44.317 -20.228   5.936  1.00  0.00     0.001 C 
HETATM   17  C   UNL     1      44.834 -19.057   5.113  1.00  0.00     0.002 C 
HETATM   18  C   UNL     1      45.385 -17.950   6.001  1.00  0.00     0.026 C 
ENDBRANCH   8  12
ENDBRANCH   3   4
ENDBRANCH   1   3
BRANCH   1  19
HETATM   19  C   UNL     1      40.801 -12.617   2.273  1.00  0.00     0.300 C 
BRANCH  19  20
HETATM   20  C   UNL     1      39.455 -12.927   1.719  1.00  0.00     0.078 A 
HETATM   21  O   UNL     1      39.176 -14.251   1.511  1.00  0.00    -0.325 OA
HETATM   22  C   UNL     1      37.926 -14.311   0.981  1.00  0.00     0.142 A 
HETATM   23  C   UNL     1      37.395 -13.048   0.858  1.00  0.00     0.027 A 
HETATM   24  C   UNL     1      38.381 -12.151   1.338  1.00  0.00     0.036 A 
ENDBRANCH  19  20
ENDBRANCH   1  19
BRANCH   1  25
HETATM   25  C   UNL     1      42.570 -14.378   2.670  1.00  0.00     0.277 C 
BRANCH  25  26
HETATM   26  C   UNL     1      42.643 -15.844   2.321  1.00  0.00     0.001 A 
HETATM   27  C   UNL     1      41.619 -16.788   2.461  1.00  0.00     0.073 A 
HETATM   28  C   UNL     1      41.838 -18.146   2.194  1.00  0.00     0.037 A 
HETATM   29  C   UNL     1      43.098 -18.590   1.803  1.00  0.00     0.003 A 
HETATM   30  C   UNL     1      44.138 -17.680   1.673  1.00  0.00     0.001 A 
HETATM   31  C   UNL     1      43.912 -16.325   1.928  1.00  0.00     0.011 A 
BRANCH  27  32
HETATM   32  O   UNL     1      40.372 -16.408   2.870  1.00  0.00    -0.360 OA
HETATM   33  H   UNL     1      39.725 -17.013   2.457  1.00  0.00     0.217 HD
ENDBRANCH  27  32
ENDBRANCH  25  26
ENDBRANCH   1  25
TORSDOF 8
ENDMDL
MODEL 7
REMARK VINA RESULT:      -7.8      2.059      8.372
REMARK  8 active torsions:
REMARK  status: ('A' for Active; 'I' for Inactive)
REMARK    1  A    between atoms: C_3  and  N_4 
REMARK       I    between atoms: N_4  and  C_5 
REMARK       I    between atoms: C_5  and  N_6 
REMARK       I    between atoms: N_6  and  C_7 
REMARK    2  A    between atoms: C_7  and  C_8 
REMARK    3  A    between atoms: C_8  and  N_9 
REMARK    4  A    between atoms: N_9  and  C_11 
REMARK    5  A    between atoms: N_9  and  C_17 
REMARK    6  A    between atoms: C_11  and  C_12 
REMARK    7  A    between atoms: C_17  and  C_18 
REMARK    8  A    between atoms: C_19  and  O_20 
ROOT
HETATM    1  N   UNL     1      42.897 -15.812   4.623  1.00  0.00    -0.053 N 
HETATM    2  H   UNL     1      43.317 -16.208   5.476  1.00  0.00     0.281 HD
ENDROOT
BRANCH   1   3
HETATM    3  C   UNL     1      43.209 -14.328   4.667  1.00  0.00     0.338 C 
BRANCH   3   4
HETATM    4  C   UNL     1      43.122 -13.718   6.070  1.00  0.00     0.251 C 
HETATM    5  N   UNL     1      42.089 -12.816   6.238  1.00  0.00    -0.278 N 
HETATM    6  C   UNL     1      42.015 -11.774   7.129  1.00  0.00     0.323 C 
HETATM    7  H   UNL     1      41.408 -12.667   5.503  1.00  0.00     0.173 HD
HETATM    8  N   UNL     1      42.985 -11.721   8.074  1.00  0.00    -0.338 N 
HETATM    9  O   UNL     1      41.131 -10.949   6.950  1.00  0.00    -0.247 OA
HETATM   10  H   UNL     1      43.525 -12.573   8.197  1.00  0.00     0.164 HD
HETATM   11  O   UNL     1      43.842 -14.110   6.986  1.00  0.00    -0.271 OA
BRANCH   8  12
HETATM   12  C   UNL     1      43.163 -10.706   9.118  1.00  0.00     0.089 C 
HETATM   13  C   UNL     1      41.972 -10.584  10.104  1.00  0.00     0.004 C 
HETATM   14  C   UNL     1      41.745  -9.107  10.470  1.00  0.00     0.012 C 
HETATM   15  C   UNL     1      42.125 -11.411  11.393  1.00  0.00     0.006 C 
HETATM   16  C   UNL     1      43.510 -11.318  12.019  1.00  0.00     0.001 C 
HETATM   17  C   UNL     1      44.603 -11.667  11.020  1.00  0.00     0.002 C 
HETATM   18  C   UNL     1      44.542 -10.774   9.789  1.00  0.00     0.026 C 
ENDBRANCH   8  12
ENDBRANCH   3   4
ENDBRANCH   1   3
BRANCH   1  19
HETATM   19  C   UNL     1      41.428 -16.123   4.805  1.00  0.00     0.300 C 
BRANCH  19  20
HETATM   20  C   UNL     1      40.627 -15.641   3.646  1.00  0.00     0.078 A 
HETATM   21  O   UNL     1      40.045 -14.410   3.783  1.00  0.00    -0.325 OA
HETATM   22  C   UNL     1      39.346 -14.177   2.642  1.00  0.00     0.142 A 
HETATM   23  C   UNL     1      39.482 -15.233   1.771  1.00  0.00     0.027 A 
HETATM   24  C   UNL     1      40.313 -16.180   2.417  1.00  0.00     0.036 A 
ENDBRANCH  19  20
ENDBRANCH   1  19
BRANCH   1  25
HETATM   25  C   UNL     1      43.549 -16.598   3.516  1.00  0.00     0.277 C 
BRANCH  25  26
HETATM   26  C   UNL     1      43.881 -18.063   3.662  1.00  0.00     0.001 A 
HETATM   27  C   UNL     1      44.401 -18.692   4.800  1.00  0.00     0.073 A 
HETATM   28  C   UNL     1      44.762 -20.045   4.784  1.00  0.00     0.037 A 
HETATM   29  C   UNL     1      44.632 -20.792   3.617  1.00  0.00     0.003 A 
HETATM   30  C   UNL     1      44.136 -20.192   2.468  1.00  0.00     0.001 A 
HETATM   31  C   UNL     1      43.766 -18.845   2.491  1.00  0.00     0.011 A 
BRANCH  27  32
HETATM   32  O   UNL     1      44.576 -17.995   5.962  1.00  0.00    -0.360 OA
HETATM   33  H   UNL     1      45.233 -18.477   6.503  1.00  0.00     0.217 HD
ENDBRANCH  27  32
ENDBRANCH  25  26
ENDBRANCH   1  25
TORSDOF 8
ENDMDL
MODEL 8
REMARK VINA RESULT:      -7.8      4.092      8.106
REMARK  8 active torsions:
REMARK  status: ('A' for Active; 'I' for Inactive)
REMARK    1  A    between atoms: C_3  and  N_4 
REMARK       I    between atoms: N_4  and  C_5 
REMARK       I    between atoms: C_5  and  N_6 
REMARK       I    between atoms: N_6  and  C_7 
REMARK    2  A    between atoms: C_7  and  C_8 
REMARK    3  A    between atoms: C_8  and  N_9 
REMARK    4  A    between atoms: N_9  and  C_11 
REMARK    5  A    between atoms: N_9  and  C_17 
REMARK    6  A    between atoms: C_11  and  C_12 
REMARK    7  A    between atoms: C_17  and  C_18 
REMARK    8  A    between atoms: C_19  and  O_20 
ROOT
HETATM    1  N   UNL     1      40.770 -12.843   1.484  1.00  0.00    -0.053 N 
HETATM    2  H   UNL     1      40.607 -13.860   1.461  1.00  0.00     0.281 HD
ENDROOT
BRANCH   1   3
HETATM    3  C   UNL     1      42.181 -12.669   2.014  1.00  0.00     0.338 C 
BRANCH   3   4
HETATM    4  C   UNL     1      42.799 -13.957   2.565  1.00  0.00     0.251 C 
HETATM    5  N   UNL     1      42.241 -15.119   2.065  1.00  0.00    -0.278 N 
HETATM    6  C   UNL     1      42.193 -16.355   2.660  1.00  0.00     0.323 C 
HETATM    7  H   UNL     1      41.548 -15.084   1.328  1.00  0.00     0.173 HD
HETATM    8  N   UNL     1      42.926 -16.508   3.789  1.00  0.00    -0.338 N 
HETATM    9  O   UNL     1      41.441 -17.183   2.165  1.00  0.00    -0.247 OA
HETATM   10  H   UNL     1      43.629 -15.794   3.957  1.00  0.00     0.164 HD
HETATM   11  O   UNL     1      43.791 -13.934   3.290  1.00  0.00    -0.271 OA
BRANCH   8  12
HETATM   12  C   UNL     1      43.028 -17.702   4.636  1.00  0.00     0.089 C 
HETATM   13  C   UNL     1      44.447 -17.968   5.202  1.00  0.00     0.004 C 
HETATM   14  C   UNL     1      44.732 -19.480   5.210  1.00  0.00     0.012 C 
HETATM   15  C   UNL     1      44.689 -17.396   6.610  1.00  0.00     0.006 C 
HETATM   16  C   UNL     1      43.537 -17.642   7.577  1.00  0.00     0.001 C 
HETATM   17  C   UNL     1      42.215 -17.148   7.012  1.00  0.00     0.002 C 
HETATM   18  C   UNL     1      41.900 -17.798   5.673  1.00  0.00     0.026 C 
ENDBRANCH   8  12
ENDBRANCH   3   4
ENDBRANCH   1   3
BRANCH   1  19
HETATM   19  C   UNL     1      39.705 -12.361   2.443  1.00  0.00     0.300 C 
BRANCH  19  20
HETATM   20  C   UNL     1      39.882 -12.963   3.793  1.00  0.00     0.078 A 
HETATM   21  O   UNL     1      39.729 -14.320   3.875  1.00  0.00    -0.325 OA
HETATM   22  C   UNL     1      39.900 -14.656   5.180  1.00  0.00     0.142 A 
HETATM   23  C   UNL     1      40.173 -13.538   5.933  1.00  0.00     0.027 A 
HETATM   24  C   UNL     1      40.165 -12.441   5.037  1.00  0.00     0.036 A 
ENDBRANCH  19  20
ENDBRANCH   1  19
BRANCH   1  25
HETATM   25  C   UNL     1      40.536 -12.420   0.058  1.00  0.00     0.277 C 
BRANCH  25  26
HETATM   26  C   UNL     1      40.723 -13.369  -1.100  1.00  0.00     0.001 A 
HETATM   27  C   UNL     1      40.558 -14.759  -1.076  1.00  0.00     0.073 A 
HETATM   28  C   UNL     1      40.857 -15.548  -2.194  1.00  0.00     0.037 A 
HETATM   29  C   UNL     1      41.351 -14.962  -3.355  1.00  0.00     0.003 A 
HETATM   30  C   UNL     1      41.542 -13.588  -3.404  1.00  0.00     0.001 A 
HETATM   31  C   UNL     1      41.232 -12.803  -2.291  1.00  0.00     0.011 A 
BRANCH  27  32
HETATM   32  O   UNL     1      40.104 -15.387   0.050  1.00  0.00    -0.360 OA
HETATM   33  H   UNL     1      39.999 -14.710   0.747  1.00  0.00     0.217 HD
ENDBRANCH  27  32
ENDBRANCH  25  26
ENDBRANCH   1  25
TORSDOF 8
ENDMDL
MODEL 9
REMARK VINA RESULT:      -7.7      3.744      7.448
REMARK  8 active torsions:
REMARK  status: ('A' for Active; 'I' for Inactive)
REMARK    1  A    between atoms: C_3  and  N_4 
REMARK       I    between atoms: N_4  and  C_5 
REMARK       I    between atoms: C_5  and  N_6 
REMARK       I    between atoms: N_6  and  C_7 
REMARK    2  A    between atoms: C_7  and  C_8 
REMARK    3  A    between atoms: C_8  and  N_9 
REMARK    4  A    between atoms: N_9  and  C_11 
REMARK    5  A    between atoms: N_9  and  C_17 
REMARK    6  A    between atoms: C_11  and  C_12 
REMARK    7  A    between atoms: C_17  and  C_18 
REMARK    8  A    between atoms: C_19  and  O_20 
ROOT
HETATM    1  N   UNL     1      40.885 -15.775   4.552  1.00  0.00    -0.053 N 
HETATM    2  H   UNL     1      41.838 -15.448   4.336  1.00  0.00     0.281 HD
ENDROOT
BRANCH   1   3
HETATM    3  C   UNL     1      39.954 -14.762   3.914  1.00  0.00     0.338 C 
BRANCH   3   4
HETATM    4  C   UNL     1      39.916 -14.833   2.384  1.00  0.00     0.251 C 
HETATM    5  N   UNL     1      41.015 -14.277   1.758  1.00  0.00    -0.278 N 
HETATM    6  C   UNL     1      41.087 -13.744   0.495  1.00  0.00     0.323 C 
HETATM    7  H   UNL     1      41.804 -13.945   2.298  1.00  0.00     0.173 HD
HETATM    8  N   UNL     1      40.007 -13.937  -0.301  1.00  0.00    -0.338 N 
HETATM    9  O   UNL     1      42.079 -13.083   0.225  1.00  0.00    -0.247 OA
HETATM   10  H   UNL     1      39.358 -14.656   0.005  1.00  0.00     0.164 HD
HETATM   11  O   UNL     1      39.034 -15.452   1.792  1.00  0.00    -0.271 OA
BRANCH   8  12
HETATM   12  C   UNL     1      39.807 -13.451  -1.671  1.00  0.00     0.089 C 
HETATM   13  C   UNL     1      40.701 -14.140  -2.734  1.00  0.00     0.004 C 
HETATM   14  C   UNL     1      41.161 -13.110  -3.779  1.00  0.00     0.012 C 
HETATM   15  C   UNL     1      40.038 -15.331  -3.450  1.00  0.00     0.006 C 
HETATM   16  C   UNL     1      38.598 -15.067  -3.871  1.00  0.00     0.001 C 
HETATM   17  C   UNL     1      37.748 -14.597  -2.701  1.00  0.00     0.002 C 
HETATM   18  C   UNL     1      38.325 -13.345  -2.057  1.00  0.00     0.026 C 
ENDBRANCH   8  12
ENDBRANCH   3   4
ENDBRANCH   1   3
BRANCH   1  19
HETATM   19  C   UNL     1      40.862 -15.742   6.064  1.00  0.00     0.300 C 
BRANCH  19  20
HETATM   20  C   UNL     1      42.149 -16.227   6.634  1.00  0.00     0.078 A 
HETATM   21  O   UNL     1      43.273 -15.543   6.256  1.00  0.00    -0.325 OA
HETATM   22  C   UNL     1      44.326 -16.157   6.856  1.00  0.00     0.142 A 
HETATM   23  C   UNL     1      43.893 -17.214   7.622  1.00  0.00     0.027 A 
HETATM   24  C   UNL     1      42.484 -17.259   7.482  1.00  0.00     0.036 A 
ENDBRANCH  19  20
ENDBRANCH   1  19
BRANCH   1  25
HETATM   25  C   UNL     1      40.854 -17.166   3.976  1.00  0.00     0.277 C 
BRANCH  25  26
HETATM   26  C   UNL     1      42.057 -17.782   3.305  1.00  0.00     0.001 A 
HETATM   27  C   UNL     1      42.307 -17.840   1.929  1.00  0.00     0.073 A 
HETATM   28  C   UNL     1      43.415 -18.528   1.418  1.00  0.00     0.037 A 
HETATM   29  C   UNL     1      44.285 -19.194   2.276  1.00  0.00     0.003 A 
HETATM   30  C   UNL     1      44.052 -19.170   3.644  1.00  0.00     0.001 A 
HETATM   31  C   UNL     1      42.953 -18.473   4.151  1.00  0.00     0.011 A 
BRANCH  27  32
HETATM   32  O   UNL     1      41.468 -17.227   1.042  1.00  0.00    -0.360 OA
HETATM   33  H   UNL     1      40.553 -17.493   1.264  1.00  0.00     0.217 HD
ENDBRANCH  27  32
ENDBRANCH  25  26
ENDBRANCH   1  25
TORSDOF 8
ENDMDL
MODEL 10
REMARK VINA RESULT:      -7.6      5.238      8.717
REMARK  8 active torsions:
REMARK  status: ('A' for Active; 'I' for Inactive)
REMARK    1  A    between atoms: C_3  and  N_4 
REMARK       I    between atoms: N_4  and  C_5 
REMARK       I    between atoms: C_5  and  N_6 
REMARK       I    between atoms: N_6  and  C_7 
REMARK    2  A    between atoms: C_7  and  C_8 
REMARK    3  A    between atoms: C_8  and  N_9 
REMARK    4  A    between atoms: N_9  and  C_11 
REMARK    5  A    between atoms: N_9  and  C_17 
REMARK    6  A    between atoms: C_11  and  C_12 
REMARK    7  A    between atoms: C_17  and  C_18 
REMARK    8  A    between atoms: C_19  and  O_20 
ROOT
HETATM    1  N   UNL     1      39.504 -12.762   0.073  1.00  0.00    -0.053 N 
HETATM    2  H   UNL     1      40.425 -13.214  -0.023  1.00  0.00     0.281 HD
ENDROOT
BRANCH   1   3
HETATM    3  C   UNL     1      39.053 -13.056   1.491  1.00  0.00     0.338 C 
BRANCH   3   4
HETATM    4  C   UNL     1      39.970 -14.023   2.245  1.00  0.00     0.251 C 
HETATM    5  N   UNL     1      41.196 -13.491   2.599  1.00  0.00    -0.278 N 
HETATM    6  C   UNL     1      42.375 -14.159   2.814  1.00  0.00     0.323 C 
HETATM    7  H   UNL     1      41.399 -12.512   2.442  1.00  0.00     0.173 HD
HETATM    8  N   UNL     1      42.301 -15.512   2.858  1.00  0.00    -0.338 N 
HETATM    9  O   UNL     1      43.394 -13.487   2.875  1.00  0.00    -0.247 OA
HETATM   10  H   UNL     1      41.369 -15.898   2.976  1.00  0.00     0.164 HD
HETATM   11  O   UNL     1      39.578 -15.131   2.605  1.00  0.00    -0.271 OA
BRANCH   8  12
HETATM   12  C   UNL     1      43.403 -16.464   3.038  1.00  0.00     0.089 C 
HETATM   13  C   UNL     1      43.028 -17.733   3.848  1.00  0.00     0.004 C 
HETATM   14  C   UNL     1      44.200 -18.138   4.758  1.00  0.00     0.012 C 
HETATM   15  C   UNL     1      42.612 -18.939   2.986  1.00  0.00     0.006 C 
HETATM   16  C   UNL     1      43.514 -19.169   1.779  1.00  0.00     0.001 C 
HETATM   17  C   UNL     1      43.645 -17.915   0.928  1.00  0.00     0.002 C 
HETATM   18  C   UNL     1      44.173 -16.741   1.740  1.00  0.00     0.026 C 
ENDBRANCH   8  12
ENDBRANCH   3   4
ENDBRANCH   1   3
BRANCH   1  19
HETATM   19  C   UNL     1      38.679 -13.470  -0.978  1.00  0.00     0.300 C 
BRANCH  19  20
HETATM   20  C   UNL     1      39.535 -14.307  -1.862  1.00  0.00     0.078 A 
HETATM   21  O   UNL     1      38.903 -14.928  -2.905  1.00  0.00    -0.325 OA
HETATM   22  C   UNL     1      39.846 -15.654  -3.559  1.00  0.00     0.142 A 
HETATM   23  C   UNL     1      41.074 -15.498  -2.961  1.00  0.00     0.027 A 
HETATM   24  C   UNL     1      40.876 -14.624  -1.864  1.00  0.00     0.036 A 
ENDBRANCH  19  20
ENDBRANCH   1  19
BRANCH   1  25
HETATM   25  C   UNL     1      39.788 -11.319  -0.251  1.00  0.00     0.277 C 
BRANCH  25  26
HETATM   26  C   UNL     1      41.059 -10.888  -0.941  1.00  0.00     0.001 A 
HETATM   27  C   UNL     1      42.352 -10.917  -0.404  1.00  0.00     0.073 A 
HETATM   28  C   UNL     1      43.445 -10.397  -1.108  1.00  0.00     0.037 A 
HETATM   29  C   UNL     1      43.262  -9.814  -2.359  1.00  0.00     0.003 A 
HETATM   30  C   UNL     1      41.989  -9.755  -2.909  1.00  0.00     0.001 A 
HETATM   31  C   UNL     1      40.903 -10.285  -2.209  1.00  0.00     0.011 A 
BRANCH  27  32
HETATM   32  O   UNL     1      42.581 -11.451   0.832  1.00  0.00    -0.360 OA
HETATM   33  H   UNL     1      41.717 -11.704   1.214  1.00  0.00     0.217 HD
ENDBRANCH  27  32
ENDBRANCH  25  26
ENDBRANCH   1  25
TORSDOF 8
ENDMDL
