MODEL 1
REMARK VINA RESULT:      -9.1      0.000      0.000
REMARK  5 active torsions:
REMARK  status: ('A' for Active; 'I' for Inactive)
REMARK    1  A    between atoms: C_4  and  C_5 
REMARK    2  A    between atoms: N_7  and  C_8 
REMARK    3  A    between atoms: C_8  and  C_9 
REMARK    4  A    between atoms: C_9  and  N_10 
REMARK       I    between atoms: N_10  and  C_11 
REMARK    5  A    between atoms: C_11  and  C_12 
ROOT
HETATM    1  N   UNL     1      42.417 -16.621   0.314  1.00  0.00    -0.359 N 
HETATM    2  C   UNL     1      42.311 -17.003   1.635  1.00  0.00     0.230 C 
HETATM    3  O   UNL     1      41.243 -17.357   2.137  1.00  0.00    -0.272 OA
HETATM    4  H   UNL     1      43.286 -16.195   0.013  1.00  0.00     0.162 HD
ENDROOT
BRANCH   1   5
HETATM    5  C   UNL     1      41.256 -16.450  -0.545  1.00  0.00     0.144 C 
BRANCH   5   6
HETATM    6  C   UNL     1      41.030 -15.023  -1.053  1.00  0.00     0.174 C 
BRANCH   6   7
HETATM    7  N   UNL     1      39.968 -14.353  -0.305  1.00  0.00    -0.233 N 
HETATM    8  N   UNL     1      40.158 -14.254   1.056  1.00  0.00    -0.169 NA
HETATM    9  C   UNL     1      39.266 -13.622   1.756  1.00  0.00     0.087 A 
HETATM   10  C   UNL     1      38.036 -13.036   1.182  1.00  0.00     0.040 A 
HETATM   11  C   UNL     1      37.896 -13.101  -0.143  1.00  0.00     0.078 A 
HETATM   12  C   UNL     1      38.923 -13.745  -0.986  1.00  0.00     0.263 A 
HETATM   13  O   UNL     1      38.793 -13.719  -2.207  1.00  0.00    -0.267 OA
BRANCH   9  14
HETATM   14  C   UNL     1      39.464 -13.488   3.230  1.00  0.00    -0.006 A 
HETATM   15  C   UNL     1      39.777 -14.587   4.041  1.00  0.00     0.014 A 
HETATM   16  C   UNL     1      39.941 -14.419   5.419  1.00  0.00     0.001 A 
HETATM   17  C   UNL     1      39.785 -13.159   5.993  1.00  0.00     0.000 A 
HETATM   18  C   UNL     1      39.456 -12.063   5.195  1.00  0.00     0.001 A 
HETATM   19  C   UNL     1      39.291 -12.228   3.819  1.00  0.00     0.014 A 
ENDBRANCH   9  14
ENDBRANCH   6   7
ENDBRANCH   5   6
ENDBRANCH   1   5
BRANCH   2  20
HETATM   20  C   UNL     1      43.593 -16.900   2.483  1.00  0.00     0.149 C 
HETATM   21  C   UNL     1      43.953 -18.253   3.054  1.00  0.00    -0.007 A 
HETATM   22  C   UNL     1      43.927 -18.463   4.434  1.00  0.00     0.083 A 
HETATM   23  C   UNL     1      44.299 -19.321   2.208  1.00  0.00     0.011 A 
HETATM   24  C   UNL     1      44.225 -19.720   4.963  1.00  0.00     0.038 A 
HETATM   25  O   UNL     1      43.613 -17.483   5.343  1.00  0.00    -0.310 OA
HETATM   26  C   UNL     1      44.564 -20.776   4.117  1.00  0.00     0.003 A 
HETATM   27  C   UNL     1      44.603 -20.575   2.738  1.00  0.00     0.001 A 
HETATM   28  C   UNL     1      43.528 -16.185   4.901  1.00  0.00     0.083 A 
HETATM   29  C   UNL     1      43.522 -15.829   3.550  1.00  0.00    -0.007 A 
HETATM   30  C   UNL     1      43.434 -15.206   5.892  1.00  0.00     0.038 A 
HETATM   31  C   UNL     1      43.435 -14.471   3.204  1.00  0.00     0.011 A 
HETATM   32  C   UNL     1      43.347 -13.493   4.195  1.00  0.00     0.001 A 
HETATM   33  C   UNL     1      43.345 -13.860   5.539  1.00  0.00     0.003 A 
ENDBRANCH   2  20
TORSDOF 5
ENDMDL
MODEL 2
REMARK VINA RESULT:      -8.8      1.380      3.463
REMARK  5 active torsions:
REMARK  status: ('A' for Active; 'I' for Inactive)
REMARK    1  A    between atoms: C_4  and  C_5 
REMARK    2  A    between atoms: N_7  and  C_8 
REMARK    3  A    between atoms: C_8  and  C_9 
REMARK    4  A    between atoms: C_9  and  N_10 
REMARK       I    between atoms: N_10  and  C_11 
REMARK    5  A    between atoms: C_11  and  C_12 
ROOT
HETATM    1  N   UNL     1      42.135 -16.382   1.697  1.00  0.00    -0.359 N 
HETATM    2  C   UNL     1      43.205 -17.111   2.171  1.00  0.00     0.230 C 
HETATM    3  O   UNL     1      44.340 -16.997   1.706  1.00  0.00    -0.272 OA
HETATM    4  H   UNL     1      41.207 -16.639   2.015  1.00  0.00     0.162 HD
ENDROOT
BRANCH   1   5
HETATM    5  C   UNL     1      42.224 -15.543   0.511  1.00  0.00     0.144 C 
BRANCH   5   6
HETATM    6  C   UNL     1      40.946 -15.469  -0.328  1.00  0.00     0.174 C 
BRANCH   6   7
HETATM    7  N   UNL     1      39.968 -14.560   0.268  1.00  0.00    -0.233 N 
HETATM    8  N   UNL     1      40.132 -14.294   1.610  1.00  0.00    -0.169 NA
HETATM    9  C   UNL     1      39.320 -13.452   2.173  1.00  0.00     0.087 A 
HETATM   10  C   UNL     1      38.202 -12.792   1.464  1.00  0.00     0.040 A 
HETATM   11  C   UNL     1      38.092 -13.027   0.156  1.00  0.00     0.078 A 
HETATM   12  C   UNL     1      39.040 -13.919  -0.539  1.00  0.00     0.263 A 
HETATM   13  O   UNL     1      38.950 -14.050  -1.758  1.00  0.00    -0.267 OA
BRANCH   9  14
HETATM   14  C   UNL     1      39.492 -13.137   3.621  1.00  0.00    -0.006 A 
HETATM   15  C   UNL     1      39.952 -14.090   4.540  1.00  0.00     0.014 A 
HETATM   16  C   UNL     1      40.087 -13.755   5.890  1.00  0.00     0.001 A 
HETATM   17  C   UNL     1      39.756 -12.475   6.331  1.00  0.00     0.000 A 
HETATM   18  C   UNL     1      39.281 -11.527   5.425  1.00  0.00     0.001 A 
HETATM   19  C   UNL     1      39.144 -11.857   4.076  1.00  0.00     0.014 A 
ENDBRANCH   9  14
ENDBRANCH   6   7
ENDBRANCH   5   6
ENDBRANCH   1   5
BRANCH   2  20
HETATM   20  C   UNL     1      42.897 -18.139   3.276  1.00  0.00     0.149 C 
HETATM   21  C   UNL     1      43.325 -17.603   4.623  1.00  0.00    -0.007 A 
HETATM   22  C   UNL     1      44.349 -18.228   5.335  1.00  0.00     0.083 A 
HETATM   23  C   UNL     1      42.714 -16.460   5.168  1.00  0.00     0.011 A 
HETATM   24  C   UNL     1      44.771 -17.716   6.564  1.00  0.00     0.038 A 
HETATM   25  O   UNL     1      45.000 -19.354   4.895  1.00  0.00    -0.310 OA
HETATM   26  C   UNL     1      44.163 -16.579   7.096  1.00  0.00     0.003 A 
HETATM   27  C   UNL     1      43.132 -15.952   6.398  1.00  0.00     0.001 A 
HETATM   28  C   UNL     1      44.485 -20.024   3.812  1.00  0.00     0.083 A 
HETATM   29  C   UNL     1      43.472 -19.511   2.997  1.00  0.00    -0.007 A 
HETATM   30  C   UNL     1      45.042 -21.277   3.544  1.00  0.00     0.038 A 
HETATM   31  C   UNL     1      43.013 -20.279   1.915  1.00  0.00     0.011 A 
HETATM   32  C   UNL     1      43.567 -21.533   1.653  1.00  0.00     0.001 A 
HETATM   33  C   UNL     1      44.582 -22.031   2.466  1.00  0.00     0.003 A 
ENDBRANCH   2  20
TORSDOF 5
ENDMDL
MODEL 3
REMARK VINA RESULT:      -8.8      4.520      7.156
REMARK  5 active torsions:
REMARK  status: ('A' for Active; 'I' for Inactive)
REMARK    1  A    between atoms: C_4  and  C_5 
REMARK    2  A    between atoms: N_7  and  C_8 
REMARK    3  A    between atoms: C_8  and  C_9 
REMARK    4  A    between atoms: C_9  and  N_10 
REMARK       I    between atoms: N_10  and  C_11 
REMARK    5  A    between atoms: C_11  and  C_12 
ROOT
HETATM    1  N   UNL     1      43.078 -15.160   5.109  1.00  0.00    -0.359 N 
HETATM    2  C   UNL     1      41.914 -15.857   5.360  1.00  0.00     0.230 C 
HETATM    3  O   UNL     1      41.123 -15.523   6.243  1.00  0.00    -0.272 OA
HETATM    4  H   UNL     1      43.754 -15.579   4.480  1.00  0.00     0.162 HD
ENDROOT
BRANCH   1   5
HETATM    5  C   UNL     1      43.543 -14.080   5.965  1.00  0.00     0.144 C 
BRANCH   5   6
HETATM    6  C   UNL     1      44.467 -14.509   7.107  1.00  0.00     0.174 C 
BRANCH   6   7
HETATM    7  N   UNL     1      45.051 -13.353   7.785  1.00  0.00    -0.233 N 
HETATM    8  N   UNL     1      44.399 -12.929   8.923  1.00  0.00    -0.169 NA
HETATM    9  C   UNL     1      44.909 -11.938   9.588  1.00  0.00     0.087 A 
HETATM   10  C   UNL     1      46.128 -11.210   9.172  1.00  0.00     0.040 A 
HETATM   11  C   UNL     1      46.768 -11.668   8.096  1.00  0.00     0.078 A 
HETATM   12  C   UNL     1      46.264 -12.840   7.352  1.00  0.00     0.263 A 
HETATM   13  O   UNL     1      46.923 -13.275   6.411  1.00  0.00    -0.267 OA
BRANCH   9  14
HETATM   14  C   UNL     1      44.228 -11.475  10.833  1.00  0.00    -0.006 A 
HETATM   15  C   UNL     1      43.645 -12.371  11.740  1.00  0.00     0.014 A 
HETATM   16  C   UNL     1      43.007 -11.894  12.888  1.00  0.00     0.001 A 
HETATM   17  C   UNL     1      42.939 -10.523  13.132  1.00  0.00     0.000 A 
HETATM   18  C   UNL     1      43.501  -9.624  12.226  1.00  0.00     0.001 A 
HETATM   19  C   UNL     1      44.139 -10.097  11.078  1.00  0.00     0.014 A 
ENDBRANCH   9  14
ENDBRANCH   6   7
ENDBRANCH   5   6
ENDBRANCH   1   5
BRANCH   2  20
HETATM   20  C   UNL     1      41.682 -17.127   4.521  1.00  0.00     0.149 C 
HETATM   21  C   UNL     1      42.717 -18.175   4.861  1.00  0.00    -0.007 A 
HETATM   22  C   UNL     1      43.643 -18.587   3.901  1.00  0.00     0.083 A 
HETATM   23  C   UNL     1      42.776 -18.736   6.149  1.00  0.00     0.011 A 
HETATM   24  C   UNL     1      44.622 -19.530   4.220  1.00  0.00     0.038 A 
HETATM   25  O   UNL     1      43.661 -18.110   2.613  1.00  0.00    -0.310 OA
HETATM   26  C   UNL     1      44.676 -20.078   5.502  1.00  0.00     0.003 A 
HETATM   27  C   UNL     1      43.751 -19.681   6.466  1.00  0.00     0.001 A 
HETATM   28  C   UNL     1      42.599 -17.354   2.181  1.00  0.00     0.083 A 
HETATM   29  C   UNL     1      41.608 -16.858   3.033  1.00  0.00    -0.007 A 
HETATM   30  C   UNL     1      42.553 -17.087   0.811  1.00  0.00     0.038 A 
HETATM   31  C   UNL     1      40.559 -16.098   2.490  1.00  0.00     0.011 A 
HETATM   32  C   UNL     1      40.513 -15.837   1.120  1.00  0.00     0.001 A 
HETATM   33  C   UNL     1      41.510 -16.329   0.281  1.00  0.00     0.003 A 
ENDBRANCH   2  20
TORSDOF 5
ENDMDL
MODEL 4
REMARK VINA RESULT:      -8.8      1.823      3.967
REMARK  5 active torsions:
REMARK  status: ('A' for Active; 'I' for Inactive)
REMARK    1  A    between atoms: C_4  and  C_5 
REMARK    2  A    between atoms: N_7  and  C_8 
REMARK    3  A    between atoms: C_8  and  C_9 
REMARK    4  A    between atoms: C_9  and  N_10 
REMARK       I    between atoms: N_10  and  C_11 
REMARK    5  A    between atoms: C_11  and  C_12 
ROOT
HETATM    1  N   UNL     1      41.593 -17.008   1.104  1.00  0.00    -0.359 N 
HETATM    2  C   UNL     1      42.598 -17.339   1.989  1.00  0.00     0.230 C 
HETATM    3  O   UNL     1      43.719 -16.831   1.936  1.00  0.00    -0.272 OA
HETATM    4  H   UNL     1      40.753 -17.576   1.107  1.00  0.00     0.162 HD
ENDROOT
BRANCH   1   5
HETATM    5  C   UNL     1      41.820 -16.159  -0.054  1.00  0.00     0.144 C 
BRANCH   5   6
HETATM    6  C   UNL     1      40.703 -15.154  -0.350  1.00  0.00     0.174 C 
BRANCH   6   7
HETATM    7  N   UNL     1      40.873 -13.925   0.422  1.00  0.00    -0.233 N 
HETATM    8  N   UNL     1      41.404 -14.074   1.685  1.00  0.00    -0.169 NA
HETATM    9  C   UNL     1      41.622 -13.006   2.389  1.00  0.00     0.087 A 
HETATM   10  C   UNL     1      41.295 -11.638   1.929  1.00  0.00     0.040 A 
HETATM   11  C   UNL     1      40.827 -11.514   0.687  1.00  0.00     0.078 A 
HETATM   12  C   UNL     1      40.634 -12.696  -0.176  1.00  0.00     0.263 A 
HETATM   13  O   UNL     1      40.272 -12.532  -1.338  1.00  0.00    -0.267 OA
BRANCH   9  14
HETATM   14  C   UNL     1      42.214 -13.145   3.752  1.00  0.00    -0.006 A 
HETATM   15  C   UNL     1      41.632 -12.551   4.880  1.00  0.00     0.014 A 
HETATM   16  C   UNL     1      42.227 -12.698   6.137  1.00  0.00     0.001 A 
HETATM   17  C   UNL     1      43.406 -13.427   6.272  1.00  0.00     0.000 A 
HETATM   18  C   UNL     1      44.001 -14.007   5.151  1.00  0.00     0.001 A 
HETATM   19  C   UNL     1      43.410 -13.863   3.895  1.00  0.00     0.014 A 
ENDBRANCH   9  14
ENDBRANCH   6   7
ENDBRANCH   5   6
ENDBRANCH   1   5
BRANCH   2  20
HETATM   20  C   UNL     1      42.271 -18.440   3.016  1.00  0.00     0.149 C 
HETATM   21  C   UNL     1      42.241 -17.860   4.412  1.00  0.00    -0.007 A 
HETATM   22  C   UNL     1      43.180 -18.264   5.362  1.00  0.00     0.083 A 
HETATM   23  C   UNL     1      41.283 -16.894   4.768  1.00  0.00     0.011 A 
HETATM   24  C   UNL     1      43.177 -17.706   6.642  1.00  0.00     0.038 A 
HETATM   25  O   UNL     1      44.147 -19.208   5.117  1.00  0.00    -0.310 OA
HETATM   26  C   UNL     1      42.226 -16.745   6.986  1.00  0.00     0.003 A 
HETATM   27  C   UNL     1      41.277 -16.341   6.048  1.00  0.00     0.001 A 
HETATM   28  C   UNL     1      44.062 -19.944   3.961  1.00  0.00     0.083 A 
HETATM   29  C   UNL     1      43.183 -19.644   2.917  1.00  0.00    -0.007 A 
HETATM   30  C   UNL     1      44.927 -21.037   3.865  1.00  0.00     0.038 A 
HETATM   31  C   UNL     1      43.172 -20.464   1.777  1.00  0.00     0.011 A 
HETATM   32  C   UNL     1      44.033 -21.558   1.685  1.00  0.00     0.001 A 
HETATM   33  C   UNL     1      44.911 -21.844   2.728  1.00  0.00     0.003 A 
ENDBRANCH   2  20
TORSDOF 5
ENDMDL
MODEL 5
REMARK VINA RESULT:      -8.6      2.310      7.896
REMARK  5 active torsions:
REMARK  status: ('A' for Active; 'I' for Inactive)
REMARK    1  A    between atoms: C_4  and  C_5 
REMARK    2  A    between atoms: N_7  and  C_8 
REMARK    3  A    between atoms: C_8  and  C_9 
REMARK    4  A    between atoms: C_9  and  N_10 
REMARK       I    between atoms: N_10  and  C_11 
REMARK    5  A    between atoms: C_11  and  C_12 
ROOT
HETATM    1  N   UNL     1      40.052 -15.343   0.742  1.00  0.00    -0.359 N 
HETATM    2  C   UNL     1      41.194 -15.344  -0.032  1.00  0.00     0.230 C 
HETATM    3  O   UNL     1      42.187 -16.013   0.256  1.00  0.00    -0.272 OA
HETATM    4  H   UNL     1      39.338 -14.654   0.533  1.00  0.00     0.162 HD
ENDROOT
BRANCH   1   5
HETATM    5  C   UNL     1      39.986 -16.000   2.038  1.00  0.00     0.144 C 
BRANCH   5   6
HETATM    6  C   UNL     1      40.404 -15.131   3.227  1.00  0.00     0.174 C 
BRANCH   6   7
HETATM    7  N   UNL     1      41.435 -15.785   4.030  1.00  0.00    -0.233 N 
HETATM    8  N   UNL     1      41.929 -16.970   3.528  1.00  0.00    -0.169 NA
HETATM    9  C   UNL     1      42.883 -17.562   4.180  1.00  0.00     0.087 A 
HETATM   10  C   UNL     1      43.443 -17.058   5.453  1.00  0.00     0.040 A 
HETATM   11  C   UNL     1      42.984 -15.887   5.894  1.00  0.00     0.078 A 
HETATM   12  C   UNL     1      41.952 -15.143   5.145  1.00  0.00     0.263 A 
HETATM   13  O   UNL     1      41.611 -14.032   5.546  1.00  0.00    -0.267 OA
BRANCH   9  14
HETATM   14  C   UNL     1      43.444 -18.837   3.643  1.00  0.00    -0.006 A 
HETATM   15  C   UNL     1      44.398 -19.584   4.346  1.00  0.00     0.014 A 
HETATM   16  C   UNL     1      44.906 -20.766   3.800  1.00  0.00     0.001 A 
HETATM   17  C   UNL     1      44.471 -21.203   2.550  1.00  0.00     0.000 A 
HETATM   18  C   UNL     1      43.534 -20.456   1.837  1.00  0.00     0.001 A 
HETATM   19  C   UNL     1      43.025 -19.275   2.378  1.00  0.00     0.014 A 
ENDBRANCH   9  14
ENDBRANCH   6   7
ENDBRANCH   5   6
ENDBRANCH   1   5
BRANCH   2  20
HETATM   20  C   UNL     1      41.194 -14.404  -1.253  1.00  0.00     0.149 C 
HETATM   21  C   UNL     1      41.064 -12.966  -0.805  1.00  0.00    -0.007 A 
HETATM   22  C   UNL     1      39.933 -12.222  -1.146  1.00  0.00     0.083 A 
HETATM   23  C   UNL     1      42.067 -12.363  -0.027  1.00  0.00     0.011 A 
HETATM   24  C   UNL     1      39.794 -10.905  -0.706  1.00  0.00     0.038 A 
HETATM   25  O   UNL     1      38.905 -12.716  -1.911  1.00  0.00    -0.310 OA
HETATM   26  C   UNL     1      40.792 -10.315   0.070  1.00  0.00     0.003 A 
HETATM   27  C   UNL     1      41.930 -11.045   0.408  1.00  0.00     0.001 A 
HETATM   28  C   UNL     1      39.085 -13.918  -2.550  1.00  0.00     0.083 A 
HETATM   29  C   UNL     1      40.160 -14.774  -2.295  1.00  0.00    -0.007 A 
HETATM   30  C   UNL     1      38.112 -14.265  -3.490  1.00  0.00     0.038 A 
HETATM   31  C   UNL     1      40.255 -15.981  -3.007  1.00  0.00     0.011 A 
HETATM   32  C   UNL     1      39.284 -16.323  -3.949  1.00  0.00     0.001 A 
HETATM   33  C   UNL     1      38.212 -15.466  -4.190  1.00  0.00     0.003 A 
ENDBRANCH   2  20
TORSDOF 5
ENDMDL
MODEL 6
REMARK VINA RESULT:      -8.3      2.010      8.512
REMARK  5 active torsions:
REMARK  status: ('A' for Active; 'I' for Inactive)
REMARK    1  A    between atoms: C_4  and  C_5 
REMARK    2  A    between atoms: N_7  and  C_8 
REMARK    3  A    between atoms: C_8  and  C_9 
REMARK    4  A    between atoms: C_9  and  N_10 
REMARK       I    between atoms: N_10  and  C_11 
REMARK    5  A    between atoms: C_11  and  C_12 
ROOT
HETATM    1  N   UNL     1      41.211 -14.913   2.331  1.00  0.00    -0.359 N 
HETATM    2  C   UNL     1      40.024 -14.779   1.641  1.00  0.00     0.230 C 
HETATM    3  O   UNL     1      39.058 -15.517   1.839  1.00  0.00    -0.272 OA
HETATM    4  H   UNL     1      42.009 -14.379   2.008  1.00  0.00     0.162 HD
ENDROOT
BRANCH   1   5
HETATM    5  C   UNL     1      41.473 -16.030   3.225  1.00  0.00     0.144 C 
BRANCH   5   6
HETATM    6  C   UNL     1      42.004 -15.642   4.608  1.00  0.00     0.174 C 
BRANCH   6   7
HETATM    7  N   UNL     1      42.992 -16.606   5.089  1.00  0.00    -0.233 N 
HETATM    8  N   UNL     1      43.101 -17.772   4.361  1.00  0.00    -0.169 NA
HETATM    9  C   UNL     1      44.002 -18.636   4.719  1.00  0.00     0.087 A 
HETATM   10  C   UNL     1      44.890 -18.460   5.888  1.00  0.00     0.040 A 
HETATM   11  C   UNL     1      44.800 -17.304   6.548  1.00  0.00     0.078 A 
HETATM   12  C   UNL     1      43.842 -16.262   6.129  1.00  0.00     0.263 A 
HETATM   13  O   UNL     1      43.842 -15.183   6.717  1.00  0.00    -0.267 OA
BRANCH   9  14
HETATM   14  C   UNL     1      44.148 -19.897   3.933  1.00  0.00    -0.006 A 
HETATM   15  C   UNL     1      44.692 -21.062   4.491  1.00  0.00     0.014 A 
HETATM   16  C   UNL     1      44.822 -22.217   3.715  1.00  0.00     0.001 A 
HETATM   17  C   UNL     1      44.419 -22.213   2.381  1.00  0.00     0.000 A 
HETATM   18  C   UNL     1      43.892 -21.052   1.814  1.00  0.00     0.001 A 
HETATM   19  C   UNL     1      43.761 -19.897   2.586  1.00  0.00     0.014 A 
ENDBRANCH   9  14
ENDBRANCH   6   7
ENDBRANCH   5   6
ENDBRANCH   1   5
BRANCH   2  20
HETATM   20  C   UNL     1      39.986 -13.693   0.549  1.00  0.00     0.149 C 
HETATM   21  C   UNL     1      38.852 -12.728   0.810  1.00  0.00    -0.007 A 
HETATM   22  C   UNL     1      37.784 -12.639  -0.084  1.00  0.00     0.083 A 
HETATM   23  C   UNL     1      38.846 -11.923   1.962  1.00  0.00     0.011 A 
HETATM   24  C   UNL     1      36.719 -11.773   0.171  1.00  0.00     0.038 A 
HETATM   25  O   UNL     1      37.703 -13.373  -1.242  1.00  0.00    -0.310 OA
HETATM   26  C   UNL     1      36.718 -10.980   1.318  1.00  0.00     0.003 A 
HETATM   27  C   UNL     1      37.784 -11.054   2.213  1.00  0.00     0.001 A 
HETATM   28  C   UNL     1      38.813 -14.070  -1.653  1.00  0.00     0.083 A 
HETATM   29  C   UNL     1      39.946 -14.256  -0.856  1.00  0.00    -0.007 A 
HETATM   30  C   UNL     1      38.756 -14.610  -2.939  1.00  0.00     0.038 A 
HETATM   31  C   UNL     1      41.031 -14.983  -1.373  1.00  0.00     0.011 A 
HETATM   32  C   UNL     1      40.974 -15.517  -2.661  1.00  0.00     0.001 A 
HETATM   33  C   UNL     1      39.837 -15.332  -3.443  1.00  0.00     0.003 A 
ENDBRANCH   2  20
TORSDOF 5
ENDMDL
MODEL 7
REMARK VINA RESULT:      -8.3      2.712      5.238
REMARK  5 active torsions:
REMARK  status: ('A' for Active; 'I' for Inactive)
REMARK    1  A    between atoms: C_4  and  C_5 
REMARK    2  A    between atoms: N_7  and  C_8 
REMARK    3  A    between atoms: C_8  and  C_9 
REMARK    4  A    between atoms: C_9  and  N_10 
REMARK       I    between atoms: N_10  and  C_11 
REMARK    5  A    between atoms: C_11  and  C_12 
ROOT
HETATM    1  N   UNL     1      41.809 -14.152   3.803  1.00  0.00    -0.359 N 
HETATM    2  C   UNL     1      40.909 -15.168   4.048  1.00  0.00     0.230 C 
HETATM    3  O   UNL     1      40.419 -15.362   5.161  1.00  0.00    -0.272 OA
HETATM    4  H   UNL     1      42.288 -14.148   2.909  1.00  0.00     0.162 HD
ENDROOT
BRANCH   1   5
HETATM    5  C   UNL     1      42.374 -13.334   4.865  1.00  0.00     0.144 C 
BRANCH   5   6
HETATM    6  C   UNL     1      41.512 -12.144   5.294  1.00  0.00     0.174 C 
BRANCH   6   7
HETATM    7  N   UNL     1      40.586 -11.746   4.236  1.00  0.00    -0.233 N 
HETATM    8  N   UNL     1      41.138 -11.572   2.985  1.00  0.00    -0.169 NA
HETATM    9  C   UNL     1      40.347 -11.269   2.001  1.00  0.00     0.087 A 
HETATM   10  C   UNL     1      38.890 -11.061   2.153  1.00  0.00     0.040 A 
HETATM   11  C   UNL     1      38.371 -11.282   3.361  1.00  0.00     0.078 A 
HETATM   12  C   UNL     1      39.223 -11.701   4.492  1.00  0.00     0.263 A 
HETATM   13  O   UNL     1      38.695 -11.967   5.569  1.00  0.00    -0.267 OA
BRANCH   9  14
HETATM   14  C   UNL     1      40.923 -11.094   0.636  1.00  0.00    -0.006 A 
HETATM   15  C   UNL     1      40.237 -10.415  -0.380  1.00  0.00     0.014 A 
HETATM   16  C   UNL     1      40.809 -10.285  -1.648  1.00  0.00     0.001 A 
HETATM   17  C   UNL     1      42.061 -10.836  -1.911  1.00  0.00     0.000 A 
HETATM   18  C   UNL     1      42.744 -11.528  -0.910  1.00  0.00     0.001 A 
HETATM   19  C   UNL     1      42.175 -11.661   0.357  1.00  0.00     0.014 A 
ENDBRANCH   9  14
ENDBRANCH   6   7
ENDBRANCH   5   6
ENDBRANCH   1   5
BRANCH   2  20
HETATM   20  C   UNL     1      40.593 -16.103   2.865  1.00  0.00     0.149 C 
HETATM   21  C   UNL     1      41.796 -16.959   2.540  1.00  0.00    -0.007 A 
HETATM   22  C   UNL     1      42.448 -16.820   1.314  1.00  0.00     0.083 A 
HETATM   23  C   UNL     1      42.287 -17.892   3.470  1.00  0.00     0.011 A 
HETATM   24  C   UNL     1      43.579 -17.584   1.023  1.00  0.00     0.038 A 
HETATM   25  O   UNL     1      42.041 -15.947   0.335  1.00  0.00    -0.310 OA
HETATM   26  C   UNL     1      44.062 -18.504   1.953  1.00  0.00     0.003 A 
HETATM   27  C   UNL     1      43.414 -18.659   3.177  1.00  0.00     0.001 A 
HETATM   28  C   UNL     1      40.819 -15.334   0.473  1.00  0.00     0.083 A 
HETATM   29  C   UNL     1      40.064 -15.374   1.649  1.00  0.00    -0.007 A 
HETATM   30  C   UNL     1      40.351 -14.640  -0.645  1.00  0.00     0.038 A 
HETATM   31  C   UNL     1      38.823 -14.717   1.685  1.00  0.00     0.011 A 
HETATM   32  C   UNL     1      38.356 -14.029   0.565  1.00  0.00     0.001 A 
HETATM   33  C   UNL     1      39.119 -13.989  -0.599  1.00  0.00     0.003 A 
ENDBRANCH   2  20
TORSDOF 5
ENDMDL
MODEL 8
REMARK VINA RESULT:      -8.1      2.162      4.130
REMARK  5 active torsions:
REMARK  status: ('A' for Active; 'I' for Inactive)
REMARK    1  A    between atoms: C_4  and  C_5 
REMARK    2  A    between atoms: N_7  and  C_8 
REMARK    3  A    between atoms: C_8  and  C_9 
REMARK    4  A    between atoms: C_9  and  N_10 
REMARK       I    between atoms: N_10  and  C_11 
REMARK    5  A    between atoms: C_11  and  C_12 
ROOT
HETATM    1  N   UNL     1      41.292 -16.913   2.046  1.00  0.00    -0.359 N 
HETATM    2  C   UNL     1      41.689 -17.306   3.307  1.00  0.00     0.230 C 
HETATM    3  O   UNL     1      40.886 -17.634   4.181  1.00  0.00    -0.272 OA
HETATM    4  H   UNL     1      41.991 -16.509   1.433  1.00  0.00     0.162 HD
ENDROOT
BRANCH   1   5
HETATM    5  C   UNL     1      39.896 -16.697   1.699  1.00  0.00     0.144 C 
BRANCH   5   6
HETATM    6  C   UNL     1      39.309 -15.364   2.169  1.00  0.00     0.174 C 
BRANCH   6   7
HETATM    7  N   UNL     1      40.234 -14.258   1.925  1.00  0.00    -0.233 N 
HETATM    8  N   UNL     1      40.519 -13.991   0.603  1.00  0.00    -0.169 NA
HETATM    9  C   UNL     1      41.295 -12.986   0.334  1.00  0.00     0.087 A 
HETATM   10  C   UNL     1      41.924 -12.134   1.367  1.00  0.00     0.040 A 
HETATM   11  C   UNL     1      41.596 -12.381   2.636  1.00  0.00     0.078 A 
HETATM   12  C   UNL     1      40.658 -13.467   2.982  1.00  0.00     0.263 A 
HETATM   13  O   UNL     1      40.324 -13.613   4.156  1.00  0.00    -0.267 OA
BRANCH   9  14
HETATM   14  C   UNL     1      41.602 -12.670  -1.092  1.00  0.00    -0.006 A 
HETATM   15  C   UNL     1      42.543 -11.696  -1.452  1.00  0.00     0.014 A 
HETATM   16  C   UNL     1      42.790 -11.423  -2.800  1.00  0.00     0.001 A 
HETATM   17  C   UNL     1      42.095 -12.112  -3.793  1.00  0.00     0.000 A 
HETATM   18  C   UNL     1      41.144 -13.070  -3.442  1.00  0.00     0.001 A 
HETATM   19  C   UNL     1      40.894 -13.345  -2.097  1.00  0.00     0.014 A 
ENDBRANCH   9  14
ENDBRANCH   6   7
ENDBRANCH   5   6
ENDBRANCH   1   5
BRANCH   2  20
HETATM   20  C   UNL     1      43.202 -17.251   3.596  1.00  0.00     0.149 C 
HETATM   21  C   UNL     1      43.781 -18.647   3.615  1.00  0.00    -0.007 A 
HETATM   22  C   UNL     1      44.312 -19.172   4.794  1.00  0.00     0.083 A 
HETATM   23  C   UNL     1      43.779 -19.442   2.456  1.00  0.00     0.011 A 
HETATM   24  C   UNL     1      44.818 -20.473   4.825  1.00  0.00     0.038 A 
HETATM   25  O   UNL     1      44.372 -18.472   5.975  1.00  0.00    -0.310 OA
HETATM   26  C   UNL     1      44.808 -21.257   3.671  1.00  0.00     0.003 A 
HETATM   27  C   UNL     1      44.289 -20.740   2.485  1.00  0.00     0.001 A 
HETATM   28  C   UNL     1      44.096 -17.127   5.951  1.00  0.00     0.083 A 
HETATM   29  C   UNL     1      43.545 -16.471   4.847  1.00  0.00    -0.007 A 
HETATM   30  C   UNL     1      44.389 -16.421   7.120  1.00  0.00     0.038 A 
HETATM   31  C   UNL     1      43.304 -15.090   4.924  1.00  0.00     0.011 A 
HETATM   32  C   UNL     1      43.603 -14.385   6.091  1.00  0.00     0.001 A 
HETATM   33  C   UNL     1      44.144 -15.050   7.189  1.00  0.00     0.003 A 
ENDBRANCH   2  20
TORSDOF 5
ENDMDL
MODEL 9
REMARK VINA RESULT:      -8.1      1.753      2.422
REMARK  5 active torsions:
REMARK  status: ('A' for Active; 'I' for Inactive)
REMARK    1  A    between atoms: C_4  and  C_5 
REMARK    2  A    between atoms: N_7  and  C_8 
REMARK    3  A    between atoms: C_8  and  C_9 
REMARK    4  A    between atoms: C_9  and  N_10 
REMARK       I    between atoms: N_10  and  C_11 
REMARK    5  A    between atoms: C_11  and  C_12 
ROOT
HETATM    1  N   UNL     1      40.951 -16.507   2.254  1.00  0.00    -0.359 N 
HETATM    2  C   UNL     1      41.495 -17.035   3.406  1.00  0.00     0.230 C 
HETATM    3  O   UNL     1      40.804 -17.527   4.298  1.00  0.00    -0.272 OA
HETATM    4  H   UNL     1      41.562 -15.980   1.639  1.00  0.00     0.162 HD
ENDROOT
BRANCH   1   5
HETATM    5  C   UNL     1      39.518 -16.342   2.071  1.00  0.00     0.144 C 
BRANCH   5   6
HETATM    6  C   UNL     1      39.087 -14.983   1.512  1.00  0.00     0.174 C 
BRANCH   6   7
HETATM    7  N   UNL     1      39.996 -13.920   1.936  1.00  0.00    -0.233 N 
HETATM    8  N   UNL     1      39.826 -13.459   3.224  1.00  0.00    -0.169 NA
HETATM    9  C   UNL     1      40.643 -12.552   3.663  1.00  0.00     0.087 A 
HETATM   10  C   UNL     1      41.722 -11.953   2.847  1.00  0.00     0.040 A 
HETATM   11  C   UNL     1      41.898 -12.447   1.621  1.00  0.00     0.078 A 
HETATM   12  C   UNL     1      41.039 -13.533   1.108  1.00  0.00     0.263 A 
HETATM   13  O   UNL     1      41.282 -14.011   0.002  1.00  0.00    -0.267 OA
BRANCH   9  14
HETATM   14  C   UNL     1      40.487 -12.053   5.062  1.00  0.00    -0.006 A 
HETATM   15  C   UNL     1      41.277 -11.014   5.573  1.00  0.00     0.014 A 
HETATM   16  C   UNL     1      41.106 -10.587   6.893  1.00  0.00     0.001 A 
HETATM   17  C   UNL     1      40.155 -11.198   7.709  1.00  0.00     0.000 A 
HETATM   18  C   UNL     1      39.377 -12.243   7.212  1.00  0.00     0.001 A 
HETATM   19  C   UNL     1      39.546 -12.673   5.895  1.00  0.00     0.014 A 
ENDBRANCH   9  14
ENDBRANCH   6   7
ENDBRANCH   5   6
ENDBRANCH   1   5
BRANCH   2  20
HETATM   20  C   UNL     1      43.024 -16.916   3.558  1.00  0.00     0.149 C 
HETATM   21  C   UNL     1      43.658 -18.288   3.548  1.00  0.00    -0.007 A 
HETATM   22  C   UNL     1      44.312 -18.768   4.684  1.00  0.00     0.083 A 
HETATM   23  C   UNL     1      43.584 -19.106   2.408  1.00  0.00     0.011 A 
HETATM   24  C   UNL     1      44.869 -20.048   4.691  1.00  0.00     0.038 A 
HETATM   25  O   UNL     1      44.448 -18.043   5.843  1.00  0.00    -0.310 OA
HETATM   26  C   UNL     1      44.788 -20.855   3.557  1.00  0.00     0.003 A 
HETATM   27  C   UNL     1      44.146 -20.382   2.413  1.00  0.00     0.001 A 
HETATM   28  C   UNL     1      44.118 -16.710   5.822  1.00  0.00     0.083 A 
HETATM   29  C   UNL     1      43.446 -16.099   4.760  1.00  0.00    -0.007 A 
HETATM   30  C   UNL     1      44.486 -15.970   6.947  1.00  0.00     0.038 A 
HETATM   31  C   UNL     1      43.158 -14.726   4.835  1.00  0.00     0.011 A 
HETATM   32  C   UNL     1      43.531 -13.987   5.958  1.00  0.00     0.001 A 
HETATM   33  C   UNL     1      44.194 -14.608   7.015  1.00  0.00     0.003 A 
ENDBRANCH   2  20
TORSDOF 5
ENDMDL
MODEL 10
REMARK VINA RESULT:      -8.1      4.812      7.461
REMARK  5 active torsions:
REMARK  status: ('A' for Active; 'I' for Inactive)
REMARK    1  A    between atoms: C_4  and  C_5 
REMARK    2  A    between atoms: N_7  and  C_8 
REMARK    3  A    between atoms: C_8  and  C_9 
REMARK    4  A    between atoms: C_9  and  N_10 
REMARK       I    between atoms: N_10  and  C_11 
REMARK    5  A    between atoms: C_11  and  C_12 
ROOT
HETATM    1  N   UNL     1      43.381 -15.309   6.895  1.00  0.00    -0.359 N 
HETATM    2  C   UNL     1      43.046 -16.602   7.242  1.00  0.00     0.230 C 
HETATM    3  O   UNL     1      43.445 -17.132   8.279  1.00  0.00    -0.272 OA
HETATM    4  H   UNL     1      43.149 -14.995   5.959  1.00  0.00     0.162 HD
ENDROOT
BRANCH   1   5
HETATM    5  C   UNL     1      44.357 -14.529   7.638  1.00  0.00     0.144 C 
BRANCH   5   6
HETATM    6  C   UNL     1      44.409 -13.042   7.277  1.00  0.00     0.174 C 
BRANCH   6   7
HETATM    7  N   UNL     1      44.731 -12.220   8.442  1.00  0.00    -0.233 N 
HETATM    8  N   UNL     1      43.699 -11.996   9.327  1.00  0.00    -0.169 NA
HETATM    9  C   UNL     1      43.950 -11.316  10.404  1.00  0.00     0.087 A 
HETATM   10  C   UNL     1      45.272 -10.732  10.716  1.00  0.00     0.040 A 
HETATM   11  C   UNL     1      46.268 -11.002   9.871  1.00  0.00     0.078 A 
HETATM   12  C   UNL     1      46.044 -11.835   8.673  1.00  0.00     0.263 A 
HETATM   13  O   UNL     1      47.002 -12.122   7.960  1.00  0.00    -0.267 OA
BRANCH   9  14
HETATM   14  C   UNL     1      42.849 -11.078  11.383  1.00  0.00    -0.006 A 
HETATM   15  C   UNL     1      43.097 -10.885  12.749  1.00  0.00     0.014 A 
HETATM   16  C   UNL     1      42.035 -10.677  13.633  1.00  0.00     0.001 A 
HETATM   17  C   UNL     1      40.723 -10.670  13.162  1.00  0.00     0.000 A 
HETATM   18  C   UNL     1      40.467 -10.878  11.807  1.00  0.00     0.001 A 
HETATM   19  C   UNL     1      41.525 -11.086  10.921  1.00  0.00     0.014 A 
ENDBRANCH   9  14
ENDBRANCH   6   7
ENDBRANCH   5   6
ENDBRANCH   1   5
BRANCH   2  20
HETATM   20  C   UNL     1      42.194 -17.385   6.225  1.00  0.00     0.149 C 
HETATM   21  C   UNL     1      43.035 -18.435   5.537  1.00  0.00    -0.007 A 
HETATM   22  C   UNL     1      43.285 -18.349   4.166  1.00  0.00     0.083 A 
HETATM   23  C   UNL     1      43.593 -19.500   6.266  1.00  0.00     0.011 A 
HETATM   24  C   UNL     1      44.090 -19.299   3.533  1.00  0.00     0.038 A 
HETATM   25  O   UNL     1      42.777 -17.356   3.365  1.00  0.00    -0.310 OA
HETATM   26  C   UNL     1      44.643 -20.350   4.264  1.00  0.00     0.003 A 
HETATM   27  C   UNL     1      44.392 -20.451   5.632  1.00  0.00     0.001 A 
HETATM   28  C   UNL     1      41.810 -16.530   3.882  1.00  0.00     0.083 A 
HETATM   29  C   UNL     1      41.470 -16.495   5.238  1.00  0.00    -0.007 A 
HETATM   30  C   UNL     1      41.167 -15.692   2.969  1.00  0.00     0.038 A 
HETATM   31  C   UNL     1      40.462 -15.614   5.665  1.00  0.00     0.011 A 
HETATM   32  C   UNL     1      39.817 -14.782   4.749  1.00  0.00     0.001 A 
HETATM   33  C   UNL     1      40.170 -14.819   3.402  1.00  0.00     0.003 A 
ENDBRANCH   2  20
TORSDOF 5
ENDMDL
