MODEL 1
REMARK VINA RESULT:      -8.6      0.000      0.000
REMARK  7 active torsions:
REMARK  status: ('A' for Active; 'I' for Inactive)
REMARK    1  A    between atoms: C_4  and  C_5 
REMARK    2  A    between atoms: C_9  and  C_10 
REMARK    3  A    between atoms: C_10  and  C_11 
REMARK    4  A    between atoms: C_11  and  C_12 
REMARK    5  A    between atoms: C_12  and  O_13 
REMARK    6  A    between atoms: C_18  and  C_19 
REMARK       I    between atoms: C_19  and  N_20 
REMARK    7  A    between atoms: N_20  and  C_21 
ROOT
HETATM    1  C   UNL     1      41.582 -14.371   3.692  1.00  0.00     0.202 A 
HETATM    2  N   UNL     1      41.245 -13.191   4.497  1.00  0.00    -0.083 N 
HETATM    3  C   UNL     1      40.731 -13.251   5.759  1.00  0.00     0.726 A 
HETATM    4  N   UNL     1      40.639 -12.043   6.253  1.00  0.00    -0.046 NA
HETATM    5  C   UNL     1      41.171 -11.262   5.255  1.00  0.00     0.166 A 
HETATM    6  N   UNL     1      41.595 -11.927   4.170  1.00  0.00    -0.140 NA
HETATM    7  N   UNL     1      40.468 -14.451   6.302  1.00  0.00    -0.192 N 
HETATM    8  C   UNL     1      40.790 -15.660   5.692  1.00  0.00     0.037 A 
HETATM    9  C   UNL     1      40.525 -16.889   6.531  1.00  0.00     0.070 C 
HETATM   10  C   UNL     1      41.333 -15.680   4.443  1.00  0.00     0.062 A 
HETATM   11  H   UNL     1      40.115 -14.484   7.254  1.00  0.00     0.184 HD
ENDROOT
BRANCH  10  12
HETATM   12  C   UNL     1      41.629 -16.987   3.755  1.00  0.00     0.256 C 
HETATM   13  N   UNL     1      42.896 -17.495   3.969  1.00  0.00    -0.323 N 
HETATM   14  H   UNL     1      43.557 -16.934   4.479  1.00  0.00     0.169 HD
HETATM   15  O   UNL     1      40.781 -17.490   3.026  1.00  0.00    -0.267 OA
BRANCH  13  16
HETATM   16  C   UNL     1      43.428 -18.716   3.480  1.00  0.00     0.041 A 
HETATM   17  C   UNL     1      44.356 -19.424   4.281  1.00  0.00    -0.035 A 
HETATM   18  C   UNL     1      44.843 -18.905   5.607  1.00  0.00     0.050 C 
HETATM   19  C   UNL     1      44.880 -20.644   3.817  1.00  0.00     0.009 A 
HETATM   20  C   UNL     1      44.493 -21.167   2.586  1.00  0.00     0.001 A 
HETATM   21  C   UNL     1      43.579 -20.475   1.802  1.00  0.00     0.002 A 
HETATM   22  C   UNL     1      43.052 -19.260   2.246  1.00  0.00     0.030 A 
ENDBRANCH  13  16
ENDBRANCH  10  12
BRANCH   1  23
HETATM   23  C   UNL     1      40.905 -14.280   2.326  1.00  0.00    -0.028 A 
HETATM   24  C   UNL     1      39.508 -14.219   2.186  1.00  0.00     0.016 A 
HETATM   25  C   UNL     1      38.912 -14.166   0.917  1.00  0.00    -0.061 A 
HETATM   26  C   UNL     1      37.419 -14.136   0.768  1.00  0.00     0.048 C 
HETATM   27  C   UNL     1      39.725 -14.145  -0.221  1.00  0.00     0.007 A 
HETATM   28  C   UNL     1      41.112 -14.172  -0.098  1.00  0.00     0.001 A 
HETATM   29  C   UNL     1      41.698 -14.237   1.166  1.00  0.00     0.010 A 
ENDBRANCH   1  23
BRANCH   5  30
HETATM   30  C   UNL     1      41.313  -9.790   5.393  1.00  0.00     0.085 C 
BRANCH  30  31
HETATM   31  C   UNL     1      41.125  -9.297   6.826  1.00  0.00     0.034 C 
BRANCH  31  32
HETATM   32  C   UNL     1      39.753  -8.683   7.076  1.00  0.00     0.164 C 
BRANCH  32  33
HETATM   33  O   UNL     1      38.792  -9.715   7.272  1.00  0.00    -0.401 OA
HETATM   34  H   UNL     1      37.932  -9.288   7.432  1.00  0.00     0.209 HD
ENDBRANCH  32  33
ENDBRANCH  31  32
ENDBRANCH  30  31
ENDBRANCH   5  30
TORSDOF 7
ENDMDL
MODEL 2
REMARK VINA RESULT:      -8.6      1.766      3.997
REMARK  7 active torsions:
REMARK  status: ('A' for Active; 'I' for Inactive)
REMARK    1  A    between atoms: C_4  and  C_5 
REMARK    2  A    between atoms: C_9  and  C_10 
REMARK    3  A    between atoms: C_10  and  C_11 
REMARK    4  A    between atoms: C_11  and  C_12 
REMARK    5  A    between atoms: C_12  and  O_13 
REMARK    6  A    between atoms: C_18  and  C_19 
REMARK       I    between atoms: C_19  and  N_20 
REMARK    7  A    between atoms: N_20  and  C_21 
ROOT
HETATM    1  C   UNL     1      40.845 -15.161   4.311  1.00  0.00     0.202 A 
HETATM    2  N   UNL     1      40.615 -13.712   4.307  1.00  0.00    -0.083 N 
HETATM    3  C   UNL     1      40.791 -12.916   3.214  1.00  0.00     0.726 A 
HETATM    4  N   UNL     1      40.403 -11.698   3.491  1.00  0.00    -0.046 NA
HETATM    5  C   UNL     1      39.936 -11.810   4.779  1.00  0.00     0.166 A 
HETATM    6  N   UNL     1      40.009 -13.039   5.311  1.00  0.00    -0.140 NA
HETATM    7  N   UNL     1      41.244 -13.462   2.074  1.00  0.00    -0.192 N 
HETATM    8  C   UNL     1      41.449 -14.827   1.900  1.00  0.00     0.037 A 
HETATM    9  C   UNL     1      41.839 -15.242   0.500  1.00  0.00     0.070 C 
HETATM   10  C   UNL     1      41.266 -15.689   2.939  1.00  0.00     0.062 A 
HETATM   11  H   UNL     1      41.342 -12.864   1.257  1.00  0.00     0.184 HD
ENDROOT
BRANCH  10  12
HETATM   12  C   UNL     1      41.542 -17.161   2.772  1.00  0.00     0.256 C 
HETATM   13  N   UNL     1      42.864 -17.535   2.919  1.00  0.00    -0.323 N 
HETATM   14  H   UNL     1      43.557 -16.814   3.031  1.00  0.00     0.169 HD
HETATM   15  O   UNL     1      40.623 -17.917   2.475  1.00  0.00    -0.267 OA
BRANCH  13  16
HETATM   16  C   UNL     1      43.400 -18.847   2.851  1.00  0.00     0.041 A 
HETATM   17  C   UNL     1      44.222 -19.302   3.910  1.00  0.00    -0.035 A 
HETATM   18  C   UNL     1      44.596 -18.430   5.078  1.00  0.00     0.050 C 
HETATM   19  C   UNL     1      44.748 -20.606   3.865  1.00  0.00     0.009 A 
HETATM   20  C   UNL     1      44.464 -21.456   2.799  1.00  0.00     0.001 A 
HETATM   21  C   UNL     1      43.655 -21.011   1.763  1.00  0.00     0.002 A 
HETATM   22  C   UNL     1      43.128 -19.718   1.789  1.00  0.00     0.030 A 
ENDBRANCH  13  16
ENDBRANCH  10  12
BRANCH   1  23
HETATM   23  C   UNL     1      41.787 -15.535   5.455  1.00  0.00    -0.028 A 
HETATM   24  C   UNL     1      42.947 -14.795   5.742  1.00  0.00     0.016 A 
HETATM   25  C   UNL     1      43.809 -15.178   6.779  1.00  0.00    -0.061 A 
HETATM   26  C   UNL     1      45.065 -14.408   7.062  1.00  0.00     0.048 C 
HETATM   27  C   UNL     1      43.491 -16.298   7.554  1.00  0.00     0.007 A 
HETATM   28  C   UNL     1      42.329 -17.023   7.304  1.00  0.00     0.001 A 
HETATM   29  C   UNL     1      41.482 -16.644   6.263  1.00  0.00     0.010 A 
ENDBRANCH   1  23
BRANCH   5  30
HETATM   30  C   UNL     1      39.346 -10.660   5.510  1.00  0.00     0.085 C 
BRANCH  30  31
HETATM   31  C   UNL     1      40.115 -10.289   6.776  1.00  0.00     0.034 C 
BRANCH  31  32
HETATM   32  C   UNL     1      39.400 -10.702   8.057  1.00  0.00     0.164 C 
BRANCH  32  33
HETATM   33  O   UNL     1      39.441 -12.119   8.196  1.00  0.00    -0.401 OA
HETATM   34  H   UNL     1      39.169 -12.331   9.106  1.00  0.00     0.209 HD
ENDBRANCH  32  33
ENDBRANCH  31  32
ENDBRANCH  30  31
ENDBRANCH   5  30
TORSDOF 7
ENDMDL
MODEL 3
REMARK VINA RESULT:      -8.5      2.987      5.980
REMARK  7 active torsions:
REMARK  status: ('A' for Active; 'I' for Inactive)
REMARK    1  A    between atoms: C_4  and  C_5 
REMARK    2  A    between atoms: C_9  and  C_10 
REMARK    3  A    between atoms: C_10  and  C_11 
REMARK    4  A    between atoms: C_11  and  C_12 
REMARK    5  A    between atoms: C_12  and  O_13 
REMARK    6  A    between atoms: C_18  and  C_19 
REMARK       I    between atoms: C_19  and  N_20 
REMARK    7  A    between atoms: N_20  and  C_21 
ROOT
HETATM    1  C   UNL     1      40.645 -15.629   2.237  1.00  0.00     0.202 A 
HETATM    2  N   UNL     1      40.611 -15.173   0.843  1.00  0.00    -0.083 N 
HETATM    3  C   UNL     1      41.405 -15.678  -0.144  1.00  0.00     0.726 A 
HETATM    4  N   UNL     1      41.067 -15.150  -1.293  1.00  0.00    -0.046 NA
HETATM    5  C   UNL     1      40.000 -14.349  -0.960  1.00  0.00     0.166 A 
HETATM    6  N   UNL     1      39.657 -14.360   0.336  1.00  0.00    -0.140 NA
HETATM    7  N   UNL     1      42.312 -16.619   0.163  1.00  0.00    -0.192 N 
HETATM    8  C   UNL     1      42.425 -17.199   1.423  1.00  0.00     0.037 A 
HETATM    9  C   UNL     1      43.424 -18.329   1.520  1.00  0.00     0.070 C 
HETATM   10  C   UNL     1      41.644 -16.767   2.453  1.00  0.00     0.062 A 
HETATM   11  H   UNL     1      42.877 -17.010  -0.587  1.00  0.00     0.184 HD
ENDROOT
BRANCH  10  12
HETATM   12  C   UNL     1      41.803 -17.351   3.833  1.00  0.00     0.256 C 
HETATM   13  N   UNL     1      42.958 -16.989   4.499  1.00  0.00    -0.323 N 
HETATM   14  H   UNL     1      43.648 -16.450   4.005  1.00  0.00     0.169 HD
HETATM   15  O   UNL     1      40.957 -18.130   4.259  1.00  0.00    -0.267 OA
BRANCH  13  16
HETATM   16  C   UNL     1      43.345 -17.358   5.814  1.00  0.00     0.041 A 
HETATM   17  C   UNL     1      44.201 -18.472   5.985  1.00  0.00    -0.035 A 
HETATM   18  C   UNL     1      44.672 -19.317   4.831  1.00  0.00     0.050 C 
HETATM   19  C   UNL     1      44.608 -18.840   7.281  1.00  0.00     0.009 A 
HETATM   20  C   UNL     1      44.186 -18.118   8.395  1.00  0.00     0.001 A 
HETATM   21  C   UNL     1      43.350 -17.022   8.227  1.00  0.00     0.002 A 
HETATM   22  C   UNL     1      42.933 -16.646   6.947  1.00  0.00     0.030 A 
ENDBRANCH  13  16
ENDBRANCH  10  12
BRANCH   1  23
HETATM   23  C   UNL     1      40.827 -14.435   3.171  1.00  0.00    -0.028 A 
HETATM   24  C   UNL     1      39.914 -14.143   4.200  1.00  0.00     0.016 A 
HETATM   25  C   UNL     1      40.090 -13.022   5.023  1.00  0.00    -0.061 A 
HETATM   26  C   UNL     1      39.097 -12.692   6.098  1.00  0.00     0.048 C 
HETATM   27  C   UNL     1      41.207 -12.200   4.832  1.00  0.00     0.007 A 
HETATM   28  C   UNL     1      42.137 -12.493   3.839  1.00  0.00     0.001 A 
HETATM   29  C   UNL     1      41.950 -13.603   3.015  1.00  0.00     0.010 A 
ENDBRANCH   1  23
BRANCH   5  30
HETATM   30  C   UNL     1      39.251 -13.567  -1.976  1.00  0.00     0.085 C 
BRANCH  30  31
HETATM   31  C   UNL     1      39.386 -14.128  -3.390  1.00  0.00     0.034 C 
BRANCH  31  32
HETATM   32  C   UNL     1      38.426 -15.277  -3.675  1.00  0.00     0.164 C 
BRANCH  32  33
HETATM   33  O   UNL     1      39.098 -16.521  -3.503  1.00  0.00    -0.401 OA
HETATM   34  H   UNL     1      39.187 -16.675  -2.546  1.00  0.00     0.209 HD
ENDBRANCH  32  33
ENDBRANCH  31  32
ENDBRANCH  30  31
ENDBRANCH   5  30
TORSDOF 7
ENDMDL
MODEL 4
REMARK VINA RESULT:      -8.0      2.604      7.908
REMARK  7 active torsions:
REMARK  status: ('A' for Active; 'I' for Inactive)
REMARK    1  A    between atoms: C_4  and  C_5 
REMARK    2  A    between atoms: C_9  and  C_10 
REMARK    3  A    between atoms: C_10  and  C_11 
REMARK    4  A    between atoms: C_11  and  C_12 
REMARK    5  A    between atoms: C_12  and  O_13 
REMARK    6  A    between atoms: C_18  and  C_19 
REMARK       I    between atoms: C_19  and  N_20 
REMARK    7  A    between atoms: N_20  and  C_21 
ROOT
HETATM    1  C   UNL     1      42.425 -16.381   5.476  1.00  0.00     0.202 A 
HETATM    2  N   UNL     1      43.169 -17.537   5.988  1.00  0.00    -0.083 N 
HETATM    3  C   UNL     1      44.339 -17.444   6.684  1.00  0.00     0.726 A 
HETATM    4  N   UNL     1      44.699 -18.631   7.098  1.00  0.00    -0.046 NA
HETATM    5  C   UNL     1      43.667 -19.432   6.669  1.00  0.00     0.166 A 
HETATM    6  N   UNL     1      42.682 -18.798   6.016  1.00  0.00    -0.140 NA
HETATM    7  N   UNL     1      44.885 -16.234   6.885  1.00  0.00    -0.192 N 
HETATM    8  C   UNL     1      44.272 -15.040   6.517  1.00  0.00     0.037 A 
HETATM    9  C   UNL     1      44.998 -13.788   6.951  1.00  0.00     0.070 C 
HETATM   10  C   UNL     1      43.087 -15.052   5.845  1.00  0.00     0.062 A 
HETATM   11  H   UNL     1      45.741 -16.174   7.431  1.00  0.00     0.184 HD
ENDROOT
BRANCH  10  12
HETATM   12  C   UNL     1      42.448 -13.764   5.392  1.00  0.00     0.256 C 
HETATM   13  N   UNL     1      41.411 -13.309   6.184  1.00  0.00    -0.323 N 
HETATM   14  H   UNL     1      41.091 -13.892   6.938  1.00  0.00     0.169 HD
HETATM   15  O   UNL     1      42.831 -13.233   4.356  1.00  0.00    -0.267 OA
BRANCH  13  16
HETATM   16  C   UNL     1      40.661 -12.116   6.017  1.00  0.00     0.041 A 
HETATM   17  C   UNL     1      41.023 -10.973   6.768  1.00  0.00    -0.035 A 
HETATM   18  C   UNL     1      42.138 -10.987   7.779  1.00  0.00     0.050 C 
HETATM   19  C   UNL     1      40.299  -9.778   6.602  1.00  0.00     0.009 A 
HETATM   20  C   UNL     1      39.237  -9.704   5.703  1.00  0.00     0.001 A 
HETATM   21  C   UNL     1      38.884 -10.825   4.963  1.00  0.00     0.002 A 
HETATM   22  C   UNL     1      39.591 -12.020   5.119  1.00  0.00     0.030 A 
ENDBRANCH  13  16
ENDBRANCH  10  12
BRANCH   1  23
HETATM   23  C   UNL     1      42.145 -16.562   3.986  1.00  0.00    -0.028 A 
HETATM   24  C   UNL     1      43.116 -17.052   3.095  1.00  0.00     0.016 A 
HETATM   25  C   UNL     1      42.840 -17.180   1.726  1.00  0.00    -0.061 A 
HETATM   26  C   UNL     1      43.888 -17.669   0.771  1.00  0.00     0.048 C 
HETATM   27  C   UNL     1      41.569 -16.841   1.250  1.00  0.00     0.007 A 
HETATM   28  C   UNL     1      40.586 -16.385   2.124  1.00  0.00     0.001 A 
HETATM   29  C   UNL     1      40.870 -16.248   3.482  1.00  0.00     0.010 A 
ENDBRANCH   1  23
BRANCH   5  30
HETATM   30  C   UNL     1      43.625 -20.889   6.955  1.00  0.00     0.085 C 
BRANCH  30  31
HETATM   31  C   UNL     1      44.482 -21.717   6.001  1.00  0.00     0.034 C 
BRANCH  31  32
HETATM   32  C   UNL     1      44.811 -20.990   4.702  1.00  0.00     0.164 C 
BRANCH  32  33
HETATM   33  O   UNL     1      44.608 -21.864   3.596  1.00  0.00    -0.401 OA
HETATM   34  H   UNL     1      43.695 -22.195   3.648  1.00  0.00     0.209 HD
ENDBRANCH  32  33
ENDBRANCH  31  32
ENDBRANCH  30  31
ENDBRANCH   5  30
TORSDOF 7
ENDMDL
MODEL 5
REMARK VINA RESULT:      -8.0      3.015      3.777
REMARK  7 active torsions:
REMARK  status: ('A' for Active; 'I' for Inactive)
REMARK    1  A    between atoms: C_4  and  C_5 
REMARK    2  A    between atoms: C_9  and  C_10 
REMARK    3  A    between atoms: C_10  and  C_11 
REMARK    4  A    between atoms: C_11  and  C_12 
REMARK    5  A    between atoms: C_12  and  O_13 
REMARK    6  A    between atoms: C_18  and  C_19 
REMARK       I    between atoms: C_19  and  N_20 
REMARK    7  A    between atoms: N_20  and  C_21 
ROOT
HETATM    1  C   UNL     1      43.585 -15.777   5.433  1.00  0.00     0.202 A 
HETATM    2  N   UNL     1      43.882 -14.904   6.575  1.00  0.00    -0.083 N 
HETATM    3  C   UNL     1      43.993 -15.344   7.862  1.00  0.00     0.726 A 
HETATM    4  N   UNL     1      44.369 -14.355   8.632  1.00  0.00    -0.046 NA
HETATM    5  C   UNL     1      44.533 -13.319   7.743  1.00  0.00     0.166 A 
HETATM    6  N   UNL     1      44.284 -13.618   6.460  1.00  0.00    -0.140 NA
HETATM    7  N   UNL     1      43.777 -16.641   8.130  1.00  0.00    -0.192 N 
HETATM    8  C   UNL     1      43.548 -17.604   7.152  1.00  0.00     0.037 A 
HETATM    9  C   UNL     1      43.458 -19.024   7.661  1.00  0.00     0.070 C 
HETATM   10  C   UNL     1      43.454 -17.245   5.841  1.00  0.00     0.062 A 
HETATM   11  H   UNL     1      43.892 -16.962   9.088  1.00  0.00     0.184 HD
ENDROOT
BRANCH  10  12
HETATM   12  C   UNL     1      43.149 -18.275   4.784  1.00  0.00     0.256 C 
HETATM   13  N   UNL     1      44.235 -19.000   4.334  1.00  0.00    -0.323 N 
HETATM   14  H   UNL     1      45.152 -18.743   4.659  1.00  0.00     0.169 HD
HETATM   15  O   UNL     1      42.005 -18.378   4.355  1.00  0.00    -0.267 OA
BRANCH  13  16
HETATM   16  C   UNL     1      44.234 -20.049   3.378  1.00  0.00     0.041 A 
HETATM   17  C   UNL     1      44.552 -21.360   3.806  1.00  0.00    -0.035 A 
HETATM   18  C   UNL     1      44.946 -21.678   5.223  1.00  0.00     0.050 C 
HETATM   19  C   UNL     1      44.539 -22.414   2.873  1.00  0.00     0.009 A 
HETATM   20  C   UNL     1      44.210 -22.185   1.539  1.00  0.00     0.001 A 
HETATM   21  C   UNL     1      43.894 -20.900   1.120  1.00  0.00     0.002 A 
HETATM   22  C   UNL     1      43.907 -19.841   2.033  1.00  0.00     0.030 A 
ENDBRANCH  13  16
ENDBRANCH  10  12
BRANCH   1  23
HETATM   23  C   UNL     1      42.397 -15.223   4.651  1.00  0.00    -0.028 A 
HETATM   24  C   UNL     1      42.484 -14.901   3.285  1.00  0.00     0.016 A 
HETATM   25  C   UNL     1      41.384 -14.366   2.599  1.00  0.00    -0.061 A 
HETATM   26  C   UNL     1      41.489 -13.990   1.150  1.00  0.00     0.048 C 
HETATM   27  C   UNL     1      40.177 -14.178   3.281  1.00  0.00     0.007 A 
HETATM   28  C   UNL     1      40.065 -14.522   4.625  1.00  0.00     0.001 A 
HETATM   29  C   UNL     1      41.166 -15.042   5.305  1.00  0.00     0.010 A 
ENDBRANCH   1  23
BRANCH   5  30
HETATM   30  C   UNL     1      45.003 -11.977   8.172  1.00  0.00     0.085 C 
BRANCH  30  31
HETATM   31  C   UNL     1      45.430 -11.925   9.637  1.00  0.00     0.034 C 
BRANCH  31  32
HETATM   32  C   UNL     1      44.312 -11.485  10.574  1.00  0.00     0.164 C 
BRANCH  32  33
HETATM   33  O   UNL     1      43.651 -12.629  11.106  1.00  0.00    -0.401 OA
HETATM   34  H   UNL     1      44.005 -12.783  11.999  1.00  0.00     0.209 HD
ENDBRANCH  32  33
ENDBRANCH  31  32
ENDBRANCH  30  31
ENDBRANCH   5  30
TORSDOF 7
ENDMDL
MODEL 6
REMARK VINA RESULT:      -7.9      1.748      2.482
REMARK  7 active torsions:
REMARK  status: ('A' for Active; 'I' for Inactive)
REMARK    1  A    between atoms: C_4  and  C_5 
REMARK    2  A    between atoms: C_9  and  C_10 
REMARK    3  A    between atoms: C_10  and  C_11 
REMARK    4  A    between atoms: C_11  and  C_12 
REMARK    5  A    between atoms: C_12  and  O_13 
REMARK    6  A    between atoms: C_18  and  C_19 
REMARK       I    between atoms: C_19  and  N_20 
REMARK    7  A    between atoms: N_20  and  C_21 
ROOT
HETATM    1  C   UNL     1      41.512 -13.609   4.054  1.00  0.00     0.202 A 
HETATM    2  N   UNL     1      40.504 -12.752   4.688  1.00  0.00    -0.083 N 
HETATM    3  C   UNL     1      39.778 -13.112   5.785  1.00  0.00     0.726 A 
HETATM    4  N   UNL     1      39.045 -12.102   6.177  1.00  0.00    -0.046 NA
HETATM    5  C   UNL     1      39.405 -11.104   5.302  1.00  0.00     0.166 A 
HETATM    6  N   UNL     1      40.329 -11.444   4.392  1.00  0.00    -0.140 NA
HETATM    7  N   UNL     1      39.947 -14.338   6.307  1.00  0.00    -0.192 N 
HETATM    8  C   UNL     1      40.906 -15.241   5.860  1.00  0.00     0.037 A 
HETATM    9  C   UNL     1      41.013 -16.513   6.670  1.00  0.00     0.070 C 
HETATM   10  C   UNL     1      41.690 -14.940   4.787  1.00  0.00     0.062 A 
HETATM   11  H   UNL     1      39.422 -14.583   7.143  1.00  0.00     0.184 HD
ENDROOT
BRANCH  10  12
HETATM   12  C   UNL     1      42.690 -15.938   4.263  1.00  0.00     0.256 C 
HETATM   13  N   UNL     1      42.220 -17.230   4.125  1.00  0.00    -0.323 N 
HETATM   14  H   UNL     1      41.296 -17.442   4.460  1.00  0.00     0.169 HD
HETATM   15  O   UNL     1      43.842 -15.579   4.044  1.00  0.00    -0.267 OA
BRANCH  13  16
HETATM   16  C   UNL     1      42.926 -18.354   3.625  1.00  0.00     0.041 A 
HETATM   17  C   UNL     1      42.774 -18.702   2.262  1.00  0.00    -0.035 A 
HETATM   18  C   UNL     1      41.850 -17.960   1.334  1.00  0.00     0.050 C 
HETATM   19  C   UNL     1      43.481 -19.805   1.747  1.00  0.00     0.009 A 
HETATM   20  C   UNL     1      44.332 -20.552   2.558  1.00  0.00     0.001 A 
HETATM   21  C   UNL     1      44.484 -20.208   3.894  1.00  0.00     0.002 A 
HETATM   22  C   UNL     1      43.787 -19.118   4.423  1.00  0.00     0.030 A 
ENDBRANCH  13  16
ENDBRANCH  10  12
BRANCH   1  23
HETATM   23  C   UNL     1      41.222 -13.737   2.560  1.00  0.00    -0.028 A 
HETATM   24  C   UNL     1      41.944 -13.017   1.593  1.00  0.00     0.016 A 
HETATM   25  C   UNL     1      41.636 -13.132   0.230  1.00  0.00    -0.061 A 
HETATM   26  C   UNL     1      42.384 -12.336  -0.799  1.00  0.00     0.048 C 
HETATM   27  C   UNL     1      40.612 -13.998  -0.170  1.00  0.00     0.007 A 
HETATM   28  C   UNL     1      39.909 -14.742   0.773  1.00  0.00     0.001 A 
HETATM   29  C   UNL     1      40.212 -14.615   2.128  1.00  0.00     0.010 A 
ENDBRANCH   1  23
BRANCH   5  30
HETATM   30  C   UNL     1      38.845  -9.732   5.395  1.00  0.00     0.085 C 
BRANCH  30  31
HETATM   31  C   UNL     1      38.681  -9.053   4.036  1.00  0.00     0.034 C 
BRANCH  31  32
HETATM   32  C   UNL     1      37.349  -9.366   3.365  1.00  0.00     0.164 C 
BRANCH  32  33
HETATM   33  O   UNL     1      36.340  -9.540   4.356  1.00  0.00    -0.401 OA
HETATM   34  H   UNL     1      35.873  -8.692   4.450  1.00  0.00     0.209 HD
ENDBRANCH  32  33
ENDBRANCH  31  32
ENDBRANCH  30  31
ENDBRANCH   5  30
TORSDOF 7
ENDMDL
MODEL 7
REMARK VINA RESULT:      -7.8      2.439      8.441
REMARK  7 active torsions:
REMARK  status: ('A' for Active; 'I' for Inactive)
REMARK    1  A    between atoms: C_4  and  C_5 
REMARK    2  A    between atoms: C_9  and  C_10 
REMARK    3  A    between atoms: C_10  and  C_11 
REMARK    4  A    between atoms: C_11  and  C_12 
REMARK    5  A    between atoms: C_12  and  O_13 
REMARK    6  A    between atoms: C_18  and  C_19 
REMARK       I    between atoms: C_19  and  N_20 
REMARK    7  A    between atoms: N_20  and  C_21 
ROOT
HETATM    1  C   UNL     1      43.384 -16.556   3.359  1.00  0.00     0.202 A 
HETATM    2  N   UNL     1      43.384 -17.959   2.930  1.00  0.00    -0.083 N 
HETATM    3  C   UNL     1      42.473 -18.492   2.066  1.00  0.00     0.726 A 
HETATM    4  N   UNL     1      42.798 -19.730   1.794  1.00  0.00    -0.046 NA
HETATM    5  C   UNL     1      43.973 -19.898   2.488  1.00  0.00     0.166 A 
HETATM    6  N   UNL     1      44.396 -18.823   3.170  1.00  0.00    -0.140 NA
HETATM    7  N   UNL     1      41.480 -17.716   1.602  1.00  0.00    -0.192 N 
HETATM    8  C   UNL     1      41.379 -16.353   1.865  1.00  0.00     0.037 A 
HETATM    9  C   UNL     1      40.259 -15.644   1.141  1.00  0.00     0.070 C 
HETATM   10  C   UNL     1      42.270 -15.744   2.696  1.00  0.00     0.062 A 
HETATM   11  H   UNL     1      40.826 -18.116   0.935  1.00  0.00     0.184 HD
ENDROOT
BRANCH  10  12
HETATM   12  C   UNL     1      42.131 -14.281   3.030  1.00  0.00     0.256 C 
HETATM   13  N   UNL     1      41.108 -13.969   3.904  1.00  0.00    -0.323 N 
HETATM   14  H   UNL     1      40.477 -14.700   4.184  1.00  0.00     0.169 HD
HETATM   15  O   UNL     1      42.871 -13.466   2.490  1.00  0.00    -0.267 OA
BRANCH  13  16
HETATM   16  C   UNL     1      40.773 -12.689   4.416  1.00  0.00     0.041 A 
HETATM   17  C   UNL     1      39.690 -11.985   3.837  1.00  0.00    -0.035 A 
HETATM   18  C   UNL     1      38.914 -12.517   2.662  1.00  0.00     0.050 C 
HETATM   19  C   UNL     1      39.335 -10.722   4.345  1.00  0.00     0.009 A 
HETATM   20  C   UNL     1      40.030 -10.159   5.413  1.00  0.00     0.001 A 
HETATM   21  C   UNL     1      41.090 -10.851   5.984  1.00  0.00     0.002 A 
HETATM   22  C   UNL     1      41.458 -12.105   5.489  1.00  0.00     0.030 A 
ENDBRANCH  13  16
ENDBRANCH  10  12
BRANCH   1  23
HETATM   23  C   UNL     1      43.409 -16.478   4.884  1.00  0.00    -0.028 A 
HETATM   24  C   UNL     1      43.970 -15.386   5.569  1.00  0.00     0.016 A 
HETATM   25  C   UNL     1      44.006 -15.355   6.971  1.00  0.00    -0.061 A 
HETATM   26  C   UNL     1      44.636 -14.206   7.700  1.00  0.00     0.048 C 
HETATM   27  C   UNL     1      43.449 -16.417   7.693  1.00  0.00     0.007 A 
HETATM   28  C   UNL     1      42.861 -17.490   7.030  1.00  0.00     0.001 A 
HETATM   29  C   UNL     1      42.840 -17.521   5.636  1.00  0.00     0.010 A 
ENDBRANCH   1  23
BRANCH   5  30
HETATM   30  C   UNL     1      44.745 -21.166   2.441  1.00  0.00     0.085 C 
BRANCH  30  31
HETATM   31  C   UNL     1      44.326 -22.168   3.515  1.00  0.00     0.034 C 
BRANCH  31  32
HETATM   32  C   UNL     1      45.105 -22.015   4.816  1.00  0.00     0.164 C 
BRANCH  32  33
HETATM   33  O   UNL     1      44.639 -20.871   5.524  1.00  0.00    -0.401 OA
HETATM   34  H   UNL     1      44.038 -21.183   6.223  1.00  0.00     0.209 HD
ENDBRANCH  32  33
ENDBRANCH  31  32
ENDBRANCH  30  31
ENDBRANCH   5  30
TORSDOF 7
ENDMDL
MODEL 8
REMARK VINA RESULT:      -7.8      2.795      4.962
REMARK  7 active torsions:
REMARK  status: ('A' for Active; 'I' for Inactive)
REMARK    1  A    between atoms: C_4  and  C_5 
REMARK    2  A    between atoms: C_9  and  C_10 
REMARK    3  A    between atoms: C_10  and  C_11 
REMARK    4  A    between atoms: C_11  and  C_12 
REMARK    5  A    between atoms: C_12  and  O_13 
REMARK    6  A    between atoms: C_18  and  C_19 
REMARK       I    between atoms: C_19  and  N_20 
REMARK    7  A    between atoms: N_20  and  C_21 
ROOT
HETATM    1  C   UNL     1      39.627 -14.663   2.795  1.00  0.00     0.202 A 
HETATM    2  N   UNL     1      39.076 -13.950   1.637  1.00  0.00    -0.083 N 
HETATM    3  C   UNL     1      39.431 -14.208   0.345  1.00  0.00     0.726 A 
HETATM    4  N   UNL     1      38.693 -13.491  -0.463  1.00  0.00    -0.046 NA
HETATM    5  C   UNL     1      37.844 -12.835   0.396  1.00  0.00     0.166 A 
HETATM    6  N   UNL     1      38.015 -13.116   1.696  1.00  0.00    -0.140 NA
HETATM    7  N   UNL     1      40.371 -15.133   0.097  1.00  0.00    -0.192 N 
HETATM    8  C   UNL     1      40.942 -15.936   1.080  1.00  0.00     0.037 A 
HETATM    9  C   UNL     1      41.886 -17.000   0.569  1.00  0.00     0.070 C 
HETATM   10  C   UNL     1      40.615 -15.757   2.391  1.00  0.00     0.062 A 
HETATM   11  H   UNL     1      40.605 -15.338  -0.871  1.00  0.00     0.184 HD
ENDROOT
BRANCH  10  12
HETATM   12  C   UNL     1      41.274 -16.584   3.465  1.00  0.00     0.256 C 
HETATM   13  N   UNL     1      42.617 -16.332   3.666  1.00  0.00    -0.323 N 
HETATM   14  H   UNL     1      43.085 -15.698   3.041  1.00  0.00     0.169 HD
HETATM   15  O   UNL     1      40.622 -17.444   4.048  1.00  0.00    -0.267 OA
BRANCH  13  16
HETATM   16  C   UNL     1      43.471 -16.930   4.627  1.00  0.00     0.041 A 
HETATM   17  C   UNL     1      43.711 -16.249   5.844  1.00  0.00    -0.035 A 
HETATM   18  C   UNL     1      43.140 -14.888   6.137  1.00  0.00     0.050 C 
HETATM   19  C   UNL     1      44.543 -16.838   6.815  1.00  0.00     0.009 A 
HETATM   20  C   UNL     1      45.126 -18.084   6.596  1.00  0.00     0.001 A 
HETATM   21  C   UNL     1      44.887 -18.755   5.404  1.00  0.00     0.002 A 
HETATM   22  C   UNL     1      44.067 -18.182   4.428  1.00  0.00     0.030 A 
ENDBRANCH  13  16
ENDBRANCH  10  12
BRANCH   1  23
HETATM   23  C   UNL     1      40.167 -13.660   3.813  1.00  0.00    -0.028 A 
HETATM   24  C   UNL     1      39.580 -13.488   5.079  1.00  0.00     0.016 A 
HETATM   25  C   UNL     1      40.079 -12.539   5.982  1.00  0.00    -0.061 A 
HETATM   26  C   UNL     1      39.429 -12.332   7.319  1.00  0.00     0.048 C 
HETATM   27  C   UNL     1      41.194 -11.774   5.625  1.00  0.00     0.007 A 
HETATM   28  C   UNL     1      41.807 -11.954   4.388  1.00  0.00     0.001 A 
HETATM   29  C   UNL     1      41.298 -12.891   3.489  1.00  0.00     0.010 A 
ENDBRANCH   1  23
BRANCH   5  30
HETATM   30  C   UNL     1      36.779 -11.920  -0.088  1.00  0.00     0.085 C 
BRANCH  30  31
HETATM   31  C   UNL     1      36.903 -10.502   0.465  1.00  0.00     0.034 C 
BRANCH  31  32
HETATM   32  C   UNL     1      35.648 -10.027   1.187  1.00  0.00     0.164 C 
BRANCH  32  33
HETATM   33  O   UNL     1      34.744 -11.116   1.350  1.00  0.00    -0.401 OA
HETATM   34  H   UNL     1      34.584 -11.223   2.304  1.00  0.00     0.209 HD
ENDBRANCH  32  33
ENDBRANCH  31  32
ENDBRANCH  30  31
ENDBRANCH   5  30
TORSDOF 7
ENDMDL
MODEL 9
REMARK VINA RESULT:      -7.6      2.987      5.510
REMARK  7 active torsions:
REMARK  status: ('A' for Active; 'I' for Inactive)
REMARK    1  A    between atoms: C_4  and  C_5 
REMARK    2  A    between atoms: C_9  and  C_10 
REMARK    3  A    between atoms: C_10  and  C_11 
REMARK    4  A    between atoms: C_11  and  C_12 
REMARK    5  A    between atoms: C_12  and  O_13 
REMARK    6  A    between atoms: C_18  and  C_19 
REMARK       I    between atoms: C_19  and  N_20 
REMARK    7  A    between atoms: N_20  and  C_21 
ROOT
HETATM    1  C   UNL     1      42.374 -14.097   4.109  1.00  0.00     0.202 A 
HETATM    2  N   UNL     1      43.231 -14.254   5.290  1.00  0.00    -0.083 N 
HETATM    3  C   UNL     1      43.643 -15.460   5.777  1.00  0.00     0.726 A 
HETATM    4  N   UNL     1      44.480 -15.271   6.764  1.00  0.00    -0.046 NA
HETATM    5  C   UNL     1      44.596 -13.902   6.811  1.00  0.00     0.166 A 
HETATM    6  N   UNL     1      43.877 -13.234   5.897  1.00  0.00    -0.140 NA
HETATM    7  N   UNL     1      43.213 -16.586   5.185  1.00  0.00    -0.192 N 
HETATM    8  C   UNL     1      42.449 -16.603   4.023  1.00  0.00     0.037 A 
HETATM    9  C   UNL     1      42.182 -17.977   3.452  1.00  0.00     0.070 C 
HETATM   10  C   UNL     1      42.025 -15.437   3.460  1.00  0.00     0.062 A 
HETATM   11  H   UNL     1      43.551 -17.477   5.539  1.00  0.00     0.184 HD
ENDROOT
BRANCH  10  12
HETATM   12  C   UNL     1      41.148 -15.451   2.234  1.00  0.00     0.256 C 
HETATM   13  N   UNL     1      41.714 -14.908   1.096  1.00  0.00    -0.323 N 
HETATM   14  H   UNL     1      42.613 -14.465   1.172  1.00  0.00     0.169 HD
HETATM   15  O   UNL     1      40.002 -15.879   2.317  1.00  0.00    -0.267 OA
BRANCH  13  16
HETATM   16  C   UNL     1      41.136 -14.824  -0.197  1.00  0.00     0.041 A 
HETATM   17  C   UNL     1      40.358 -13.688  -0.523  1.00  0.00    -0.035 A 
HETATM   18  C   UNL     1      40.072 -12.590   0.466  1.00  0.00     0.050 C 
HETATM   19  C   UNL     1      39.792 -13.583  -1.807  1.00  0.00     0.009 A 
HETATM   20  C   UNL     1      39.994 -14.577  -2.762  1.00  0.00     0.001 A 
HETATM   21  C   UNL     1      40.761 -15.689  -2.444  1.00  0.00     0.002 A 
HETATM   22  C   UNL     1      41.327 -15.812  -1.172  1.00  0.00     0.030 A 
ENDBRANCH  13  16
ENDBRANCH  10  12
BRANCH   1  23
HETATM   23  C   UNL     1      41.170 -13.222   4.454  1.00  0.00    -0.028 A 
HETATM   24  C   UNL     1      40.918 -12.004   3.800  1.00  0.00     0.016 A 
HETATM   25  C   UNL     1      39.822 -11.206   4.158  1.00  0.00    -0.061 A 
HETATM   26  C   UNL     1      39.574  -9.889   3.483  1.00  0.00     0.048 C 
HETATM   27  C   UNL     1      38.954 -11.647   5.162  1.00  0.00     0.007 A 
HETATM   28  C   UNL     1      39.171 -12.867   5.797  1.00  0.00     0.001 A 
HETATM   29  C   UNL     1      40.270 -13.650   5.445  1.00  0.00     0.010 A 
ENDBRANCH   1  23
BRANCH   5  30
HETATM   30  C   UNL     1      45.496 -13.217   7.774  1.00  0.00     0.085 C 
BRANCH  30  31
HETATM   31  C   UNL     1      44.745 -12.451   8.861  1.00  0.00     0.034 C 
BRANCH  31  32
HETATM   32  C   UNL     1      45.575 -11.340   9.495  1.00  0.00     0.164 C 
BRANCH  32  33
HETATM   33  O   UNL     1      46.596 -10.927   8.593  1.00  0.00    -0.401 OA
HETATM   34  H   UNL     1      46.755 -11.661   7.974  1.00  0.00     0.209 HD
ENDBRANCH  32  33
ENDBRANCH  31  32
ENDBRANCH  30  31
ENDBRANCH   5  30
TORSDOF 7
ENDMDL
MODEL 10
REMARK VINA RESULT:      -7.5      3.385      8.529
REMARK  7 active torsions:
REMARK  status: ('A' for Active; 'I' for Inactive)
REMARK    1  A    between atoms: C_4  and  C_5 
REMARK    2  A    between atoms: C_9  and  C_10 
REMARK    3  A    between atoms: C_10  and  C_11 
REMARK    4  A    between atoms: C_11  and  C_12 
REMARK    5  A    between atoms: C_12  and  O_13 
REMARK    6  A    between atoms: C_18  and  C_19 
REMARK       I    between atoms: C_19  and  N_20 
REMARK    7  A    between atoms: N_20  and  C_21 
ROOT
HETATM    1  C   UNL     1      42.152 -14.684   1.610  1.00  0.00     0.202 A 
HETATM    2  N   UNL     1      42.225 -16.134   1.824  1.00  0.00    -0.083 N 
HETATM    3  C   UNL     1      41.809 -17.060   0.914  1.00  0.00     0.726 A 
HETATM    4  N   UNL     1      42.102 -18.260   1.344  1.00  0.00    -0.046 NA
HETATM    5  C   UNL     1      42.761 -18.011   2.525  1.00  0.00     0.166 A 
HETATM    6  N   UNL     1      42.896 -16.715   2.843  1.00  0.00    -0.140 NA
HETATM    7  N   UNL     1      41.255 -16.644  -0.236  1.00  0.00    -0.192 N 
HETATM    8  C   UNL     1      41.172 -15.307  -0.613  1.00  0.00     0.037 A 
HETATM    9  C   UNL     1      40.629 -15.066  -2.003  1.00  0.00     0.070 C 
HETATM   10  C   UNL     1      41.595 -14.325   0.232  1.00  0.00     0.062 A 
HETATM   11  H   UNL     1      40.977 -17.343  -0.920  1.00  0.00     0.184 HD
ENDROOT
BRANCH  10  12
HETATM   12  C   UNL     1      41.454 -12.874  -0.147  1.00  0.00     0.256 C 
HETATM   13  N   UNL     1      42.573 -12.301  -0.721  1.00  0.00    -0.323 N 
HETATM   14  H   UNL     1      43.420 -12.842  -0.765  1.00  0.00     0.169 HD
HETATM   15  O   UNL     1      40.412 -12.282   0.110  1.00  0.00    -0.267 OA
BRANCH  13  16
HETATM   16  C   UNL     1      42.710 -10.974  -1.203  1.00  0.00     0.041 A 
HETATM   17  C   UNL     1      42.542 -10.731  -2.587  1.00  0.00    -0.035 A 
HETATM   18  C   UNL     1      42.279 -11.834  -3.577  1.00  0.00     0.050 C 
HETATM   19  C   UNL     1      42.658  -9.418  -3.079  1.00  0.00     0.009 A 
HETATM   20  C   UNL     1      42.927  -8.354  -2.221  1.00  0.00     0.001 A 
HETATM   21  C   UNL     1      43.088  -8.591  -0.862  1.00  0.00     0.002 A 
HETATM   22  C   UNL     1      42.980  -9.890  -0.358  1.00  0.00     0.030 A 
ENDBRANCH  13  16
ENDBRANCH  10  12
BRANCH   1  23
HETATM   23  C   UNL     1      41.432 -14.021   2.782  1.00  0.00    -0.028 A 
HETATM   24  C   UNL     1      41.835 -12.779   3.304  1.00  0.00     0.016 A 
HETATM   25  C   UNL     1      41.174 -12.208   4.400  1.00  0.00    -0.061 A 
HETATM   26  C   UNL     1      41.627 -10.900   4.978  1.00  0.00     0.048 C 
HETATM   27  C   UNL     1      40.079 -12.874   4.961  1.00  0.00     0.007 A 
HETATM   28  C   UNL     1      39.646 -14.088   4.436  1.00  0.00     0.001 A 
HETATM   29  C   UNL     1      40.316 -14.657   3.354  1.00  0.00     0.010 A 
ENDBRANCH   1  23
BRANCH   5  30
HETATM   30  C   UNL     1      43.326 -19.100   3.360  1.00  0.00     0.085 C 
BRANCH  30  31
HETATM   31  C   UNL     1      44.342 -19.966   2.618  1.00  0.00     0.034 C 
BRANCH  31  32
HETATM   32  C   UNL     1      43.726 -21.209   1.986  1.00  0.00     0.164 C 
BRANCH  32  33
HETATM   33  O   UNL     1      44.458 -22.364   2.382  1.00  0.00    -0.401 OA
HETATM   34  H   UNL     1      45.389 -22.218   2.139  1.00  0.00     0.209 HD
ENDBRANCH  32  33
ENDBRANCH  31  32
ENDBRANCH  30  31
ENDBRANCH   5  30
TORSDOF 7
ENDMDL
