MODEL 1
REMARK VINA RESULT:      -8.4      0.000      0.000
REMARK  5 active torsions:
REMARK  status: ('A' for Active; 'I' for Inactive)
REMARK    1  A    between atoms: C_2  and  C_3 
REMARK    2  A    between atoms: C_2  and  C_18 
REMARK       I    between atoms: C_3  and  N_4 
REMARK    3  A    between atoms: N_4  and  C_5 
REMARK    4  A    between atoms: C_7  and  C_8 
REMARK    5  A    between atoms: C_18  and  C_19 
ROOT
HETATM    1  C   UNL     1      42.744 -16.505   3.722  1.00  0.00     0.226 C 
HETATM    2  N   UNL     1      41.600 -16.832   3.022  1.00  0.00    -0.327 N 
HETATM    3  O   UNL     1      43.442 -15.512   3.519  1.00  0.00    -0.273 OA
HETATM    4  H   UNL     1      41.267 -17.783   3.099  1.00  0.00     0.169 HD
ENDROOT
BRANCH   2   5
HETATM    5  C   UNL     1      40.910 -16.023   2.094  1.00  0.00     0.035 A 
HETATM    6  C   UNL     1      41.311 -15.854   0.764  1.00  0.00     0.042 A 
HETATM    7  C   UNL     1      40.619 -14.983  -0.096  1.00  0.00    -0.021 A 
HETATM    8  C   UNL     1      39.506 -14.289   0.394  1.00  0.00     0.012 A 
HETATM    9  C   UNL     1      39.096 -14.455   1.716  1.00  0.00     0.003 A 
HETATM   10  C   UNL     1      39.801 -15.311   2.564  1.00  0.00     0.029 A 
BRANCH   7  11
HETATM   11  C   UNL     1      41.060 -14.773  -1.465  1.00  0.00     0.010 A 
HETATM   12  C   UNL     1      40.814 -15.520  -2.642  1.00  0.00     0.152 A 
HETATM   13  N   UNL     1      41.406 -15.000  -3.721  1.00  0.00    -0.187 NA
HETATM   14  N   UNL     1      42.034 -13.915  -3.238  1.00  0.00    -0.289 N 
HETATM   15  H   UNL     1      42.566 -13.341  -3.883  1.00  0.00     0.188 HD
HETATM   16  C   UNL     1      41.861 -13.737  -1.897  1.00  0.00     0.123 A 
ENDBRANCH   7  11
ENDBRANCH   2   5
BRANCH   1  17
HETATM   17  C   UNL     1      43.072 -17.420   4.905  1.00  0.00     0.078 C 
HETATM   18  C   UNL     1      41.862 -18.324   5.155  1.00  0.00     0.020 C 
BRANCH  17  19
HETATM   19  C   UNL     1      44.345 -18.273   4.774  1.00  0.00     0.052 C 
BRANCH  19  20
HETATM   20  C   UNL     1      44.270 -19.558   3.982  1.00  0.00    -0.057 A 
HETATM   21  C   UNL     1      43.875 -19.613   2.640  1.00  0.00     0.007 A 
HETATM   22  C   UNL     1      43.879 -20.826   1.945  1.00  0.00     0.001 A 
HETATM   23  C   UNL     1      44.291 -21.996   2.577  1.00  0.00     0.000 A 
HETATM   24  C   UNL     1      44.701 -21.957   3.906  1.00  0.00     0.001 A 
HETATM   25  C   UNL     1      44.694 -20.748   4.602  1.00  0.00     0.007 A 
ENDBRANCH  19  20
ENDBRANCH  17  19
ENDBRANCH   1  17
TORSDOF 5
ENDMDL
MODEL 2
REMARK VINA RESULT:      -8.2      1.522      2.799
REMARK  5 active torsions:
REMARK  status: ('A' for Active; 'I' for Inactive)
REMARK    1  A    between atoms: C_2  and  C_3 
REMARK    2  A    between atoms: C_2  and  C_18 
REMARK       I    between atoms: C_3  and  N_4 
REMARK    3  A    between atoms: N_4  and  C_5 
REMARK    4  A    between atoms: C_7  and  C_8 
REMARK    5  A    between atoms: C_18  and  C_19 
ROOT
HETATM    1  C   UNL     1      43.386 -18.847   2.095  1.00  0.00     0.226 C 
HETATM    2  N   UNL     1      42.054 -18.633   1.800  1.00  0.00    -0.327 N 
HETATM    3  O   UNL     1      44.294 -18.036   1.913  1.00  0.00    -0.273 OA
HETATM    4  H   UNL     1      41.456 -19.446   1.747  1.00  0.00     0.169 HD
ENDROOT
BRANCH   2   5
HETATM    5  C   UNL     1      41.452 -17.413   1.424  1.00  0.00     0.035 A 
HETATM    6  C   UNL     1      41.595 -16.834   0.159  1.00  0.00     0.042 A 
HETATM    7  C   UNL     1      41.023 -15.584  -0.135  1.00  0.00    -0.021 A 
HETATM    8  C   UNL     1      40.290 -14.923   0.859  1.00  0.00     0.012 A 
HETATM    9  C   UNL     1      40.137 -15.495   2.121  1.00  0.00     0.003 A 
HETATM   10  C   UNL     1      40.723 -16.729   2.405  1.00  0.00     0.029 A 
BRANCH   7  11
HETATM   11  C   UNL     1      41.208 -14.960  -1.435  1.00  0.00     0.010 A 
HETATM   12  C   UNL     1      40.916 -15.431  -2.737  1.00  0.00     0.152 A 
HETATM   13  N   UNL     1      41.240 -14.554  -3.692  1.00  0.00    -0.187 NA
HETATM   14  N   UNL     1      41.741 -13.516  -3.002  1.00  0.00    -0.289 N 
HETATM   15  H   UNL     1      42.063 -12.706  -3.521  1.00  0.00     0.188 HD
HETATM   16  C   UNL     1      41.746 -13.710  -1.652  1.00  0.00     0.123 A 
ENDBRANCH   7  11
ENDBRANCH   2   5
BRANCH   1  17
HETATM   17  C   UNL     1      43.695 -20.169   2.803  1.00  0.00     0.078 C 
HETATM   18  C   UNL     1      43.904 -21.242   1.732  1.00  0.00     0.020 C 
BRANCH  17  19
HETATM   19  C   UNL     1      44.888 -20.160   3.774  1.00  0.00     0.052 C 
BRANCH  19  20
HETATM   20  C   UNL     1      44.664 -19.660   5.182  1.00  0.00    -0.057 A 
HETATM   21  C   UNL     1      45.005 -18.370   5.605  1.00  0.00     0.007 A 
HETATM   22  C   UNL     1      44.722 -17.948   6.907  1.00  0.00     0.001 A 
HETATM   23  C   UNL     1      44.083 -18.804   7.800  1.00  0.00     0.000 A 
HETATM   24  C   UNL     1      43.723 -20.085   7.392  1.00  0.00     0.001 A 
HETATM   25  C   UNL     1      44.009 -20.508   6.093  1.00  0.00     0.007 A 
ENDBRANCH  19  20
ENDBRANCH  17  19
ENDBRANCH   1  17
TORSDOF 5
ENDMDL
MODEL 3
REMARK VINA RESULT:      -8.0      2.974      6.584
REMARK  5 active torsions:
REMARK  status: ('A' for Active; 'I' for Inactive)
REMARK    1  A    between atoms: C_2  and  C_3 
REMARK    2  A    between atoms: C_2  and  C_18 
REMARK       I    between atoms: C_3  and  N_4 
REMARK    3  A    between atoms: N_4  and  C_5 
REMARK    4  A    between atoms: C_7  and  C_8 
REMARK    5  A    between atoms: C_18  and  C_19 
ROOT
HETATM    1  C   UNL     1      42.391 -14.804   4.758  1.00  0.00     0.226 C 
HETATM    2  N   UNL     1      42.280 -16.054   5.332  1.00  0.00    -0.327 N 
HETATM    3  O   UNL     1      43.417 -14.336   4.265  1.00  0.00    -0.273 OA
HETATM    4  H   UNL     1      41.479 -16.221   5.926  1.00  0.00     0.169 HD
ENDROOT
BRANCH   2   5
HETATM    5  C   UNL     1      43.234 -17.094   5.297  1.00  0.00     0.035 A 
HETATM    6  C   UNL     1      43.238 -18.112   4.338  1.00  0.00     0.042 A 
HETATM    7  C   UNL     1      44.177 -19.157   4.395  1.00  0.00    -0.021 A 
HETATM    8  C   UNL     1      45.126 -19.160   5.425  1.00  0.00     0.012 A 
HETATM    9  C   UNL     1      45.133 -18.147   6.382  1.00  0.00     0.003 A 
HETATM   10  C   UNL     1      44.186 -17.124   6.323  1.00  0.00     0.029 A 
BRANCH   7  11
HETATM   11  C   UNL     1      44.155 -20.240   3.425  1.00  0.00     0.010 A 
HETATM   12  C   UNL     1      44.663 -21.558   3.498  1.00  0.00     0.152 A 
HETATM   13  N   UNL     1      44.447 -22.261   2.383  1.00  0.00    -0.187 NA
HETATM   14  N   UNL     1      43.798 -21.393   1.590  1.00  0.00    -0.289 N 
HETATM   15  H   UNL     1      43.519 -21.703   0.665  1.00  0.00     0.188 HD
HETATM   16  C   UNL     1      43.601 -20.172   2.165  1.00  0.00     0.123 A 
ENDBRANCH   7  11
ENDBRANCH   2   5
BRANCH   1  17
HETATM   17  C   UNL     1      41.083 -14.013   4.653  1.00  0.00     0.078 C 
HETATM   18  C   UNL     1      41.434 -12.554   4.350  1.00  0.00     0.020 C 
BRANCH  17  19
HETATM   19  C   UNL     1      40.057 -14.527   3.630  1.00  0.00     0.052 C 
BRANCH  19  20
HETATM   20  C   UNL     1      40.564 -15.250   2.404  1.00  0.00    -0.057 A 
HETATM   21  C   UNL     1      41.194 -14.603   1.334  1.00  0.00     0.007 A 
HETATM   22  C   UNL     1      41.691 -15.334   0.252  1.00  0.00     0.001 A 
HETATM   23  C   UNL     1      41.578 -16.722   0.230  1.00  0.00     0.000 A 
HETATM   24  C   UNL     1      40.969 -17.383   1.292  1.00  0.00     0.001 A 
HETATM   25  C   UNL     1      40.469 -16.653   2.371  1.00  0.00     0.007 A 
ENDBRANCH  19  20
ENDBRANCH  17  19
ENDBRANCH   1  17
TORSDOF 5
ENDMDL
MODEL 4
REMARK VINA RESULT:      -8.0      3.594      6.464
REMARK  5 active torsions:
REMARK  status: ('A' for Active; 'I' for Inactive)
REMARK    1  A    between atoms: C_2  and  C_3 
REMARK    2  A    between atoms: C_2  and  C_18 
REMARK       I    between atoms: C_3  and  N_4 
REMARK    3  A    between atoms: N_4  and  C_5 
REMARK    4  A    between atoms: C_7  and  C_8 
REMARK    5  A    between atoms: C_18  and  C_19 
ROOT
HETATM    1  C   UNL     1      42.348 -15.447   4.376  1.00  0.00     0.226 C 
HETATM    2  N   UNL     1      43.445 -15.900   3.671  1.00  0.00    -0.327 N 
HETATM    3  O   UNL     1      41.233 -15.969   4.370  1.00  0.00    -0.273 OA
HETATM    4  H   UNL     1      44.213 -15.255   3.547  1.00  0.00     0.169 HD
ENDROOT
BRANCH   2   5
HETATM    5  C   UNL     1      43.564 -17.123   2.977  1.00  0.00     0.035 A 
HETATM    6  C   UNL     1      43.873 -18.339   3.595  1.00  0.00     0.042 A 
HETATM    7  C   UNL     1      44.042 -19.513   2.840  1.00  0.00    -0.021 A 
HETATM    8  C   UNL     1      43.883 -19.454   1.450  1.00  0.00     0.012 A 
HETATM    9  C   UNL     1      43.571 -18.247   0.825  1.00  0.00     0.003 A 
HETATM   10  C   UNL     1      43.421 -17.086   1.585  1.00  0.00     0.029 A 
BRANCH   7  11
HETATM   11  C   UNL     1      44.406 -20.768   3.476  1.00  0.00     0.010 A 
HETATM   12  C   UNL     1      44.904 -21.039   4.772  1.00  0.00     0.152 A 
HETATM   13  N   UNL     1      45.125 -22.340   4.983  1.00  0.00    -0.187 NA
HETATM   14  N   UNL     1      44.766 -22.908   3.820  1.00  0.00    -0.289 N 
HETATM   15  H   UNL     1      44.845 -23.916   3.734  1.00  0.00     0.188 HD
HETATM   16  C   UNL     1      44.332 -22.013   2.887  1.00  0.00     0.123 A 
ENDBRANCH   7  11
ENDBRANCH   2   5
BRANCH   1  17
HETATM   17  C   UNL     1      42.613 -14.262   5.309  1.00  0.00     0.078 C 
HETATM   18  C   UNL     1      41.267 -13.621   5.656  1.00  0.00     0.020 C 
BRANCH  17  19
HETATM   19  C   UNL     1      43.394 -14.570   6.598  1.00  0.00     0.052 C 
BRANCH  19  20
HETATM   20  C   UNL     1      43.708 -16.013   6.919  1.00  0.00    -0.057 A 
HETATM   21  C   UNL     1      42.777 -16.899   7.474  1.00  0.00     0.007 A 
HETATM   22  C   UNL     1      43.112 -18.237   7.697  1.00  0.00     0.001 A 
HETATM   23  C   UNL     1      44.376 -18.712   7.357  1.00  0.00     0.000 A 
HETATM   24  C   UNL     1      45.309 -17.848   6.791  1.00  0.00     0.001 A 
HETATM   25  C   UNL     1      44.977 -16.511   6.571  1.00  0.00     0.007 A 
ENDBRANCH  19  20
ENDBRANCH  17  19
ENDBRANCH   1  17
TORSDOF 5
ENDMDL
MODEL 5
REMARK VINA RESULT:      -8.0      2.524      7.725
REMARK  5 active torsions:
REMARK  status: ('A' for Active; 'I' for Inactive)
REMARK    1  A    between atoms: C_2  and  C_3 
REMARK    2  A    between atoms: C_2  and  C_18 
REMARK       I    between atoms: C_3  and  N_4 
REMARK    3  A    between atoms: N_4  and  C_5 
REMARK    4  A    between atoms: C_7  and  C_8 
REMARK    5  A    between atoms: C_18  and  C_19 
ROOT
HETATM    1  C   UNL     1      41.217 -15.600   1.049  1.00  0.00     0.226 C 
HETATM    2  N   UNL     1      42.539 -15.899   1.310  1.00  0.00    -0.327 N 
HETATM    3  O   UNL     1      40.247 -16.186   1.530  1.00  0.00    -0.273 OA
HETATM    4  H   UNL     1      43.231 -15.534   0.670  1.00  0.00     0.169 HD
ENDROOT
BRANCH   2   5
HETATM    5  C   UNL     1      43.033 -16.780   2.297  1.00  0.00     0.035 A 
HETATM    6  C   UNL     1      43.356 -18.118   2.051  1.00  0.00     0.042 A 
HETATM    7  C   UNL     1      43.783 -18.963   3.091  1.00  0.00    -0.021 A 
HETATM    8  C   UNL     1      43.894 -18.442   4.385  1.00  0.00     0.012 A 
HETATM    9  C   UNL     1      43.578 -17.108   4.639  1.00  0.00     0.003 A 
HETATM   10  C   UNL     1      43.141 -16.284   3.602  1.00  0.00     0.029 A 
BRANCH   7  11
HETATM   11  C   UNL     1      44.077 -20.365   2.845  1.00  0.00     0.010 A 
HETATM   12  C   UNL     1      43.881 -21.165   1.694  1.00  0.00     0.152 A 
HETATM   13  N   UNL     1      44.281 -22.428   1.864  1.00  0.00    -0.187 NA
HETATM   14  N   UNL     1      44.737 -22.442   3.127  1.00  0.00    -0.289 N 
HETATM   15  H   UNL     1      45.104 -23.313   3.496  1.00  0.00     0.188 HD
HETATM   16  C   UNL     1      44.635 -21.236   3.757  1.00  0.00     0.123 A 
ENDBRANCH   7  11
ENDBRANCH   2   5
BRANCH   1  17
HETATM   17  C   UNL     1      40.986 -14.366   0.173  1.00  0.00     0.078 C 
HETATM   18  C   UNL     1      41.793 -13.207   0.762  1.00  0.00     0.020 C 
BRANCH  17  19
HETATM   19  C   UNL     1      41.309 -14.522  -1.323  1.00  0.00     0.052 C 
BRANCH  19  20
HETATM   20  C   UNL     1      40.179 -14.842  -2.273  1.00  0.00    -0.057 A 
HETATM   21  C   UNL     1      40.248 -15.855  -3.237  1.00  0.00     0.007 A 
HETATM   22  C   UNL     1      39.147 -16.140  -4.051  1.00  0.00     0.001 A 
HETATM   23  C   UNL     1      37.960 -15.427  -3.903  1.00  0.00     0.000 A 
HETATM   24  C   UNL     1      37.870 -14.427  -2.939  1.00  0.00     0.001 A 
HETATM   25  C   UNL     1      38.969 -14.140  -2.129  1.00  0.00     0.007 A 
ENDBRANCH  19  20
ENDBRANCH  17  19
ENDBRANCH   1  17
TORSDOF 5
ENDMDL
MODEL 6
REMARK VINA RESULT:      -7.9      1.795      2.493
REMARK  5 active torsions:
REMARK  status: ('A' for Active; 'I' for Inactive)
REMARK    1  A    between atoms: C_2  and  C_3 
REMARK    2  A    between atoms: C_2  and  C_18 
REMARK       I    between atoms: C_3  and  N_4 
REMARK    3  A    between atoms: N_4  and  C_5 
REMARK    4  A    between atoms: C_7  and  C_8 
REMARK    5  A    between atoms: C_18  and  C_19 
ROOT
HETATM    1  C   UNL     1      43.053 -17.857   5.639  1.00  0.00     0.226 C 
HETATM    2  N   UNL     1      43.396 -16.589   5.215  1.00  0.00    -0.327 N 
HETATM    3  O   UNL     1      41.935 -18.362   5.537  1.00  0.00    -0.273 OA
HETATM    4  H   UNL     1      44.251 -16.194   5.582  1.00  0.00     0.169 HD
ENDROOT
BRANCH   2   5
HETATM    5  C   UNL     1      42.616 -15.715   4.427  1.00  0.00     0.035 A 
HETATM    6  C   UNL     1      42.419 -15.876   3.052  1.00  0.00     0.042 A 
HETATM    7  C   UNL     1      41.684 -14.935   2.310  1.00  0.00    -0.021 A 
HETATM    8  C   UNL     1      41.134 -13.830   2.972  1.00  0.00     0.012 A 
HETATM    9  C   UNL     1      41.320 -13.664   4.344  1.00  0.00     0.003 A 
HETATM   10  C   UNL     1      42.065 -14.597   5.066  1.00  0.00     0.029 A 
BRANCH   7  11
HETATM   11  C   UNL     1      41.516 -15.077   0.873  1.00  0.00     0.010 A 
HETATM   12  C   UNL     1      41.442 -14.104  -0.151  1.00  0.00     0.152 A 
HETATM   13  N   UNL     1      41.277 -14.637  -1.365  1.00  0.00    -0.187 NA
HETATM   14  N   UNL     1      41.248 -15.958  -1.122  1.00  0.00    -0.289 N 
HETATM   15  H   UNL     1      41.130 -16.588  -1.908  1.00  0.00     0.188 HD
HETATM   16  C   UNL     1      41.384 -16.272   0.199  1.00  0.00     0.123 A 
ENDBRANCH   7  11
ENDBRANCH   2   5
BRANCH   1  17
HETATM   17  C   UNL     1      44.211 -18.704   6.175  1.00  0.00     0.078 C 
HETATM   18  C   UNL     1      43.618 -19.860   6.983  1.00  0.00     0.020 C 
BRANCH  17  19
HETATM   19  C   UNL     1      45.198 -19.248   5.130  1.00  0.00     0.052 C 
BRANCH  19  20
HETATM   20  C   UNL     1      44.653 -20.079   3.991  1.00  0.00    -0.057 A 
HETATM   21  C   UNL     1      44.039 -19.527   2.861  1.00  0.00     0.007 A 
HETATM   22  C   UNL     1      43.604 -20.345   1.815  1.00  0.00     0.001 A 
HETATM   23  C   UNL     1      43.790 -21.724   1.878  1.00  0.00     0.000 A 
HETATM   24  C   UNL     1      44.411 -22.288   2.987  1.00  0.00     0.001 A 
HETATM   25  C   UNL     1      44.842 -21.472   4.034  1.00  0.00     0.007 A 
ENDBRANCH  19  20
ENDBRANCH  17  19
ENDBRANCH   1  17
TORSDOF 5
ENDMDL
MODEL 7
REMARK VINA RESULT:      -7.8      2.746      7.764
REMARK  5 active torsions:
REMARK  status: ('A' for Active; 'I' for Inactive)
REMARK    1  A    between atoms: C_2  and  C_3 
REMARK    2  A    between atoms: C_2  and  C_18 
REMARK       I    between atoms: C_3  and  N_4 
REMARK    3  A    between atoms: N_4  and  C_5 
REMARK    4  A    between atoms: C_7  and  C_8 
REMARK    5  A    between atoms: C_18  and  C_19 
ROOT
HETATM    1  C   UNL     1      42.118 -16.647   1.417  1.00  0.00     0.226 C 
HETATM    2  N   UNL     1      43.361 -16.977   1.919  1.00  0.00    -0.327 N 
HETATM    3  O   UNL     1      41.063 -17.217   1.699  1.00  0.00    -0.273 OA
HETATM    4  H   UNL     1      44.168 -16.621   1.425  1.00  0.00     0.169 HD
ENDROOT
BRANCH   2   5
HETATM    5  C   UNL     1      43.643 -17.876   2.969  1.00  0.00     0.035 A 
HETATM    6  C   UNL     1      43.524 -17.548   4.324  1.00  0.00     0.042 A 
HETATM    7  C   UNL     1      43.883 -18.468   5.326  1.00  0.00    -0.021 A 
HETATM    8  C   UNL     1      44.353 -19.732   4.949  1.00  0.00     0.012 A 
HETATM    9  C   UNL     1      44.470 -20.069   3.601  1.00  0.00     0.003 A 
HETATM   10  C   UNL     1      44.125 -19.142   2.617  1.00  0.00     0.029 A 
BRANCH   7  11
HETATM   11  C   UNL     1      43.801 -18.114   6.733  1.00  0.00     0.010 A 
HETATM   12  C   UNL     1      43.487 -16.886   7.362  1.00  0.00     0.152 A 
HETATM   13  N   UNL     1      43.522 -16.961   8.696  1.00  0.00    -0.187 NA
HETATM   14  N   UNL     1      43.857 -18.241   8.926  1.00  0.00    -0.289 N 
HETATM   15  H   UNL     1      43.947 -18.548   9.888  1.00  0.00     0.188 HD
HETATM   16  C   UNL     1      44.038 -18.970   7.787  1.00  0.00     0.123 A 
ENDBRANCH   7  11
ENDBRANCH   2   5
BRANCH   1  17
HETATM   17  C   UNL     1      42.080 -15.400   0.528  1.00  0.00     0.078 C 
HETATM   18  C   UNL     1      41.053 -15.641  -0.581  1.00  0.00     0.020 C 
BRANCH  17  19
HETATM   19  C   UNL     1      41.784 -14.068   1.235  1.00  0.00     0.052 C 
BRANCH  19  20
HETATM   20  C   UNL     1      41.954 -13.997   2.735  1.00  0.00    -0.057 A 
HETATM   21  C   UNL     1      43.188 -13.779   3.360  1.00  0.00     0.007 A 
HETATM   22  C   UNL     1      43.273 -13.669   4.751  1.00  0.00     0.001 A 
HETATM   23  C   UNL     1      42.126 -13.760   5.534  1.00  0.00     0.000 A 
HETATM   24  C   UNL     1      40.889 -13.962   4.929  1.00  0.00     0.001 A 
HETATM   25  C   UNL     1      40.804 -14.076   3.541  1.00  0.00     0.007 A 
ENDBRANCH  19  20
ENDBRANCH  17  19
ENDBRANCH   1  17
TORSDOF 5
ENDMDL
MODEL 8
REMARK VINA RESULT:      -7.8      1.492      1.747
REMARK  5 active torsions:
REMARK  status: ('A' for Active; 'I' for Inactive)
REMARK    1  A    between atoms: C_2  and  C_3 
REMARK    2  A    between atoms: C_2  and  C_18 
REMARK       I    between atoms: C_3  and  N_4 
REMARK    3  A    between atoms: N_4  and  C_5 
REMARK    4  A    between atoms: C_7  and  C_8 
REMARK    5  A    between atoms: C_18  and  C_19 
ROOT
HETATM    1  C   UNL     1      41.500 -16.990   2.279  1.00  0.00     0.226 C 
HETATM    2  N   UNL     1      40.902 -15.751   2.390  1.00  0.00    -0.327 N 
HETATM    3  O   UNL     1      41.263 -17.817   1.398  1.00  0.00    -0.273 OA
HETATM    4  H   UNL     1      40.978 -15.279   3.281  1.00  0.00     0.169 HD
ENDROOT
BRANCH   2   5
HETATM    5  C   UNL     1      40.070 -15.119   1.441  1.00  0.00     0.035 A 
HETATM    6  C   UNL     1      40.525 -14.637   0.209  1.00  0.00     0.042 A 
HETATM    7  C   UNL     1      39.660 -13.958  -0.667  1.00  0.00    -0.021 A 
HETATM    8  C   UNL     1      38.322 -13.779  -0.295  1.00  0.00     0.012 A 
HETATM    9  C   UNL     1      37.858 -14.260   0.929  1.00  0.00     0.003 A 
HETATM   10  C   UNL     1      38.730 -14.918   1.796  1.00  0.00     0.029 A 
BRANCH   7  11
HETATM   11  C   UNL     1      40.140 -13.419  -1.928  1.00  0.00     0.010 A 
HETATM   12  C   UNL     1      41.250 -13.783  -2.728  1.00  0.00     0.152 A 
HETATM   13  N   UNL     1      41.364 -13.035  -3.829  1.00  0.00    -0.187 NA
HETATM   14  N   UNL     1      40.325 -12.189  -3.739  1.00  0.00    -0.289 N 
HETATM   15  H   UNL     1      40.196 -11.507  -4.479  1.00  0.00     0.188 HD
HETATM   16  C   UNL     1      39.566 -12.375  -2.622  1.00  0.00     0.123 A 
ENDBRANCH   7  11
ENDBRANCH   2   5
BRANCH   1  17
HETATM   17  C   UNL     1      42.615 -17.273   3.289  1.00  0.00     0.078 C 
HETATM   18  C   UNL     1      42.030 -18.130   4.414  1.00  0.00     0.020 C 
BRANCH  17  19
HETATM   19  C   UNL     1      43.886 -17.936   2.732  1.00  0.00     0.052 C 
BRANCH  19  20
HETATM   20  C   UNL     1      44.006 -19.440   2.813  1.00  0.00    -0.057 A 
HETATM   21  C   UNL     1      43.576 -20.302   1.797  1.00  0.00     0.007 A 
HETATM   22  C   UNL     1      43.765 -21.682   1.907  1.00  0.00     0.001 A 
HETATM   23  C   UNL     1      44.398 -22.219   3.025  1.00  0.00     0.000 A 
HETATM   24  C   UNL     1      44.844 -21.375   4.038  1.00  0.00     0.001 A 
HETATM   25  C   UNL     1      44.653 -19.997   3.931  1.00  0.00     0.007 A 
ENDBRANCH  19  20
ENDBRANCH  17  19
ENDBRANCH   1  17
TORSDOF 5
ENDMDL
MODEL 9
REMARK VINA RESULT:      -7.7      5.940      8.675
REMARK  5 active torsions:
REMARK  status: ('A' for Active; 'I' for Inactive)
REMARK    1  A    between atoms: C_2  and  C_3 
REMARK    2  A    between atoms: C_2  and  C_18 
REMARK       I    between atoms: C_3  and  N_4 
REMARK    3  A    between atoms: N_4  and  C_5 
REMARK    4  A    between atoms: C_7  and  C_8 
REMARK    5  A    between atoms: C_18  and  C_19 
ROOT
HETATM    1  C   UNL     1      45.091 -13.556   7.569  1.00  0.00     0.226 C 
HETATM    2  N   UNL     1      44.156 -14.566   7.674  1.00  0.00    -0.327 N 
HETATM    3  O   UNL     1      45.862 -13.397   6.622  1.00  0.00    -0.273 OA
HETATM    4  H   UNL     1      43.773 -14.748   8.592  1.00  0.00     0.169 HD
ENDROOT
BRANCH   2   5
HETATM    5  C   UNL     1      43.769 -15.475   6.666  1.00  0.00     0.035 A 
HETATM    6  C   UNL     1      42.752 -15.220   5.739  1.00  0.00     0.042 A 
HETATM    7  C   UNL     1      42.368 -16.193   4.799  1.00  0.00    -0.021 A 
HETATM    8  C   UNL     1      43.030 -17.428   4.793  1.00  0.00     0.012 A 
HETATM    9  C   UNL     1      44.047 -17.689   5.710  1.00  0.00     0.003 A 
HETATM   10  C   UNL     1      44.408 -16.721   6.648  1.00  0.00     0.029 A 
BRANCH   7  11
HETATM   11  C   UNL     1      41.284 -15.947   3.864  1.00  0.00     0.010 A 
HETATM   12  C   UNL     1      40.907 -16.628   2.682  1.00  0.00     0.152 A 
HETATM   13  N   UNL     1      39.840 -16.087   2.087  1.00  0.00    -0.187 NA
HETATM   14  N   UNL     1      39.528 -15.055   2.890  1.00  0.00    -0.289 N 
HETATM   15  H   UNL     1      38.731 -14.478   2.641  1.00  0.00     0.188 HD
HETATM   16  C   UNL     1      40.360 -14.928   3.963  1.00  0.00     0.123 A 
ENDBRANCH   7  11
ENDBRANCH   2   5
BRANCH   1  17
HETATM   17  C   UNL     1      45.059 -12.514   8.690  1.00  0.00     0.078 C 
HETATM   18  C   UNL     1      46.334 -11.673   8.592  1.00  0.00     0.020 C 
BRANCH  17  19
HETATM   19  C   UNL     1      43.827 -11.595   8.731  1.00  0.00     0.052 C 
BRANCH  19  20
HETATM   20  C   UNL     1      43.386 -11.043  10.067  1.00  0.00    -0.057 A 
HETATM   21  C   UNL     1      44.279 -10.695  11.088  1.00  0.00     0.007 A 
HETATM   22  C   UNL     1      43.813 -10.138  12.282  1.00  0.00     0.001 A 
HETATM   23  C   UNL     1      42.451  -9.908  12.467  1.00  0.00     0.000 A 
HETATM   24  C   UNL     1      41.552 -10.235  11.457  1.00  0.00     0.001 A 
HETATM   25  C   UNL     1      42.016 -10.795  10.266  1.00  0.00     0.007 A 
ENDBRANCH  19  20
ENDBRANCH  17  19
ENDBRANCH   1  17
TORSDOF 5
ENDMDL
MODEL 10
REMARK VINA RESULT:      -7.7      1.117      1.726
REMARK  5 active torsions:
REMARK  status: ('A' for Active; 'I' for Inactive)
REMARK    1  A    between atoms: C_2  and  C_3 
REMARK    2  A    between atoms: C_2  and  C_18 
REMARK       I    between atoms: C_3  and  N_4 
REMARK    3  A    between atoms: N_4  and  C_5 
REMARK    4  A    between atoms: C_7  and  C_8 
REMARK    5  A    between atoms: C_18  and  C_19 
ROOT
HETATM    1  C   UNL     1      42.718 -15.488   3.316  1.00  0.00     0.226 C 
HETATM    2  N   UNL     1      41.513 -15.921   2.800  1.00  0.00    -0.327 N 
HETATM    3  O   UNL     1      43.317 -14.471   2.966  1.00  0.00    -0.273 OA
HETATM    4  H   UNL     1      41.256 -16.883   2.971  1.00  0.00     0.169 HD
ENDROOT
BRANCH   2   5
HETATM    5  C   UNL     1      40.653 -15.210   1.935  1.00  0.00     0.035 A 
HETATM    6  C   UNL     1      40.780 -15.213   0.541  1.00  0.00     0.042 A 
HETATM    7  C   UNL     1      39.932 -14.432  -0.264  1.00  0.00    -0.021 A 
HETATM    8  C   UNL     1      38.941 -13.654   0.349  1.00  0.00     0.012 A 
HETATM    9  C   UNL     1      38.805 -13.649   1.736  1.00  0.00     0.003 A 
HETATM   10  C   UNL     1      39.663 -14.417   2.525  1.00  0.00     0.029 A 
BRANCH   7  11
HETATM   11  C   UNL     1      40.089 -14.399  -1.708  1.00  0.00     0.010 A 
HETATM   12  C   UNL     1      41.253 -14.432  -2.514  1.00  0.00     0.152 A 
HETATM   13  N   UNL     1      40.982 -14.377  -3.821  1.00  0.00    -0.187 NA
HETATM   14  N   UNL     1      39.641 -14.310  -3.858  1.00  0.00    -0.289 N 
HETATM   15  H   UNL     1      39.188 -14.260  -4.764  1.00  0.00     0.188 HD
HETATM   16  C   UNL     1      39.061 -14.318  -2.623  1.00  0.00     0.123 A 
ENDBRANCH   7  11
ENDBRANCH   2   5
BRANCH   1  17
HETATM   17  C   UNL     1      43.262 -16.310   4.488  1.00  0.00     0.078 C 
HETATM   18  C   UNL     1      43.031 -15.511   5.774  1.00  0.00     0.020 C 
BRANCH  17  19
HETATM   19  C   UNL     1      42.695 -17.730   4.645  1.00  0.00     0.052 C 
BRANCH  19  20
HETATM   20  C   UNL     1      43.405 -18.868   3.949  1.00  0.00    -0.057 A 
HETATM   21  C   UNL     1      44.345 -19.690   4.582  1.00  0.00     0.007 A 
HETATM   22  C   UNL     1      44.928 -20.762   3.900  1.00  0.00     0.001 A 
HETATM   23  C   UNL     1      44.568 -21.036   2.583  1.00  0.00     0.000 A 
HETATM   24  C   UNL     1      43.625 -20.238   1.943  1.00  0.00     0.001 A 
HETATM   25  C   UNL     1      43.045 -19.165   2.622  1.00  0.00     0.007 A 
ENDBRANCH  19  20
ENDBRANCH  17  19
ENDBRANCH   1  17
TORSDOF 5
ENDMDL
