MODEL 1
REMARK VINA RESULT:      -7.7      0.000      0.000
REMARK  4 active torsions:
REMARK  status: ('A' for Active; 'I' for Inactive)
REMARK    1  A    between atoms: C_2  and  C_3 
REMARK    2  A    between atoms: C_4  and  N_5 
REMARK       I    between atoms: N_5  and  C_6 
REMARK       I    between atoms: C_6  and  N_7 
REMARK    3  A    between atoms: C_8  and  C_9 
REMARK    4  A    between atoms: C_21  and  C_22 
ROOT
HETATM    1  N   UNL     1      41.385 -17.821   2.737  1.00  0.00    -0.209 NA
HETATM    2  C   UNL     1      40.797 -16.602   2.534  1.00  0.00     0.301 C 
HETATM    3  N   UNL     1      41.566 -15.479   2.371  1.00  0.00    -0.330 N 
HETATM    4  C   UNL     1      40.945 -14.190   2.054  1.00  0.00     0.125 C 
HETATM    5  C   UNL     1      42.113 -13.198   1.982  1.00  0.00     0.032 C 
HETATM    6  C   UNL     1      43.138 -13.801   2.923  1.00  0.00     0.022 C 
HETATM    7  C   UNL     1      42.979 -15.296   2.683  1.00  0.00     0.128 C 
HETATM    8  O   UNL     1      39.568 -16.590   2.424  1.00  0.00    -0.254 OA
HETATM    9  H   UNL     1      40.605 -18.469   2.791  1.00  0.00     0.138 HD
ENDROOT
BRANCH   1  10
HETATM   10  C   UNL     1      42.336 -18.117   3.736  1.00  0.00     0.029 A 
HETATM   11  C   UNL     1      42.095 -17.768   5.089  1.00  0.00    -0.036 A 
HETATM   12  C   UNL     1      43.068 -18.069   6.056  1.00  0.00     0.009 A 
HETATM   13  C   UNL     1      44.233 -18.740   5.711  1.00  0.00     0.001 A 
HETATM   14  C   UNL     1      44.428 -19.147   4.395  1.00  0.00     0.009 A 
HETATM   15  C   UNL     1      43.489 -18.857   3.381  1.00  0.00    -0.036 A 
BRANCH  11  16
HETATM   16  C   UNL     1      40.814 -17.125   5.583  1.00  0.00     0.036 C 
HETATM   17  C   UNL     1      41.016 -15.699   6.073  1.00  0.00     0.010 C 
ENDBRANCH  11  16
BRANCH  15  18
HETATM   18  C   UNL     1      43.792 -19.478   2.028  1.00  0.00     0.036 C 
HETATM   19  C   UNL     1      43.679 -20.979   1.816  1.00  0.00     0.010 C 
ENDBRANCH  15  18
ENDBRANCH   1  10
BRANCH   4  20
HETATM   20  C   UNL     1      40.148 -14.177   0.782  1.00  0.00     0.014 A 
HETATM   21  C   UNL     1      38.874 -13.599   0.503  1.00  0.00     0.061 A 
HETATM   22  C   UNL     1      37.994 -12.804   1.394  1.00  0.00     0.073 C 
HETATM   23  N   UNL     1      38.480 -13.837  -0.755  1.00  0.00    -0.179 NA
HETATM   24  N   UNL     1      39.498 -14.516  -1.293  1.00  0.00    -0.282 N 
HETATM   25  H   UNL     1      39.432 -14.779  -2.269  1.00  0.00     0.189 HD
HETATM   26  C   UNL     1      40.508 -14.779  -0.415  1.00  0.00     0.034 A 
HETATM   27  C   UNL     1      41.712 -15.548  -0.806  1.00  0.00     0.070 C 
ENDBRANCH   4  20
TORSDOF 4
ENDMDL
MODEL 2
REMARK VINA RESULT:      -7.7      2.451      3.985
REMARK  4 active torsions:
REMARK  status: ('A' for Active; 'I' for Inactive)
REMARK    1  A    between atoms: C_2  and  C_3 
REMARK    2  A    between atoms: C_4  and  N_5 
REMARK       I    between atoms: N_5  and  C_6 
REMARK       I    between atoms: C_6  and  N_7 
REMARK    3  A    between atoms: C_8  and  C_9 
REMARK    4  A    between atoms: C_21  and  C_22 
ROOT
HETATM    1  N   UNL     1      41.046 -17.220   4.526  1.00  0.00    -0.209 NA
HETATM    2  C   UNL     1      40.984 -15.962   5.062  1.00  0.00     0.301 C 
HETATM    3  N   UNL     1      41.883 -15.000   4.678  1.00  0.00    -0.330 N 
HETATM    4  C   UNL     1      41.760 -13.626   5.172  1.00  0.00     0.125 C 
HETATM    5  C   UNL     1      42.946 -12.877   4.551  1.00  0.00     0.032 C 
HETATM    6  C   UNL     1      43.986 -13.965   4.372  1.00  0.00     0.022 C 
HETATM    7  C   UNL     1      43.149 -15.172   3.975  1.00  0.00     0.128 C 
HETATM    8  O   UNL     1      40.043 -15.728   5.824  1.00  0.00    -0.254 OA
HETATM    9  H   UNL     1      40.263 -17.710   4.949  1.00  0.00     0.138 HD
ENDROOT
BRANCH   1  10
HETATM   10  C   UNL     1      42.188 -18.049   4.508  1.00  0.00     0.029 A 
HETATM   11  C   UNL     1      42.723 -18.513   3.280  1.00  0.00    -0.036 A 
HETATM   12  C   UNL     1      43.855 -19.345   3.300  1.00  0.00     0.009 A 
HETATM   13  C   UNL     1      44.477 -19.675   4.496  1.00  0.00     0.001 A 
HETATM   14  C   UNL     1      43.990 -19.153   5.690  1.00  0.00     0.009 A 
HETATM   15  C   UNL     1      42.848 -18.325   5.728  1.00  0.00    -0.036 A 
BRANCH  11  16
HETATM   16  C   UNL     1      42.179 -18.128   1.918  1.00  0.00     0.036 C 
HETATM   17  C   UNL     1      43.224 -17.477   1.024  1.00  0.00     0.010 C 
ENDBRANCH  11  16
BRANCH  15  18
HETATM   18  C   UNL     1      42.524 -17.739   7.092  1.00  0.00     0.036 C 
HETATM   19  C   UNL     1      43.442 -16.715   7.740  1.00  0.00     0.010 C 
ENDBRANCH  15  18
ENDBRANCH   1  10
BRANCH   4  20
HETATM   20  C   UNL     1      40.461 -12.954   4.832  1.00  0.00     0.014 A 
HETATM   21  C   UNL     1      39.514 -12.304   5.678  1.00  0.00     0.061 A 
HETATM   22  C   UNL     1      39.575 -12.073   7.142  1.00  0.00     0.073 C 
HETATM   23  N   UNL     1      38.452 -11.859   4.994  1.00  0.00    -0.179 NA
HETATM   24  N   UNL     1      38.727 -12.174   3.724  1.00  0.00    -0.282 N 
HETATM   25  H   UNL     1      38.063 -11.897   3.011  1.00  0.00     0.189 HD
HETATM   26  C   UNL     1      39.896 -12.859   3.569  1.00  0.00     0.034 A 
HETATM   27  C   UNL     1      40.364 -13.328   2.244  1.00  0.00     0.070 C 
ENDBRANCH   4  20
TORSDOF 4
ENDMDL
MODEL 3
REMARK VINA RESULT:      -7.5      0.266      2.711
REMARK  4 active torsions:
REMARK  status: ('A' for Active; 'I' for Inactive)
REMARK    1  A    between atoms: C_2  and  C_3 
REMARK    2  A    between atoms: C_4  and  N_5 
REMARK       I    between atoms: N_5  and  C_6 
REMARK       I    between atoms: C_6  and  N_7 
REMARK    3  A    between atoms: C_8  and  C_9 
REMARK    4  A    between atoms: C_21  and  C_22 
ROOT
HETATM    1  N   UNL     1      41.259 -17.741   2.874  1.00  0.00    -0.209 NA
HETATM    2  C   UNL     1      40.703 -16.517   2.616  1.00  0.00     0.301 C 
HETATM    3  N   UNL     1      41.503 -15.422   2.410  1.00  0.00    -0.330 N 
HETATM    4  C   UNL     1      40.917 -14.132   2.034  1.00  0.00     0.125 C 
HETATM    5  C   UNL     1      42.111 -13.174   1.928  1.00  0.00     0.032 C 
HETATM    6  C   UNL     1      43.113 -13.762   2.902  1.00  0.00     0.022 C 
HETATM    7  C   UNL     1      42.918 -15.261   2.725  1.00  0.00     0.128 C 
HETATM    8  O   UNL     1      39.477 -16.478   2.495  1.00  0.00    -0.254 OA
HETATM    9  H   UNL     1      40.462 -18.366   2.951  1.00  0.00     0.138 HD
ENDROOT
BRANCH   1  10
HETATM   10  C   UNL     1      42.196 -18.017   3.893  1.00  0.00     0.029 A 
HETATM   11  C   UNL     1      43.449 -18.601   3.582  1.00  0.00    -0.036 A 
HETATM   12  C   UNL     1      44.353 -18.872   4.623  1.00  0.00     0.009 A 
HETATM   13  C   UNL     1      44.053 -18.534   5.935  1.00  0.00     0.001 A 
HETATM   14  C   UNL     1      42.852 -17.892   6.221  1.00  0.00     0.009 A 
HETATM   15  C   UNL     1      41.902 -17.610   5.215  1.00  0.00    -0.036 A 
BRANCH  11  16
HETATM   16  C   UNL     1      43.912 -18.915   2.173  1.00  0.00     0.036 C 
HETATM   17  C   UNL     1      43.716 -20.376   1.794  1.00  0.00     0.010 C 
ENDBRANCH  11  16
BRANCH  15  18
HETATM   18  C   UNL     1      40.705 -16.796   5.674  1.00  0.00     0.036 C 
HETATM   19  C   UNL     1      40.842 -15.315   5.990  1.00  0.00     0.010 C 
ENDBRANCH  15  18
ENDBRANCH   1  10
BRANCH   4  20
HETATM   20  C   UNL     1      40.130 -14.153   0.756  1.00  0.00     0.014 A 
HETATM   21  C   UNL     1      38.854 -13.590   0.455  1.00  0.00     0.061 A 
HETATM   22  C   UNL     1      37.963 -12.781   1.321  1.00  0.00     0.073 C 
HETATM   23  N   UNL     1      38.470 -13.859  -0.800  1.00  0.00    -0.179 NA
HETATM   24  N   UNL     1      39.497 -14.544  -1.315  1.00  0.00    -0.282 N 
HETATM   25  H   UNL     1      39.439 -14.830  -2.286  1.00  0.00     0.189 HD
HETATM   26  C   UNL     1      40.502 -14.780  -0.424  1.00  0.00     0.034 A 
HETATM   27  C   UNL     1      41.714 -15.550  -0.789  1.00  0.00     0.070 C 
ENDBRANCH   4  20
TORSDOF 4
ENDMDL
MODEL 4
REMARK VINA RESULT:      -7.4      0.349      3.165
REMARK  4 active torsions:
REMARK  status: ('A' for Active; 'I' for Inactive)
REMARK    1  A    between atoms: C_2  and  C_3 
REMARK    2  A    between atoms: C_4  and  N_5 
REMARK       I    between atoms: N_5  and  C_6 
REMARK       I    between atoms: C_6  and  N_7 
REMARK    3  A    between atoms: C_8  and  C_9 
REMARK    4  A    between atoms: C_21  and  C_22 
ROOT
HETATM    1  N   UNL     1      41.295 -17.703   2.855  1.00  0.00    -0.209 NA
HETATM    2  C   UNL     1      40.714 -16.499   2.558  1.00  0.00     0.301 C 
HETATM    3  N   UNL     1      41.490 -15.387   2.353  1.00  0.00    -0.330 N 
HETATM    4  C   UNL     1      40.880 -14.121   1.936  1.00  0.00     0.125 C 
HETATM    5  C   UNL     1      42.051 -13.133   1.844  1.00  0.00     0.032 C 
HETATM    6  C   UNL     1      43.042 -13.676   2.855  1.00  0.00     0.022 C 
HETATM    7  C   UNL     1      42.890 -15.183   2.702  1.00  0.00     0.128 C 
HETATM    8  O   UNL     1      39.490 -16.496   2.404  1.00  0.00    -0.254 OA
HETATM    9  H   UNL     1      40.513 -18.348   2.922  1.00  0.00     0.138 HD
ENDROOT
BRANCH   1  10
HETATM   10  C   UNL     1      42.210 -17.936   3.903  1.00  0.00     0.029 A 
HETATM   11  C   UNL     1      43.479 -18.511   3.639  1.00  0.00    -0.036 A 
HETATM   12  C   UNL     1      44.361 -18.737   4.709  1.00  0.00     0.009 A 
HETATM   13  C   UNL     1      44.025 -18.364   6.002  1.00  0.00     0.001 A 
HETATM   14  C   UNL     1      42.810 -17.730   6.241  1.00  0.00     0.009 A 
HETATM   15  C   UNL     1      41.880 -17.492   5.205  1.00  0.00    -0.036 A 
BRANCH  11  16
HETATM   16  C   UNL     1      43.980 -18.860   2.252  1.00  0.00     0.036 C 
HETATM   17  C   UNL     1      43.733 -20.315   1.880  1.00  0.00     0.010 C 
ENDBRANCH  11  16
BRANCH  15  18
HETATM   18  C   UNL     1      40.661 -16.682   5.610  1.00  0.00     0.036 C 
HETATM   19  C   UNL     1      40.782 -15.203   5.942  1.00  0.00     0.010 C 
ENDBRANCH  15  18
ENDBRANCH   1  10
BRANCH   4  20
HETATM   20  C   UNL     1      40.128 -14.187   0.639  1.00  0.00     0.014 A 
HETATM   21  C   UNL     1      40.506 -14.759  -0.613  1.00  0.00     0.061 A 
HETATM   22  C   UNL     1      41.745 -15.492  -0.968  1.00  0.00     0.073 C 
HETATM   23  N   UNL     1      39.566 -14.580  -1.550  1.00  0.00    -0.179 NA
HETATM   24  N   UNL     1      38.581 -13.946  -0.907  1.00  0.00    -0.282 N 
HETATM   25  H   UNL     1      37.735 -13.733  -1.423  1.00  0.00     0.189 HD
HETATM   26  C   UNL     1      38.872 -13.654   0.393  1.00  0.00     0.034 A 
HETATM   27  C   UNL     1      37.924 -12.925   1.268  1.00  0.00     0.070 C 
ENDBRANCH   4  20
TORSDOF 4
ENDMDL
MODEL 5
REMARK VINA RESULT:      -7.3      2.476      3.541
REMARK  4 active torsions:
REMARK  status: ('A' for Active; 'I' for Inactive)
REMARK    1  A    between atoms: C_2  and  C_3 
REMARK    2  A    between atoms: C_4  and  N_5 
REMARK       I    between atoms: N_5  and  C_6 
REMARK       I    between atoms: C_6  and  N_7 
REMARK    3  A    between atoms: C_8  and  C_9 
REMARK    4  A    between atoms: C_21  and  C_22 
ROOT
HETATM    1  N   UNL     1      40.918 -17.046   4.343  1.00  0.00    -0.209 NA
HETATM    2  C   UNL     1      40.968 -15.783   4.869  1.00  0.00     0.301 C 
HETATM    3  N   UNL     1      41.755 -14.821   4.290  1.00  0.00    -0.330 N 
HETATM    4  C   UNL     1      41.734 -13.443   4.789  1.00  0.00     0.125 C 
HETATM    5  C   UNL     1      42.751 -12.694   3.917  1.00  0.00     0.032 C 
HETATM    6  C   UNL     1      43.734 -13.779   3.523  1.00  0.00     0.022 C 
HETATM    7  C   UNL     1      42.837 -14.994   3.329  1.00  0.00     0.128 C 
HETATM    8  O   UNL     1      40.215 -15.547   5.817  1.00  0.00    -0.254 OA
HETATM    9  H   UNL     1      40.250 -17.536   4.931  1.00  0.00     0.138 HD
ENDROOT
BRANCH   1  10
HETATM   10  C   UNL     1      42.034 -17.870   4.081  1.00  0.00     0.029 A 
HETATM   11  C   UNL     1      42.847 -18.342   5.142  1.00  0.00    -0.036 A 
HETATM   12  C   UNL     1      43.955 -19.152   4.844  1.00  0.00     0.009 A 
HETATM   13  C   UNL     1      44.232 -19.529   3.537  1.00  0.00     0.001 A 
HETATM   14  C   UNL     1      43.385 -19.124   2.511  1.00  0.00     0.009 A 
HETATM   15  C   UNL     1      42.267 -18.297   2.753  1.00  0.00    -0.036 A 
BRANCH  11  16
HETATM   16  C   UNL     1      42.570 -18.071   6.608  1.00  0.00     0.036 C 
HETATM   17  C   UNL     1      43.798 -18.255   7.488  1.00  0.00     0.010 C 
ENDBRANCH  11  16
BRANCH  15  18
HETATM   18  C   UNL     1      41.377 -18.050   1.547  1.00  0.00     0.036 C 
HETATM   19  C   UNL     1      41.661 -16.903   0.591  1.00  0.00     0.010 C 
ENDBRANCH  15  18
ENDBRANCH   1  10
BRANCH   4  20
HETATM   20  C   UNL     1      40.388 -12.780   4.736  1.00  0.00     0.014 A 
HETATM   21  C   UNL     1      39.652 -12.112   5.760  1.00  0.00     0.061 A 
HETATM   22  C   UNL     1      40.040 -11.849   7.167  1.00  0.00     0.073 C 
HETATM   23  N   UNL     1      38.461 -11.683   5.323  1.00  0.00    -0.179 NA
HETATM   24  N   UNL     1      38.445 -12.025   4.031  1.00  0.00    -0.282 N 
HETATM   25  H   UNL     1      37.635 -11.765   3.480  1.00  0.00     0.189 HD
HETATM   26  C   UNL     1      39.552 -12.713   3.630  1.00  0.00     0.034 A 
HETATM   27  C   UNL     1      39.713 -13.210   2.244  1.00  0.00     0.070 C 
ENDBRANCH   4  20
TORSDOF 4
ENDMDL
MODEL 6
REMARK VINA RESULT:      -7.3      2.369      3.160
REMARK  4 active torsions:
REMARK  status: ('A' for Active; 'I' for Inactive)
REMARK    1  A    between atoms: C_2  and  C_3 
REMARK    2  A    between atoms: C_4  and  N_5 
REMARK       I    between atoms: N_5  and  C_6 
REMARK       I    between atoms: C_6  and  N_7 
REMARK    3  A    between atoms: C_8  and  C_9 
REMARK    4  A    between atoms: C_21  and  C_22 
ROOT
HETATM    1  N   UNL     1      43.448 -15.502   4.432  1.00  0.00    -0.209 NA
HETATM    2  C   UNL     1      42.896 -14.779   3.408  1.00  0.00     0.301 C 
HETATM    3  N   UNL     1      41.609 -15.022   3.004  1.00  0.00    -0.330 N 
HETATM    4  C   UNL     1      40.980 -14.184   1.979  1.00  0.00     0.125 C 
HETATM    5  C   UNL     1      39.580 -14.782   1.787  1.00  0.00     0.032 C 
HETATM    6  C   UNL     1      39.776 -16.243   2.143  1.00  0.00     0.022 C 
HETATM    7  C   UNL     1      40.771 -16.180   3.293  1.00  0.00     0.128 C 
HETATM    8  O   UNL     1      43.579 -13.863   2.945  1.00  0.00    -0.254 OA
HETATM    9  H   UNL     1      44.376 -15.105   4.546  1.00  0.00     0.138 HD
ENDROOT
BRANCH   1  10
HETATM   10  C   UNL     1      43.508 -16.910   4.502  1.00  0.00     0.029 A 
HETATM   11  C   UNL     1      43.084 -17.593   5.670  1.00  0.00    -0.036 A 
HETATM   12  C   UNL     1      43.167 -18.995   5.709  1.00  0.00     0.009 A 
HETATM   13  C   UNL     1      43.611 -19.714   4.607  1.00  0.00     0.001 A 
HETATM   14  C   UNL     1      43.952 -19.041   3.439  1.00  0.00     0.009 A 
HETATM   15  C   UNL     1      43.901 -17.633   3.351  1.00  0.00    -0.036 A 
BRANCH  11  16
HETATM   16  C   UNL     1      42.491 -16.908   6.885  1.00  0.00     0.036 C 
HETATM   17  C   UNL     1      43.373 -17.020   8.120  1.00  0.00     0.010 C 
ENDBRANCH  11  16
BRANCH  15  18
HETATM   18  C   UNL     1      44.185 -17.065   1.971  1.00  0.00     0.036 C 
HETATM   19  C   UNL     1      43.265 -17.367   0.799  1.00  0.00     0.010 C 
ENDBRANCH  15  18
ENDBRANCH   1  10
BRANCH   4  20
HETATM   20  C   UNL     1      40.899 -12.726   2.327  1.00  0.00     0.014 A 
HETATM   21  C   UNL     1      40.335 -12.085   3.470  1.00  0.00     0.061 A 
HETATM   22  C   UNL     1      39.702 -12.696   4.664  1.00  0.00     0.073 C 
HETATM   23  N   UNL     1      40.428 -10.751   3.394  1.00  0.00    -0.179 NA
HETATM   24  N   UNL     1      41.080 -10.535   2.247  1.00  0.00    -0.282 N 
HETATM   25  H   UNL     1      41.295  -9.577   1.996  1.00  0.00     0.189 HD
HETATM   26  C   UNL     1      41.358 -11.673   1.550  1.00  0.00     0.034 A 
HETATM   27  C   UNL     1      42.046 -11.645   0.238  1.00  0.00     0.070 C 
ENDBRANCH   4  20
TORSDOF 4
ENDMDL
MODEL 7
REMARK VINA RESULT:      -7.3      1.894      3.668
REMARK  4 active torsions:
REMARK  status: ('A' for Active; 'I' for Inactive)
REMARK    1  A    between atoms: C_2  and  C_3 
REMARK    2  A    between atoms: C_4  and  N_5 
REMARK       I    between atoms: N_5  and  C_6 
REMARK       I    between atoms: C_6  and  N_7 
REMARK    3  A    between atoms: C_8  and  C_9 
REMARK    4  A    between atoms: C_21  and  C_22 
ROOT
HETATM    1  N   UNL     1      43.360 -16.034   2.588  1.00  0.00    -0.209 NA
HETATM    2  C   UNL     1      42.543 -15.955   1.492  1.00  0.00     0.301 C 
HETATM    3  N   UNL     1      41.347 -15.288   1.566  1.00  0.00    -0.330 N 
HETATM    4  C   UNL     1      40.516 -15.114   0.371  1.00  0.00     0.125 C 
HETATM    5  C   UNL     1      39.274 -14.360   0.862  1.00  0.00     0.032 C 
HETATM    6  C   UNL     1      39.159 -14.790   2.312  1.00  0.00     0.022 C 
HETATM    7  C   UNL     1      40.613 -14.873   2.756  1.00  0.00     0.128 C 
HETATM    8  O   UNL     1      42.977 -16.431   0.440  1.00  0.00    -0.254 OA
HETATM    9  H   UNL     1      44.175 -16.541   2.255  1.00  0.00     0.138 HD
ENDROOT
BRANCH   1  10
HETATM   10  C   UNL     1      42.979 -16.504   3.862  1.00  0.00     0.029 A 
HETATM   11  C   UNL     1      42.709 -17.880   4.074  1.00  0.00    -0.036 A 
HETATM   12  C   UNL     1      42.323 -18.311   5.354  1.00  0.00     0.009 A 
HETATM   13  C   UNL     1      42.248 -17.419   6.415  1.00  0.00     0.001 A 
HETATM   14  C   UNL     1      42.588 -16.085   6.216  1.00  0.00     0.009 A 
HETATM   15  C   UNL     1      42.969 -15.596   4.947  1.00  0.00    -0.036 A 
BRANCH  11  16
HETATM   16  C   UNL     1      42.859 -18.947   3.007  1.00  0.00     0.036 C 
HETATM   17  C   UNL     1      44.214 -19.639   3.046  1.00  0.00     0.010 C 
ENDBRANCH  11  16
BRANCH  15  18
HETATM   18  C   UNL     1      43.428 -14.148   4.928  1.00  0.00     0.036 C 
HETATM   19  C   UNL     1      42.486 -13.026   5.332  1.00  0.00     0.010 C 
ENDBRANCH  15  18
ENDBRANCH   1  10
BRANCH   4  20
HETATM   20  C   UNL     1      41.185 -14.376  -0.752  1.00  0.00     0.014 A 
HETATM   21  C   UNL     1      41.865 -13.121  -0.749  1.00  0.00     0.061 A 
HETATM   22  C   UNL     1      42.139 -12.211   0.390  1.00  0.00     0.073 C 
HETATM   23  N   UNL     1      42.296 -12.781  -1.970  1.00  0.00    -0.179 NA
HETATM   24  N   UNL     1      41.943 -13.816  -2.740  1.00  0.00    -0.282 N 
HETATM   25  H   UNL     1      42.202 -13.790  -3.720  1.00  0.00     0.189 HD
HETATM   26  C   UNL     1      41.246 -14.782  -2.077  1.00  0.00     0.034 A 
HETATM   27  C   UNL     1      40.736 -15.994  -2.758  1.00  0.00     0.070 C 
ENDBRANCH   4  20
TORSDOF 4
ENDMDL
MODEL 8
REMARK VINA RESULT:      -7.2      1.875      3.817
REMARK  4 active torsions:
REMARK  status: ('A' for Active; 'I' for Inactive)
REMARK    1  A    between atoms: C_2  and  C_3 
REMARK    2  A    between atoms: C_4  and  N_5 
REMARK       I    between atoms: N_5  and  C_6 
REMARK       I    between atoms: C_6  and  N_7 
REMARK    3  A    between atoms: C_8  and  C_9 
REMARK    4  A    between atoms: C_21  and  C_22 
ROOT
HETATM    1  N   UNL     1      43.321 -16.045   2.477  1.00  0.00    -0.209 NA
HETATM    2  C   UNL     1      42.480 -15.956   1.400  1.00  0.00     0.301 C 
HETATM    3  N   UNL     1      41.291 -15.280   1.504  1.00  0.00    -0.330 N 
HETATM    4  C   UNL     1      40.435 -15.096   0.328  1.00  0.00     0.125 C 
HETATM    5  C   UNL     1      39.210 -14.333   0.850  1.00  0.00     0.032 C 
HETATM    6  C   UNL     1      39.126 -14.766   2.301  1.00  0.00     0.022 C 
HETATM    7  C   UNL     1      40.588 -14.863   2.711  1.00  0.00     0.128 C 
HETATM    8  O   UNL     1      42.885 -16.433   0.338  1.00  0.00    -0.254 OA
HETATM    9  H   UNL     1      44.124 -16.558   2.124  1.00  0.00     0.138 HD
ENDROOT
BRANCH   1  10
HETATM   10  C   UNL     1      42.966 -16.516   3.759  1.00  0.00     0.029 A 
HETATM   11  C   UNL     1      42.696 -17.891   3.974  1.00  0.00    -0.036 A 
HETATM   12  C   UNL     1      42.336 -18.322   5.262  1.00  0.00     0.009 A 
HETATM   13  C   UNL     1      42.286 -17.431   6.325  1.00  0.00     0.001 A 
HETATM   14  C   UNL     1      42.626 -16.098   6.120  1.00  0.00     0.009 A 
HETATM   15  C   UNL     1      42.981 -15.609   4.844  1.00  0.00    -0.036 A 
BRANCH  11  16
HETATM   16  C   UNL     1      42.821 -18.957   2.904  1.00  0.00     0.036 C 
HETATM   17  C   UNL     1      44.204 -19.590   2.854  1.00  0.00     0.010 C 
ENDBRANCH  11  16
BRANCH  15  18
HETATM   18  C   UNL     1      43.443 -14.162   4.817  1.00  0.00     0.036 C 
HETATM   19  C   UNL     1      42.527 -13.041   5.280  1.00  0.00     0.010 C 
ENDBRANCH  15  18
ENDBRANCH   1  10
BRANCH   4  20
HETATM   20  C   UNL     1      41.083 -14.360  -0.807  1.00  0.00     0.014 A 
HETATM   21  C   UNL     1      41.179 -14.704  -2.189  1.00  0.00     0.061 A 
HETATM   22  C   UNL     1      40.619 -15.880  -2.899  1.00  0.00     0.073 C 
HETATM   23  N   UNL     1      41.877 -13.797  -2.885  1.00  0.00    -0.179 NA
HETATM   24  N   UNL     1      42.187 -12.861  -1.982  1.00  0.00    -0.282 N 
HETATM   25  H   UNL     1      42.698 -12.045  -2.298  1.00  0.00     0.189 HD
HETATM   26  C   UNL     1      41.771 -13.158  -0.718  1.00  0.00     0.034 A 
HETATM   27  C   UNL     1      42.044 -12.266   0.432  1.00  0.00     0.070 C 
ENDBRANCH   4  20
TORSDOF 4
ENDMDL
MODEL 9
REMARK VINA RESULT:      -7.2      1.703      2.551
REMARK  4 active torsions:
REMARK  status: ('A' for Active; 'I' for Inactive)
REMARK    1  A    between atoms: C_2  and  C_3 
REMARK    2  A    between atoms: C_4  and  N_5 
REMARK       I    between atoms: N_5  and  C_6 
REMARK       I    between atoms: C_6  and  N_7 
REMARK    3  A    between atoms: C_8  and  C_9 
REMARK    4  A    between atoms: C_21  and  C_22 
ROOT
HETATM    1  N   UNL     1      41.530 -17.582   4.268  1.00  0.00    -0.209 NA
HETATM    2  C   UNL     1      41.239 -16.246   4.341  1.00  0.00     0.301 C 
HETATM    3  N   UNL     1      42.077 -15.322   3.771  1.00  0.00    -0.330 N 
HETATM    4  C   UNL     1      41.720 -13.901   3.759  1.00  0.00     0.125 C 
HETATM    5  C   UNL     1      42.903 -13.204   3.073  1.00  0.00     0.032 C 
HETATM    6  C   UNL     1      44.073 -14.111   3.397  1.00  0.00     0.022 C 
HETATM    7  C   UNL     1      43.454 -15.500   3.327  1.00  0.00     0.128 C 
HETATM    8  O   UNL     1      40.163 -15.939   4.860  1.00  0.00    -0.254 OA
HETATM    9  H   UNL     1      40.747 -18.033   4.731  1.00  0.00     0.138 HD
ENDROOT
BRANCH   1  10
HETATM   10  C   UNL     1      42.744 -18.180   4.668  1.00  0.00     0.029 A 
HETATM   11  C   UNL     1      43.207 -18.053   6.002  1.00  0.00    -0.036 A 
HETATM   12  C   UNL     1      44.425 -18.654   6.362  1.00  0.00     0.009 A 
HETATM   13  C   UNL     1      45.150 -19.402   5.445  1.00  0.00     0.001 A 
HETATM   14  C   UNL     1      44.651 -19.584   4.159  1.00  0.00     0.009 A 
HETATM   15  C   UNL     1      43.440 -18.991   3.741  1.00  0.00    -0.036 A 
BRANCH  11  16
HETATM   16  C   UNL     1      42.440 -17.344   7.101  1.00  0.00     0.036 C 
HETATM   17  C   UNL     1      43.281 -17.095   8.345  1.00  0.00     0.010 C 
ENDBRANCH  11  16
BRANCH  15  18
HETATM   18  C   UNL     1      42.975 -19.391   2.351  1.00  0.00     0.036 C 
HETATM   19  C   UNL     1      43.406 -20.711   1.734  1.00  0.00     0.010 C 
ENDBRANCH  15  18
ENDBRANCH   1  10
BRANCH   4  20
HETATM   20  C   UNL     1      40.431 -13.587   3.057  1.00  0.00     0.014 A 
HETATM   21  C   UNL     1      39.933 -14.047   1.801  1.00  0.00     0.061 A 
HETATM   22  C   UNL     1      40.544 -15.009   0.852  1.00  0.00     0.073 C 
HETATM   23  N   UNL     1      38.746 -13.504   1.502  1.00  0.00    -0.179 NA
HETATM   24  N   UNL     1      38.459 -12.744   2.564  1.00  0.00    -0.282 N 
HETATM   25  H   UNL     1      37.572 -12.252   2.571  1.00  0.00     0.189 HD
HETATM   26  C   UNL     1      39.441 -12.725   3.509  1.00  0.00     0.034 A 
HETATM   27  C   UNL     1      39.331 -11.918   4.746  1.00  0.00     0.070 C 
ENDBRANCH   4  20
TORSDOF 4
ENDMDL
MODEL 10
REMARK VINA RESULT:      -7.2      2.149      4.436
REMARK  4 active torsions:
REMARK  status: ('A' for Active; 'I' for Inactive)
REMARK    1  A    between atoms: C_2  and  C_3 
REMARK    2  A    between atoms: C_4  and  N_5 
REMARK       I    between atoms: N_5  and  C_6 
REMARK       I    between atoms: C_6  and  N_7 
REMARK    3  A    between atoms: C_8  and  C_9 
REMARK    4  A    between atoms: C_21  and  C_22 
ROOT
HETATM    1  N   UNL     1      44.731 -18.491   3.669  1.00  0.00    -0.209 NA
HETATM    2  C   UNL     1      43.718 -17.806   3.052  1.00  0.00     0.301 C 
HETATM    3  N   UNL     1      42.596 -17.447   3.754  1.00  0.00    -0.330 N 
HETATM    4  C   UNL     1      41.556 -16.627   3.125  1.00  0.00     0.125 C 
HETATM    5  C   UNL     1      40.476 -16.469   4.204  1.00  0.00     0.032 C 
HETATM    6  C   UNL     1      40.629 -17.729   5.033  1.00  0.00     0.022 C 
HETATM    7  C   UNL     1      42.135 -17.947   5.043  1.00  0.00     0.128 C 
HETATM    8  O   UNL     1      43.910 -17.466   1.882  1.00  0.00    -0.254 OA
HETATM    9  H   UNL     1      45.436 -18.598   2.947  1.00  0.00     0.138 HD
ENDROOT
BRANCH   1  10
HETATM   10  C   UNL     1      44.585 -19.694   4.392  1.00  0.00     0.029 A 
HETATM   11  C   UNL     1      44.550 -20.941   3.718  1.00  0.00    -0.036 A 
HETATM   12  C   UNL     1      44.394 -22.119   4.469  1.00  0.00     0.009 A 
HETATM   13  C   UNL     1      44.323 -22.077   5.854  1.00  0.00     0.001 A 
HETATM   14  C   UNL     1      44.435 -20.856   6.512  1.00  0.00     0.009 A 
HETATM   15  C   UNL     1      44.577 -19.642   5.805  1.00  0.00    -0.036 A 
BRANCH  11  16
HETATM   16  C   UNL     1      44.721 -21.101   2.220  1.00  0.00     0.036 C 
HETATM   17  C   UNL     1      43.551 -21.817   1.562  1.00  0.00     0.010 C 
ENDBRANCH  11  16
BRANCH  15  18
HETATM   18  C   UNL     1      44.811 -18.418   6.673  1.00  0.00     0.036 C 
HETATM   19  C   UNL     1      44.117 -18.270   8.017  1.00  0.00     0.010 C 
ENDBRANCH  15  18
ENDBRANCH   1  10
BRANCH   4  20
HETATM   20  C   UNL     1      42.027 -15.289   2.635  1.00  0.00     0.014 A 
HETATM   21  C   UNL     1      42.792 -14.285   3.300  1.00  0.00     0.061 A 
HETATM   22  C   UNL     1      43.376 -14.307   4.663  1.00  0.00     0.073 C 
HETATM   23  N   UNL     1      42.978 -13.204   2.531  1.00  0.00    -0.179 NA
HETATM   24  N   UNL     1      42.385 -13.521   1.375  1.00  0.00    -0.282 N 
HETATM   25  H   UNL     1      42.429 -12.849   0.617  1.00  0.00     0.189 HD
HETATM   26  C   UNL     1      41.770 -14.738   1.388  1.00  0.00     0.034 A 
HETATM   27  C   UNL     1      41.029 -15.259   0.216  1.00  0.00     0.070 C 
ENDBRANCH   4  20
TORSDOF 4
ENDMDL
