MODEL 1
REMARK VINA RESULT:      -8.1      0.000      0.000
REMARK  4 active torsions:
REMARK  status: ('A' for Active; 'I' for Inactive)
REMARK    1  A    between atoms: C_2  and  N_3 
REMARK    2  A    between atoms: C_4  and  C_5 
REMARK    3  A    between atoms: C_6  and  O_7 
REMARK    4  A    between atoms: C_19  and  C_20 
REMARK       I    between atoms: C_20  and  N_21 
ROOT
HETATM    1  C   UNL     1      39.423 -15.074   1.952  1.00  0.00     0.034 A 
HETATM    2  C   UNL     1      40.521 -15.792   1.459  1.00  0.00     0.057 A 
HETATM    3  C   UNL     1      41.001 -15.526   0.170  1.00  0.00     0.048 A 
HETATM    4  C   UNL     1      40.363 -14.554  -0.626  1.00  0.00     0.030 A 
HETATM    5  C   UNL     1      39.264 -13.881  -0.107  1.00  0.00     0.063 A 
HETATM    6  N   UNL     1      38.871 -13.018  -1.091  1.00  0.00    -0.277 N 
HETATM    7  H   UNL     1      38.097 -12.363  -1.062  1.00  0.00     0.189 HD
HETATM    8  N   UNL     1      39.625 -13.061  -2.204  1.00  0.00    -0.168 NA
HETATM    9  C   UNL     1      40.553 -14.005  -1.929  1.00  0.00     0.156 A 
HETATM   10  C   UNL     1      38.762 -14.114   1.176  1.00  0.00     0.034 A 
ENDROOT
BRANCH   2  11
HETATM   11  N   UNL     1      41.210 -16.725   2.250  1.00  0.00    -0.260 NA
HETATM   12  C   UNL     1      42.354 -17.153   1.814  1.00  0.00     0.131 C 
BRANCH  12  13
HETATM   13  C   UNL     1      43.139 -18.139   2.585  1.00  0.00     0.016 A 
HETATM   14  C   UNL     1      43.636 -17.854   3.862  1.00  0.00     0.077 A 
HETATM   15  C   UNL     1      44.376 -18.805   4.560  1.00  0.00     0.039 A 
HETATM   16  C   UNL     1      44.614 -20.056   3.987  1.00  0.00     0.022 A 
HETATM   17  C   UNL     1      44.112 -20.341   2.716  1.00  0.00     0.012 A 
HETATM   18 BR   UNL     1      44.427 -22.041   1.948  1.00  0.00    -0.051 Br
HETATM   19  C   UNL     1      43.379 -19.389   2.006  1.00  0.00     0.034 A 
BRANCH  14  20
HETATM   20  O   UNL     1      43.437 -16.655   4.489  1.00  0.00    -0.360 OA
HETATM   21  H   UNL     1      43.996 -16.652   5.300  1.00  0.00     0.217 HD
ENDBRANCH  14  20
ENDBRANCH  12  13
ENDBRANCH   2  11
BRANCH   9  22
HETATM   22  C   UNL     1      41.599 -14.354  -2.900  1.00  0.00     0.270 C 
HETATM   23  N   UNL     1      42.684 -13.520  -2.877  1.00  0.00    -0.365 N 
HETATM   24  H   UNL     1      42.696 -12.759  -2.210  1.00  0.00     0.159 HD
HETATM   25  H   UNL     1      43.463 -13.697  -3.491  1.00  0.00     0.159 HD
HETATM   26  O   UNL     1      41.543 -15.305  -3.673  1.00  0.00    -0.266 OA
ENDBRANCH   9  22
TORSDOF 4
ENDMDL
MODEL 2
REMARK VINA RESULT:      -7.6      1.727      2.008
REMARK  4 active torsions:
REMARK  status: ('A' for Active; 'I' for Inactive)
REMARK    1  A    between atoms: C_2  and  N_3 
REMARK    2  A    between atoms: C_4  and  C_5 
REMARK    3  A    between atoms: C_6  and  O_7 
REMARK    4  A    between atoms: C_19  and  C_20 
REMARK       I    between atoms: C_20  and  N_21 
ROOT
HETATM    1  C   UNL     1      39.670 -15.440   1.980  1.00  0.00     0.034 A 
HETATM    2  C   UNL     1      40.699 -16.164   1.363  1.00  0.00     0.057 A 
HETATM    3  C   UNL     1      41.136 -15.796   0.085  1.00  0.00     0.048 A 
HETATM    4  C   UNL     1      40.523 -14.713  -0.578  1.00  0.00     0.030 A 
HETATM    5  C   UNL     1      39.492 -14.036   0.062  1.00  0.00     0.063 A 
HETATM    6  N   UNL     1      39.109 -13.056  -0.811  1.00  0.00    -0.277 N 
HETATM    7  H   UNL     1      38.379 -12.365  -0.677  1.00  0.00     0.189 HD
HETATM    8  N   UNL     1      39.808 -13.027  -1.959  1.00  0.00    -0.168 NA
HETATM    9  C   UNL     1      40.688 -14.045  -1.827  1.00  0.00     0.156 A 
HETATM   10  C   UNL     1      39.035 -14.371   1.339  1.00  0.00     0.034 A 
ENDROOT
BRANCH   2  11
HETATM   11  N   UNL     1      41.365 -17.211   2.022  1.00  0.00    -0.260 NA
HETATM   12  C   UNL     1      42.336 -16.896   2.821  1.00  0.00     0.131 C 
BRANCH  12  13
HETATM   13  C   UNL     1      43.090 -17.939   3.547  1.00  0.00     0.016 A 
HETATM   14  C   UNL     1      43.717 -18.998   2.880  1.00  0.00     0.077 A 
HETATM   15  C   UNL     1      44.415 -19.967   3.596  1.00  0.00     0.039 A 
HETATM   16  C   UNL     1      44.501 -19.876   4.986  1.00  0.00     0.022 A 
HETATM   17  C   UNL     1      43.881 -18.816   5.649  1.00  0.00     0.012 A 
HETATM   18 BR   UNL     1      44.009 -18.689   7.532  1.00  0.00    -0.051 Br
HETATM   19  C   UNL     1      43.170 -17.847   4.940  1.00  0.00     0.034 A 
BRANCH  14  20
HETATM   20  O   UNL     1      43.681 -19.149   1.521  1.00  0.00    -0.360 OA
HETATM   21  H   UNL     1      43.868 -18.266   1.124  1.00  0.00     0.217 HD
ENDBRANCH  14  20
ENDBRANCH  12  13
ENDBRANCH   2  11
BRANCH   9  22
HETATM   22  C   UNL     1      41.667 -14.351  -2.879  1.00  0.00     0.270 C 
HETATM   23  N   UNL     1      42.760 -13.527  -2.884  1.00  0.00    -0.365 N 
HETATM   24  H   UNL     1      42.823 -12.802  -2.180  1.00  0.00     0.159 HD
HETATM   25  H   UNL     1      43.497 -13.678  -3.554  1.00  0.00     0.159 HD
HETATM   26  O   UNL     1      41.552 -15.260  -3.695  1.00  0.00    -0.266 OA
ENDBRANCH   9  22
TORSDOF 4
ENDMDL
MODEL 3
REMARK VINA RESULT:      -7.5      3.614      8.113
REMARK  4 active torsions:
REMARK  status: ('A' for Active; 'I' for Inactive)
REMARK    1  A    between atoms: C_2  and  N_3 
REMARK    2  A    between atoms: C_4  and  C_5 
REMARK    3  A    between atoms: C_6  and  O_7 
REMARK    4  A    between atoms: C_19  and  C_20 
REMARK       I    between atoms: C_20  and  N_21 
ROOT
HETATM    1  C   UNL     1      43.040 -18.864   2.029  1.00  0.00     0.034 A 
HETATM    2  C   UNL     1      42.126 -18.001   2.648  1.00  0.00     0.057 A 
HETATM    3  C   UNL     1      42.188 -17.802   4.033  1.00  0.00     0.048 A 
HETATM    4  C   UNL     1      43.155 -18.489   4.794  1.00  0.00     0.030 A 
HETATM    5  C   UNL     1      44.028 -19.352   4.144  1.00  0.00     0.063 A 
HETATM    6  N   UNL     1      44.834 -19.858   5.126  1.00  0.00    -0.277 N 
HETATM    7  H   UNL     1      45.592 -20.522   5.017  1.00  0.00     0.189 HD
HETATM    8  N   UNL     1      44.570 -19.390   6.358  1.00  0.00    -0.168 NA
HETATM    9  C   UNL     1      43.536 -18.540   6.168  1.00  0.00     0.156 A 
HETATM   10  C   UNL     1      44.000 -19.569   2.764  1.00  0.00     0.034 A 
ENDROOT
BRANCH   2  11
HETATM   11  N   UNL     1      41.189 -17.262   1.907  1.00  0.00    -0.260 NA
HETATM   12  C   UNL     1      41.584 -16.140   1.390  1.00  0.00     0.131 C 
BRANCH  12  13
HETATM   13  C   UNL     1      40.657 -15.301   0.602  1.00  0.00     0.016 A 
HETATM   14  C   UNL     1      39.447 -14.837   1.131  1.00  0.00     0.077 A 
HETATM   15  C   UNL     1      38.595 -14.052   0.359  1.00  0.00     0.039 A 
HETATM   16  C   UNL     1      38.954 -13.716  -0.948  1.00  0.00     0.022 A 
HETATM   17  C   UNL     1      40.162 -14.175  -1.472  1.00  0.00     0.012 A 
HETATM   18 BR   UNL     1      40.651 -13.708  -3.239  1.00  0.00    -0.051 Br
HETATM   19  C   UNL     1      41.018 -14.971  -0.708  1.00  0.00     0.034 A 
BRANCH  14  20
HETATM   20  O   UNL     1      39.033 -15.119   2.404  1.00  0.00    -0.360 OA
HETATM   21  H   UNL     1      38.055 -15.002   2.426  1.00  0.00     0.217 HD
ENDBRANCH  14  20
ENDBRANCH  12  13
ENDBRANCH   2  11
BRANCH   9  22
HETATM   22  C   UNL     1      42.944 -17.793   7.286  1.00  0.00     0.270 C 
HETATM   23  N   UNL     1      43.589 -17.969   8.480  1.00  0.00    -0.365 N 
HETATM   24  H   UNL     1      44.407 -18.566   8.506  1.00  0.00     0.159 HD
HETATM   25  H   UNL     1      43.269 -17.475   9.298  1.00  0.00     0.159 HD
HETATM   26  O   UNL     1      41.962 -17.063   7.194  1.00  0.00    -0.266 OA
ENDBRANCH   9  22
TORSDOF 4
ENDMDL
MODEL 4
REMARK VINA RESULT:      -7.5      3.636      5.042
REMARK  4 active torsions:
REMARK  status: ('A' for Active; 'I' for Inactive)
REMARK    1  A    between atoms: C_2  and  N_3 
REMARK    2  A    between atoms: C_4  and  C_5 
REMARK    3  A    between atoms: C_6  and  O_7 
REMARK    4  A    between atoms: C_19  and  C_20 
REMARK       I    between atoms: C_20  and  N_21 
ROOT
HETATM    1  C   UNL     1      40.354 -15.385   2.508  1.00  0.00     0.034 A 
HETATM    2  C   UNL     1      40.913 -15.572   3.778  1.00  0.00     0.057 A 
HETATM    3  C   UNL     1      40.698 -14.614   4.778  1.00  0.00     0.048 A 
HETATM    4  C   UNL     1      39.940 -13.462   4.490  1.00  0.00     0.030 A 
HETATM    5  C   UNL     1      39.422 -13.306   3.211  1.00  0.00     0.063 A 
HETATM    6  N   UNL     1      38.745 -12.118   3.238  1.00  0.00    -0.277 N 
HETATM    7  H   UNL     1      38.238 -11.682   2.476  1.00  0.00     0.189 HD
HETATM    8  N   UNL     1      38.767 -11.492   4.427  1.00  0.00    -0.168 NA
HETATM    9  C   UNL     1      39.500 -12.313   5.212  1.00  0.00     0.156 A 
HETATM   10  C   UNL     1      39.609 -14.242   2.191  1.00  0.00     0.034 A 
ENDROOT
BRANCH   2  11
HETATM   11  N   UNL     1      41.625 -16.736   4.109  1.00  0.00    -0.260 NA
HETATM   12  C   UNL     1      42.637 -17.053   3.362  1.00  0.00     0.131 C 
BRANCH  12  13
HETATM   13  C   UNL     1      43.434 -18.266   3.641  1.00  0.00     0.016 A 
HETATM   14  C   UNL     1      44.165 -18.415   4.825  1.00  0.00     0.077 A 
HETATM   15  C   UNL     1      44.910 -19.569   5.053  1.00  0.00     0.039 A 
HETATM   16  C   UNL     1      44.919 -20.589   4.100  1.00  0.00     0.022 A 
HETATM   17  C   UNL     1      44.185 -20.442   2.923  1.00  0.00     0.012 A 
HETATM   18 BR   UNL     1      44.190 -21.830   1.639  1.00  0.00    -0.051 Br
HETATM   19  C   UNL     1      43.444 -19.283   2.682  1.00  0.00     0.034 A 
BRANCH  14  20
HETATM   20  O   UNL     1      44.197 -17.462   5.806  1.00  0.00    -0.360 OA
HETATM   21  H   UNL     1      45.104 -17.470   6.192  1.00  0.00     0.217 HD
ENDBRANCH  14  20
ENDBRANCH  12  13
ENDBRANCH   2  11
BRANCH   9  22
HETATM   22  C   UNL     1      39.755 -11.995   6.624  1.00  0.00     0.270 C 
HETATM   23  N   UNL     1      39.197 -12.880   7.506  1.00  0.00    -0.365 N 
HETATM   24  H   UNL     1      38.679 -13.669   7.139  1.00  0.00     0.159 HD
HETATM   25  H   UNL     1      39.341 -12.757   8.495  1.00  0.00     0.159 HD
HETATM   26  O   UNL     1      40.411 -11.035   7.014  1.00  0.00    -0.266 OA
ENDBRANCH   9  22
TORSDOF 4
ENDMDL
MODEL 5
REMARK VINA RESULT:      -7.4      3.662      7.649
REMARK  4 active torsions:
REMARK  status: ('A' for Active; 'I' for Inactive)
REMARK    1  A    between atoms: C_2  and  N_3 
REMARK    2  A    between atoms: C_4  and  C_5 
REMARK    3  A    between atoms: C_6  and  O_7 
REMARK    4  A    between atoms: C_19  and  C_20 
REMARK       I    between atoms: C_20  and  N_21 
ROOT
HETATM    1  C   UNL     1      43.489 -17.104   4.767  1.00  0.00     0.034 A 
HETATM    2  C   UNL     1      43.064 -17.335   3.452  1.00  0.00     0.057 A 
HETATM    3  C   UNL     1      43.281 -18.587   2.864  1.00  0.00     0.048 A 
HETATM    4  C   UNL     1      43.943 -19.596   3.592  1.00  0.00     0.030 A 
HETATM    5  C   UNL     1      44.367 -19.317   4.886  1.00  0.00     0.063 A 
HETATM    6  N   UNL     1      44.960 -20.467   5.327  1.00  0.00    -0.277 N 
HETATM    7  H   UNL     1      45.385 -20.631   6.233  1.00  0.00     0.189 HD
HETATM    8  N   UNL     1      44.950 -21.475   4.438  1.00  0.00    -0.168 NA
HETATM    9  C   UNL     1      44.322 -20.952   3.362  1.00  0.00     0.156 A 
HETATM   10  C   UNL     1      44.161 -18.083   5.508  1.00  0.00     0.034 A 
ENDROOT
BRANCH   2  11
HETATM   11  N   UNL     1      42.354 -16.367   2.723  1.00  0.00    -0.260 NA
HETATM   12  C   UNL     1      41.669 -16.771   1.699  1.00  0.00     0.131 C 
BRANCH  12  13
HETATM   13  C   UNL     1      40.899 -15.815   0.877  1.00  0.00     0.016 A 
HETATM   14  C   UNL     1      39.807 -15.107   1.394  1.00  0.00     0.077 A 
HETATM   15  C   UNL     1      39.100 -14.216   0.590  1.00  0.00     0.039 A 
HETATM   16  C   UNL     1      39.489 -14.020  -0.737  1.00  0.00     0.022 A 
HETATM   17  C   UNL     1      40.580 -14.722  -1.249  1.00  0.00     0.012 A 
HETATM   18 BR   UNL     1      41.111 -14.445  -3.043  1.00  0.00    -0.051 Br
HETATM   19  C   UNL     1      41.288 -15.624  -0.453  1.00  0.00     0.034 A 
BRANCH  14  20
HETATM   20  O   UNL     1      39.374 -15.242   2.684  1.00  0.00    -0.360 OA
HETATM   21  H   UNL     1      40.073 -15.731   3.177  1.00  0.00     0.217 HD
ENDBRANCH  14  20
ENDBRANCH  12  13
ENDBRANCH   2  11
BRANCH   9  22
HETATM   22  C   UNL     1      44.087 -21.749   2.150  1.00  0.00     0.270 C 
HETATM   23  N   UNL     1      42.839 -21.591   1.610  1.00  0.00    -0.365 N 
HETATM   24  H   UNL     1      42.195 -20.951   2.057  1.00  0.00     0.159 HD
HETATM   25  H   UNL     1      42.596 -22.079   0.762  1.00  0.00     0.159 HD
HETATM   26  O   UNL     1      44.914 -22.495   1.636  1.00  0.00    -0.266 OA
ENDBRANCH   9  22
TORSDOF 4
ENDMDL
MODEL 6
REMARK VINA RESULT:      -7.2      3.655      8.238
REMARK  4 active torsions:
REMARK  status: ('A' for Active; 'I' for Inactive)
REMARK    1  A    between atoms: C_2  and  N_3 
REMARK    2  A    between atoms: C_4  and  C_5 
REMARK    3  A    between atoms: C_6  and  O_7 
REMARK    4  A    between atoms: C_19  and  C_20 
REMARK       I    between atoms: C_20  and  N_21 
ROOT
HETATM    1  C   UNL     1      43.251 -18.810   1.980  1.00  0.00     0.034 A 
HETATM    2  C   UNL     1      42.322 -17.900   2.501  1.00  0.00     0.057 A 
HETATM    3  C   UNL     1      42.266 -17.680   3.883  1.00  0.00     0.048 A 
HETATM    4  C   UNL     1      43.131 -18.392   4.738  1.00  0.00     0.030 A 
HETATM    5  C   UNL     1      44.022 -19.301   4.181  1.00  0.00     0.063 A 
HETATM    6  N   UNL     1      44.714 -19.822   5.240  1.00  0.00    -0.277 N 
HETATM    7  H   UNL     1      45.450 -20.518   5.209  1.00  0.00     0.189 HD
HETATM    8  N   UNL     1      44.360 -19.323   6.436  1.00  0.00    -0.168 NA
HETATM    9  C   UNL     1      43.384 -18.436   6.141  1.00  0.00     0.156 A 
HETATM   10  C   UNL     1      44.110 -19.541   2.808  1.00  0.00     0.034 A 
ENDROOT
BRANCH   2  11
HETATM   11  N   UNL     1      41.487 -17.136   1.668  1.00  0.00    -0.260 NA
HETATM   12  C   UNL     1      41.639 -15.848   1.685  1.00  0.00     0.131 C 
BRANCH  12  13
HETATM   13  C   UNL     1      40.797 -14.974   0.842  1.00  0.00     0.016 A 
HETATM   14  C   UNL     1      40.833 -15.037  -0.556  1.00  0.00     0.077 A 
HETATM   15  C   UNL     1      40.029 -14.195  -1.320  1.00  0.00     0.039 A 
HETATM   16  C   UNL     1      39.173 -13.291  -0.688  1.00  0.00     0.022 A 
HETATM   17  C   UNL     1      39.133 -13.235   0.705  1.00  0.00     0.012 A 
HETATM   18 BR   UNL     1      37.963 -12.018   1.557  1.00  0.00    -0.051 Br
HETATM   19  C   UNL     1      39.943 -14.068   1.478  1.00  0.00     0.034 A 
BRANCH  14  20
HETATM   20  O   UNL     1      41.641 -15.900  -1.243  1.00  0.00    -0.360 OA
HETATM   21  H   UNL     1      42.242 -16.324  -0.587  1.00  0.00     0.217 HD
ENDBRANCH  14  20
ENDBRANCH  12  13
ENDBRANCH   2  11
BRANCH   9  22
HETATM   22  C   UNL     1      42.724 -17.646   7.191  1.00  0.00     0.270 C 
HETATM   23  N   UNL     1      43.362 -17.682   8.401  1.00  0.00    -0.365 N 
HETATM   24  H   UNL     1      44.218 -18.217   8.483  1.00  0.00     0.159 HD
HETATM   25  H   UNL     1      42.996 -17.150   9.175  1.00  0.00     0.159 HD
HETATM   26  O   UNL     1      41.697 -16.996   7.031  1.00  0.00    -0.266 OA
ENDBRANCH   9  22
TORSDOF 4
ENDMDL
MODEL 7
REMARK VINA RESULT:      -7.2      4.806      8.146
REMARK  4 active torsions:
REMARK  status: ('A' for Active; 'I' for Inactive)
REMARK    1  A    between atoms: C_2  and  N_3 
REMARK    2  A    between atoms: C_4  and  C_5 
REMARK    3  A    between atoms: C_6  and  O_7 
REMARK    4  A    between atoms: C_19  and  C_20 
REMARK       I    between atoms: C_20  and  N_21 
ROOT
HETATM    1  C   UNL     1      42.474 -17.693   1.726  1.00  0.00     0.034 A 
HETATM    2  C   UNL     1      42.117 -17.100   2.944  1.00  0.00     0.057 A 
HETATM    3  C   UNL     1      42.659 -17.590   4.138  1.00  0.00     0.048 A 
HETATM    4  C   UNL     1      43.542 -18.688   4.107  1.00  0.00     0.030 A 
HETATM    5  C   UNL     1      43.852 -19.260   2.879  1.00  0.00     0.063 A 
HETATM    6  N   UNL     1      44.715 -20.281   3.165  1.00  0.00    -0.277 N 
HETATM    7  H   UNL     1      45.151 -20.919   2.508  1.00  0.00     0.189 HD
HETATM    8  N   UNL     1      45.004 -20.418   4.471  1.00  0.00    -0.168 NA
HETATM    9  C   UNL     1      44.288 -19.437   5.064  1.00  0.00     0.156 A 
HETATM   10  C   UNL     1      43.336 -18.794   1.667  1.00  0.00     0.034 A 
ENDROOT
BRANCH   2  11
HETATM   11  N   UNL     1      41.285 -15.970   3.000  1.00  0.00    -0.260 NA
HETATM   12  C   UNL     1      41.278 -15.284   4.101  1.00  0.00     0.131 C 
BRANCH  12  13
HETATM   13  C   UNL     1      40.425 -14.086   4.243  1.00  0.00     0.016 A 
HETATM   14  C   UNL     1      39.914 -13.684   5.482  1.00  0.00     0.077 A 
HETATM   15  C   UNL     1      39.110 -12.551   5.579  1.00  0.00     0.039 A 
HETATM   16  C   UNL     1      38.820 -11.805   4.435  1.00  0.00     0.022 A 
HETATM   17  C   UNL     1      39.335 -12.204   3.201  1.00  0.00     0.012 A 
HETATM   18 BR   UNL     1      38.950 -11.185   1.655  1.00  0.00    -0.051 Br
HETATM   19  C   UNL     1      40.134 -13.344   3.094  1.00  0.00     0.034 A 
BRANCH  14  20
HETATM   20  O   UNL     1      40.161 -14.359   6.645  1.00  0.00    -0.360 OA
HETATM   21  H   UNL     1      39.327 -14.818   6.900  1.00  0.00     0.217 HD
ENDBRANCH  14  20
ENDBRANCH  12  13
ENDBRANCH   2  11
BRANCH   9  22
HETATM   22  C   UNL     1      44.335 -19.228   6.518  1.00  0.00     0.270 C 
HETATM   23  N   UNL     1      45.142 -18.194   6.908  1.00  0.00    -0.365 N 
HETATM   24  H   UNL     1      45.620 -17.656   6.195  1.00  0.00     0.159 HD
HETATM   25  H   UNL     1      45.217 -17.959   7.885  1.00  0.00     0.159 HD
HETATM   26  O   UNL     1      43.716 -19.896   7.339  1.00  0.00    -0.266 OA
ENDBRANCH   9  22
TORSDOF 4
ENDMDL
MODEL 8
REMARK VINA RESULT:      -7.1      3.780      7.939
REMARK  4 active torsions:
REMARK  status: ('A' for Active; 'I' for Inactive)
REMARK    1  A    between atoms: C_2  and  N_3 
REMARK    2  A    between atoms: C_4  and  C_5 
REMARK    3  A    between atoms: C_6  and  O_7 
REMARK    4  A    between atoms: C_19  and  C_20 
REMARK       I    between atoms: C_20  and  N_21 
ROOT
HETATM    1  C   UNL     1      42.891 -16.531   3.587  1.00  0.00     0.034 A 
HETATM    2  C   UNL     1      42.598 -17.250   2.421  1.00  0.00     0.057 A 
HETATM    3  C   UNL     1      43.044 -18.572   2.292  1.00  0.00     0.048 A 
HETATM    4  C   UNL     1      43.800 -19.159   3.326  1.00  0.00     0.030 A 
HETATM    5  C   UNL     1      44.085 -18.403   4.456  1.00  0.00     0.063 A 
HETATM    6  N   UNL     1      44.815 -19.227   5.267  1.00  0.00    -0.277 N 
HETATM    7  H   UNL     1      45.196 -19.010   6.181  1.00  0.00     0.189 HD
HETATM    8  N   UNL     1      45.020 -20.459   4.769  1.00  0.00    -0.168 NA
HETATM    9  C   UNL     1      44.395 -20.432   3.570  1.00  0.00     0.156 A 
HETATM   10  C   UNL     1      43.652 -17.085   4.623  1.00  0.00     0.034 A 
ENDROOT
BRANCH   2  11
HETATM   11  N   UNL     1      41.801 -16.710   1.399  1.00  0.00    -0.260 NA
HETATM   12  C   UNL     1      41.322 -15.518   1.578  1.00  0.00     0.131 C 
BRANCH  12  13
HETATM   13  C   UNL     1      40.470 -14.881   0.553  1.00  0.00     0.016 A 
HETATM   14  C   UNL     1      40.730 -15.020  -0.816  1.00  0.00     0.077 A 
HETATM   15  C   UNL     1      39.908 -14.402  -1.755  1.00  0.00     0.039 A 
HETATM   16  C   UNL     1      38.812 -13.650  -1.331  1.00  0.00     0.022 A 
HETATM   17  C   UNL     1      38.550 -13.518   0.033  1.00  0.00     0.012 A 
HETATM   18 BR   UNL     1      37.057 -12.507   0.604  1.00  0.00    -0.051 Br
HETATM   19  C   UNL     1      39.375 -14.125   0.982  1.00  0.00     0.034 A 
BRANCH  14  20
HETATM   20  O   UNL     1      41.780 -15.746  -1.305  1.00  0.00    -0.360 OA
HETATM   21  H   UNL     1      41.723 -15.717  -2.289  1.00  0.00     0.217 HD
ENDBRANCH  14  20
ENDBRANCH  12  13
ENDBRANCH   2  11
BRANCH   9  22
HETATM   22  C   UNL     1      44.369 -21.611   2.694  1.00  0.00     0.270 C 
HETATM   23  N   UNL     1      44.621 -22.792   3.338  1.00  0.00    -0.365 N 
HETATM   24  H   UNL     1      44.787 -22.773   4.337  1.00  0.00     0.159 HD
HETATM   25  H   UNL     1      44.598 -23.657   2.823  1.00  0.00     0.159 HD
HETATM   26  O   UNL     1      44.139 -21.579   1.490  1.00  0.00    -0.266 OA
ENDBRANCH   9  22
TORSDOF 4
ENDMDL
MODEL 9
REMARK VINA RESULT:      -7.1      1.885      2.229
REMARK  4 active torsions:
REMARK  status: ('A' for Active; 'I' for Inactive)
REMARK    1  A    between atoms: C_2  and  N_3 
REMARK    2  A    between atoms: C_4  and  C_5 
REMARK    3  A    between atoms: C_6  and  O_7 
REMARK    4  A    between atoms: C_19  and  C_20 
REMARK       I    between atoms: C_20  and  N_21 
ROOT
HETATM    1  C   UNL     1      38.746 -14.815   1.799  1.00  0.00     0.034 A 
HETATM    2  C   UNL     1      39.962 -15.451   1.518  1.00  0.00     0.057 A 
HETATM    3  C   UNL     1      40.594 -15.225   0.289  1.00  0.00     0.048 A 
HETATM    4  C   UNL     1      39.992 -14.376  -0.661  1.00  0.00     0.030 A 
HETATM    5  C   UNL     1      38.775 -13.782  -0.349  1.00  0.00     0.063 A 
HETATM    6  N   UNL     1      38.451 -13.029  -1.443  1.00  0.00    -0.277 N 
HETATM    7  H   UNL     1      37.626 -12.453  -1.570  1.00  0.00     0.189 HD
HETATM    8  N   UNL     1      39.356 -13.071  -2.437  1.00  0.00    -0.168 NA
HETATM    9  C   UNL     1      40.315 -13.898  -1.965  1.00  0.00     0.156 A 
HETATM   10  C   UNL     1      38.119 -13.978   0.868  1.00  0.00     0.034 A 
ENDROOT
BRANCH   2  11
HETATM   11  N   UNL     1      40.612 -16.257   2.466  1.00  0.00    -0.260 NA
HETATM   12  C   UNL     1      40.940 -15.710   3.595  1.00  0.00     0.131 C 
BRANCH  12  13
HETATM   13  C   UNL     1      41.632 -16.489   4.643  1.00  0.00     0.016 A 
HETATM   14  C   UNL     1      41.382 -16.282   6.005  1.00  0.00     0.077 A 
HETATM   15  C   UNL     1      42.056 -17.031   6.966  1.00  0.00     0.039 A 
HETATM   16  C   UNL     1      42.977 -18.003   6.570  1.00  0.00     0.022 A 
HETATM   17  C   UNL     1      43.219 -18.212   5.213  1.00  0.00     0.012 A 
HETATM   18 BR   UNL     1      44.459 -19.537   4.679  1.00  0.00    -0.051 Br
HETATM   19  C   UNL     1      42.557 -17.458   4.242  1.00  0.00     0.034 A 
BRANCH  14  20
HETATM   20  O   UNL     1      40.491 -15.354   6.466  1.00  0.00    -0.360 OA
HETATM   21  H   UNL     1      40.762 -15.118   7.384  1.00  0.00     0.217 HD
ENDBRANCH  14  20
ENDBRANCH  12  13
ENDBRANCH   2  11
BRANCH   9  22
HETATM   22  C   UNL     1      41.516 -14.205  -2.755  1.00  0.00     0.270 C 
HETATM   23  N   UNL     1      42.630 -13.508  -2.373  1.00  0.00    -0.365 N 
HETATM   24  H   UNL     1      42.556 -12.865  -1.594  1.00  0.00     0.159 HD
HETATM   25  H   UNL     1      43.507 -13.673  -2.841  1.00  0.00     0.159 HD
HETATM   26  O   UNL     1      41.555 -15.013  -3.678  1.00  0.00    -0.266 OA
ENDBRANCH   9  22
TORSDOF 4
ENDMDL
MODEL 10
REMARK VINA RESULT:      -6.9      1.721      2.297
REMARK  4 active torsions:
REMARK  status: ('A' for Active; 'I' for Inactive)
REMARK    1  A    between atoms: C_2  and  N_3 
REMARK    2  A    between atoms: C_4  and  C_5 
REMARK    3  A    between atoms: C_6  and  O_7 
REMARK    4  A    between atoms: C_19  and  C_20 
REMARK       I    between atoms: C_20  and  N_21 
ROOT
HETATM    1  C   UNL     1      40.572 -15.016   4.042  1.00  0.00     0.034 A 
HETATM    2  C   UNL     1      40.785 -15.850   2.937  1.00  0.00     0.057 A 
HETATM    3  C   UNL     1      40.325 -15.459   1.674  1.00  0.00     0.048 A 
HETATM    4  C   UNL     1      39.633 -14.240   1.529  1.00  0.00     0.030 A 
HETATM    5  C   UNL     1      39.424 -13.453   2.654  1.00  0.00     0.063 A 
HETATM    6  N   UNL     1      38.743 -12.356   2.206  1.00  0.00    -0.277 N 
HETATM    7  H   UNL     1      38.422 -11.565   2.754  1.00  0.00     0.189 HD
HETATM    8  N   UNL     1      38.499 -12.353   0.884  1.00  0.00    -0.168 NA
HETATM    9  C   UNL     1      39.046 -13.511   0.452  1.00  0.00     0.156 A 
HETATM   10  C   UNL     1      39.875 -13.807   3.929  1.00  0.00     0.034 A 
ENDROOT
BRANCH   2  11
HETATM   11  N   UNL     1      41.519 -17.043   3.042  1.00  0.00    -0.260 NA
HETATM   12  C   UNL     1      42.600 -17.022   3.759  1.00  0.00     0.131 C 
BRANCH  12  13
HETATM   13  C   UNL     1      43.430 -18.234   3.914  1.00  0.00     0.016 A 
HETATM   14  C   UNL     1      44.253 -18.429   5.030  1.00  0.00     0.077 A 
HETATM   15  C   UNL     1      45.027 -19.581   5.142  1.00  0.00     0.039 A 
HETATM   16  C   UNL     1      44.974 -20.553   4.142  1.00  0.00     0.022 A 
HETATM   17  C   UNL     1      44.149 -20.361   3.033  1.00  0.00     0.012 A 
HETATM   18 BR   UNL     1      44.070 -21.685   1.685  1.00  0.00    -0.051 Br
HETATM   19  C   UNL     1      43.378 -19.204   2.908  1.00  0.00     0.034 A 
BRANCH  14  20
HETATM   20  O   UNL     1      44.351 -17.525   6.051  1.00  0.00    -0.360 OA
HETATM   21  H   UNL     1      44.037 -17.974   6.870  1.00  0.00     0.217 HD
ENDBRANCH  14  20
ENDBRANCH  12  13
ENDBRANCH   2  11
BRANCH   9  22
HETATM   22  C   UNL     1      39.010 -13.892  -0.967  1.00  0.00     0.270 C 
HETATM   23  N   UNL     1      40.242 -13.971  -1.557  1.00  0.00    -0.365 N 
HETATM   24  H   UNL     1      41.062 -13.782  -0.993  1.00  0.00     0.159 HD
HETATM   25  H   UNL     1      40.317 -14.250  -2.522  1.00  0.00     0.159 HD
HETATM   26  O   UNL     1      37.985 -14.132  -1.597  1.00  0.00    -0.266 OA
ENDBRANCH   9  22
TORSDOF 4
ENDMDL
