MODEL 1
REMARK VINA RESULT:      -9.4      0.000      0.000
REMARK  6 active torsions:
REMARK  status: ('A' for Active; 'I' for Inactive)
REMARK    1  A    between atoms: C_2  and  O_3 
REMARK    2  A    between atoms: C_2  and  C_4 
REMARK    3  A    between atoms: C_7  and  N_8 
REMARK       I    between atoms: N_8  and  C_9 
REMARK    4  A    between atoms: C_9  and  C_10 
REMARK    5  A    between atoms: C_13  and  C_14 
REMARK    6  A    between atoms: C_19  and  C_20 
ROOT
HETATM    1  C   UNL     1      42.611 -15.080   3.771  1.00  0.00     0.096 A 
HETATM    2  C   UNL     1      43.171 -16.304   4.091  1.00  0.00     0.138 A 
HETATM    3  N   UNL     1      43.328 -16.295   5.459  1.00  0.00    -0.240 N 
HETATM    4  C   UNL     1      43.880 -17.397   6.223  1.00  0.00     0.221 C 
HETATM    5  C   UNL     1      43.726 -18.707   5.432  1.00  0.00     0.068 C 
HETATM    6  C   UNL     1      44.224 -18.529   3.990  1.00  0.00     0.143 C 
HETATM    7  N   UNL     1      43.518 -17.398   3.367  1.00  0.00    -0.363 N 
HETATM    8  N   UNL     1      42.965 -15.145   6.040  1.00  0.00    -0.181 NA
HETATM    9  C   UNL     1      42.487 -14.425   5.023  1.00  0.00     0.160 A 
HETATM   10  H   UNL     1      43.035 -17.655   2.504  1.00  0.00     0.162 HD
ENDROOT
BRANCH   1  11
HETATM   11  C   UNL     1      42.244 -14.500   2.489  1.00  0.00     0.261 C 
HETATM   12  N   UNL     1      41.298 -15.228   1.789  1.00  0.00    -0.323 N 
HETATM   13  H   UNL     1      40.981 -16.079   2.241  1.00  0.00     0.169 HD
HETATM   14  O   UNL     1      42.803 -13.484   2.096  1.00  0.00    -0.267 OA
BRANCH  12  15
HETATM   15  C   UNL     1      40.843 -15.001   0.474  1.00  0.00     0.035 A 
HETATM   16  C   UNL     1      41.390 -15.611  -0.657  1.00  0.00     0.030 A 
HETATM   17  C   UNL     1      40.842 -15.388  -1.927  1.00  0.00     0.012 A 
HETATM   18  C   UNL     1      39.739 -14.545  -2.093  1.00  0.00    -0.030 A 
HETATM   19  C   UNL     1      39.212 -13.907  -0.962  1.00  0.00     0.012 A 
HETATM   20  C   UNL     1      39.759 -14.133   0.307  1.00  0.00     0.030 A 
BRANCH  18  21
HETATM   21  C   UNL     1      39.129 -14.352  -3.464  1.00  0.00     0.147 C 
HETATM   22  C   UNL     1      37.620 -14.543  -3.478  1.00  0.00     0.044 C 
BRANCH  21  23
HETATM   23  O   UNL     1      39.718 -15.268  -4.387  1.00  0.00    -0.391 OA
HETATM   24  H   UNL     1      39.064 -15.420  -5.091  1.00  0.00     0.210 HD
ENDBRANCH  21  23
ENDBRANCH  18  21
ENDBRANCH  12  15
ENDBRANCH   1  11
BRANCH   4  25
HETATM   25  C   UNL     1      43.233 -17.551   7.584  1.00  0.00     0.409 C 
HETATM   26  F   UNL     1      41.884 -17.511   7.527  1.00  0.00    -0.169 F 
HETATM   27  F   UNL     1      43.558 -18.772   8.097  1.00  0.00    -0.169 F 
HETATM   28  F   UNL     1      43.656 -16.647   8.491  1.00  0.00    -0.169 F 
ENDBRANCH   4  25
BRANCH   6  29
HETATM   29  C   UNL     1      44.107 -19.809   3.210  1.00  0.00     0.075 A 
HETATM   30  O   UNL     1      44.670 -20.918   3.779  1.00  0.00    -0.325 OA
HETATM   31  C   UNL     1      44.440 -21.960   2.940  1.00  0.00     0.142 A 
HETATM   32  C   UNL     1      43.739 -21.543   1.834  1.00  0.00     0.027 A 
HETATM   33  C   UNL     1      43.520 -20.155   2.007  1.00  0.00     0.037 A 
ENDBRANCH   6  29
TORSDOF 6
ENDMDL
MODEL 2
REMARK VINA RESULT:      -8.8      1.336      1.596
REMARK  6 active torsions:
REMARK  status: ('A' for Active; 'I' for Inactive)
REMARK    1  A    between atoms: C_2  and  O_3 
REMARK    2  A    between atoms: C_2  and  C_4 
REMARK    3  A    between atoms: C_7  and  N_8 
REMARK       I    between atoms: N_8  and  C_9 
REMARK    4  A    between atoms: C_9  and  C_10 
REMARK    5  A    between atoms: C_13  and  C_14 
REMARK    6  A    between atoms: C_19  and  C_20 
ROOT
HETATM    1  C   UNL     1      41.823 -16.296   3.440  1.00  0.00     0.096 A 
HETATM    2  C   UNL     1      42.723 -17.186   3.998  1.00  0.00     0.138 A 
HETATM    3  N   UNL     1      43.000 -16.697   5.255  1.00  0.00    -0.240 N 
HETATM    4  C   UNL     1      43.901 -17.334   6.196  1.00  0.00     0.221 C 
HETATM    5  C   UNL     1      44.037 -18.828   5.857  1.00  0.00     0.068 C 
HETATM    6  C   UNL     1      44.329 -19.019   4.363  1.00  0.00     0.143 C 
HETATM    7  N   UNL     1      43.287 -18.346   3.573  1.00  0.00    -0.363 N 
HETATM    8  N   UNL     1      42.394 -15.537   5.532  1.00  0.00    -0.181 NA
HETATM    9  C   UNL     1      41.644 -15.317   4.450  1.00  0.00     0.160 A 
HETATM   10  H   UNL     1      42.812 -18.973   2.919  1.00  0.00     0.162 HD
ENDROOT
BRANCH   1  11
HETATM   11  C   UNL     1      41.192 -16.266   2.131  1.00  0.00     0.261 C 
HETATM   12  N   UNL     1      40.981 -14.992   1.634  1.00  0.00    -0.323 N 
HETATM   13  H   UNL     1      41.277 -14.234   2.239  1.00  0.00     0.169 HD
HETATM   14  O   UNL     1      40.849 -17.311   1.593  1.00  0.00    -0.267 OA
BRANCH  12  15
HETATM   15  C   UNL     1      40.276 -14.633   0.467  1.00  0.00     0.035 A 
HETATM   16  C   UNL     1      40.808 -14.716  -0.822  1.00  0.00     0.030 A 
HETATM   17  C   UNL     1      40.026 -14.405  -1.941  1.00  0.00     0.012 A 
HETATM   18  C   UNL     1      38.696 -13.999  -1.795  1.00  0.00    -0.030 A 
HETATM   19  C   UNL     1      38.173 -13.884  -0.499  1.00  0.00     0.012 A 
HETATM   20  C   UNL     1      38.955 -14.198   0.618  1.00  0.00     0.030 A 
BRANCH  18  21
HETATM   21  C   UNL     1      37.848 -13.713  -3.016  1.00  0.00     0.147 C 
HETATM   22  C   UNL     1      37.190 -14.957  -3.591  1.00  0.00     0.044 C 
BRANCH  21  23
HETATM   23  O   UNL     1      38.652 -13.108  -4.028  1.00  0.00    -0.391 OA
HETATM   24  H   UNL     1      38.227 -12.264  -4.261  1.00  0.00     0.210 HD
ENDBRANCH  21  23
ENDBRANCH  18  21
ENDBRANCH  12  15
ENDBRANCH   1  11
BRANCH   4  25
HETATM   25  C   UNL     1      43.453 -17.180   7.635  1.00  0.00     0.409 C 
HETATM   26  F   UNL     1      44.072 -18.045   8.468  1.00  0.00    -0.169 F 
HETATM   27  F   UNL     1      43.778 -15.931   8.072  1.00  0.00    -0.169 F 
HETATM   28  F   UNL     1      42.121 -17.294   7.803  1.00  0.00    -0.169 F 
ENDBRANCH   4  25
BRANCH   6  29
HETATM   29  C   UNL     1      44.493 -20.473   4.019  1.00  0.00     0.075 A 
HETATM   30  O   UNL     1      44.685 -21.326   5.072  1.00  0.00    -0.325 OA
HETATM   31  C   UNL     1      44.786 -22.579   4.560  1.00  0.00     0.142 A 
HETATM   32  C   UNL     1      44.666 -22.552   3.191  1.00  0.00     0.027 A 
HETATM   33  C   UNL     1      44.474 -21.194   2.840  1.00  0.00     0.037 A 
ENDBRANCH   6  29
TORSDOF 6
ENDMDL
MODEL 3
REMARK VINA RESULT:      -8.8      3.943      8.642
REMARK  6 active torsions:
REMARK  status: ('A' for Active; 'I' for Inactive)
REMARK    1  A    between atoms: C_2  and  O_3 
REMARK    2  A    between atoms: C_2  and  C_4 
REMARK    3  A    between atoms: C_7  and  N_8 
REMARK       I    between atoms: N_8  and  C_9 
REMARK    4  A    between atoms: C_9  and  C_10 
REMARK    5  A    between atoms: C_13  and  C_14 
REMARK    6  A    between atoms: C_19  and  C_20 
ROOT
HETATM    1  C   UNL     1      42.022 -14.764   1.809  1.00  0.00     0.096 A 
HETATM    2  C   UNL     1      41.350 -14.290   0.698  1.00  0.00     0.138 A 
HETATM    3  N   UNL     1      41.683 -12.957   0.601  1.00  0.00    -0.240 N 
HETATM    4  C   UNL     1      41.199 -12.070  -0.438  1.00  0.00     0.221 C 
HETATM    5  C   UNL     1      40.772 -12.891  -1.667  1.00  0.00     0.068 C 
HETATM    6  C   UNL     1      39.859 -14.053  -1.250  1.00  0.00     0.143 C 
HETATM    7  N   UNL     1      40.538 -14.863  -0.227  1.00  0.00    -0.363 N 
HETATM    8  N   UNL     1      42.471 -12.522   1.591  1.00  0.00    -0.181 NA
HETATM    9  C   UNL     1      42.715 -13.627   2.298  1.00  0.00     0.160 A 
HETATM   10  H   UNL     1      40.622 -15.848  -0.488  1.00  0.00     0.162 HD
ENDROOT
BRANCH   1  11
HETATM   11  C   UNL     1      42.042 -16.080   2.429  1.00  0.00     0.261 C 
HETATM   12  N   UNL     1      43.308 -16.534   2.750  1.00  0.00    -0.323 N 
HETATM   13  H   UNL     1      44.069 -15.910   2.510  1.00  0.00     0.169 HD
HETATM   14  O   UNL     1      40.997 -16.703   2.572  1.00  0.00    -0.267 OA
BRANCH  12  15
HETATM   15  C   UNL     1      43.663 -17.812   3.231  1.00  0.00     0.035 A 
HETATM   16  C   UNL     1      43.957 -18.901   2.409  1.00  0.00     0.030 A 
HETATM   17  C   UNL     1      44.368 -20.123   2.957  1.00  0.00     0.012 A 
HETATM   18  C   UNL     1      44.488 -20.282   4.340  1.00  0.00    -0.030 A 
HETATM   19  C   UNL     1      44.160 -19.198   5.167  1.00  0.00     0.012 A 
HETATM   20  C   UNL     1      43.753 -17.977   4.618  1.00  0.00     0.030 A 
BRANCH  18  21
HETATM   21  C   UNL     1      44.979 -21.593   4.916  1.00  0.00     0.147 C 
HETATM   22  C   UNL     1      44.721 -22.781   4.002  1.00  0.00     0.044 C 
BRANCH  21  23
HETATM   23  O   UNL     1      44.346 -21.834   6.173  1.00  0.00    -0.391 OA
HETATM   24  H   UNL     1      45.049 -22.068   6.804  1.00  0.00     0.210 HD
ENDBRANCH  21  23
ENDBRANCH  18  21
ENDBRANCH  12  15
ENDBRANCH   1  11
BRANCH   4  25
HETATM   25  C   UNL     1      42.225 -11.036  -0.854  1.00  0.00     0.409 C 
HETATM   26  F   UNL     1      43.419 -11.585  -1.166  1.00  0.00    -0.169 F 
HETATM   27  F   UNL     1      41.789 -10.403  -1.980  1.00  0.00    -0.169 F 
HETATM   28  F   UNL     1      42.419 -10.066   0.061  1.00  0.00    -0.169 F 
ENDBRANCH   4  25
BRANCH   6  29
HETATM   29  C   UNL     1      39.409 -14.850  -2.442  1.00  0.00     0.075 A 
HETATM   30  O   UNL     1      38.089 -14.734  -2.785  1.00  0.00    -0.325 OA
HETATM   31  C   UNL     1      37.891 -15.502  -3.885  1.00  0.00     0.142 A 
HETATM   32  C   UNL     1      39.061 -16.118  -4.261  1.00  0.00     0.027 A 
HETATM   33  C   UNL     1      40.043 -15.696  -3.332  1.00  0.00     0.037 A 
ENDBRANCH   6  29
TORSDOF 6
ENDMDL
MODEL 4
REMARK VINA RESULT:      -8.2      5.240      8.948
REMARK  6 active torsions:
REMARK  status: ('A' for Active; 'I' for Inactive)
REMARK    1  A    between atoms: C_2  and  O_3 
REMARK    2  A    between atoms: C_2  and  C_4 
REMARK    3  A    between atoms: C_7  and  N_8 
REMARK       I    between atoms: N_8  and  C_9 
REMARK    4  A    between atoms: C_9  and  C_10 
REMARK    5  A    between atoms: C_13  and  C_14 
REMARK    6  A    between atoms: C_19  and  C_20 
ROOT
HETATM    1  C   UNL     1      40.632 -12.620   5.853  1.00  0.00     0.096 A 
HETATM    2  C   UNL     1      41.120 -11.763   6.823  1.00  0.00     0.138 A 
HETATM    3  N   UNL     1      40.167 -10.780   6.965  1.00  0.00    -0.240 N 
HETATM    4  C   UNL     1      40.273  -9.670   7.893  1.00  0.00     0.221 C 
HETATM    5  C   UNL     1      41.239 -10.036   9.033  1.00  0.00     0.068 C 
HETATM    6  C   UNL     1      42.546 -10.612   8.470  1.00  0.00     0.143 C 
HETATM    7  N   UNL     1      42.238 -11.752   7.593  1.00  0.00    -0.363 N 
HETATM    8  N   UNL     1      39.131 -10.903   6.127  1.00  0.00    -0.181 NA
HETATM    9  C   UNL     1      39.389 -12.045   5.485  1.00  0.00     0.160 A 
HETATM   10  H   UNL     1      42.713 -12.613   7.874  1.00  0.00     0.162 HD
ENDROOT
BRANCH   1  11
HETATM   11  C   UNL     1      41.201 -13.819   5.259  1.00  0.00     0.261 C 
HETATM   12  N   UNL     1      41.506 -14.812   6.173  1.00  0.00    -0.323 N 
HETATM   13  H   UNL     1      41.311 -14.588   7.142  1.00  0.00     0.169 HD
HETATM   14  O   UNL     1      41.420 -13.860   4.055  1.00  0.00    -0.267 OA
BRANCH  12  15
HETATM   15  C   UNL     1      42.186 -16.023   5.927  1.00  0.00     0.035 A 
HETATM   16  C   UNL     1      41.640 -17.094   5.215  1.00  0.00     0.030 A 
HETATM   17  C   UNL     1      42.399 -18.241   4.952  1.00  0.00     0.012 A 
HETATM   18  C   UNL     1      43.719 -18.345   5.401  1.00  0.00    -0.030 A 
HETATM   19  C   UNL     1      44.255 -17.284   6.144  1.00  0.00     0.012 A 
HETATM   20  C   UNL     1      43.496 -16.136   6.403  1.00  0.00     0.030 A 
BRANCH  18  21
HETATM   21  C   UNL     1      44.543 -19.570   5.068  1.00  0.00     0.147 C 
HETATM   22  C   UNL     1      44.370 -20.033   3.630  1.00  0.00     0.044 C 
BRANCH  21  23
HETATM   23  O   UNL     1      44.187 -20.641   5.943  1.00  0.00    -0.391 OA
HETATM   24  H   UNL     1      44.374 -20.340   6.849  1.00  0.00     0.210 HD
ENDBRANCH  21  23
ENDBRANCH  18  21
ENDBRANCH  12  15
ENDBRANCH   1  11
BRANCH   4  25
HETATM   25  C   UNL     1      38.936  -9.262   8.475  1.00  0.00     0.409 C 
HETATM   26  F   UNL     1      38.231 -10.312   8.949  1.00  0.00    -0.169 F 
HETATM   27  F   UNL     1      39.147  -8.433   9.537  1.00  0.00    -0.169 F 
HETATM   28  F   UNL     1      38.159  -8.570   7.618  1.00  0.00    -0.169 F 
ENDBRANCH   4  25
BRANCH   6  29
HETATM   29  C   UNL     1      43.513 -10.949   9.571  1.00  0.00     0.075 A 
HETATM   30  O   UNL     1      42.968 -11.425  10.731  1.00  0.00    -0.325 OA
HETATM   31  C   UNL     1      43.994 -11.688  11.579  1.00  0.00     0.142 A 
HETATM   32  C   UNL     1      45.197 -11.387  10.987  1.00  0.00     0.027 A 
HETATM   33  C   UNL     1      44.890 -10.912   9.689  1.00  0.00     0.037 A 
ENDBRANCH   6  29
TORSDOF 6
ENDMDL
MODEL 5
REMARK VINA RESULT:      -8.1      2.443      2.825
REMARK  6 active torsions:
REMARK  status: ('A' for Active; 'I' for Inactive)
REMARK    1  A    between atoms: C_2  and  O_3 
REMARK    2  A    between atoms: C_2  and  C_4 
REMARK    3  A    between atoms: C_7  and  N_8 
REMARK       I    between atoms: N_8  and  C_9 
REMARK    4  A    between atoms: C_9  and  C_10 
REMARK    5  A    between atoms: C_13  and  C_14 
REMARK    6  A    between atoms: C_19  and  C_20 
ROOT
HETATM    1  C   UNL     1      41.670 -15.255   1.923  1.00  0.00     0.096 A 
HETATM    2  C   UNL     1      42.237 -16.277   2.664  1.00  0.00     0.138 A 
HETATM    3  N   UNL     1      41.972 -15.973   3.981  1.00  0.00    -0.240 N 
HETATM    4  C   UNL     1      42.385 -16.792   5.104  1.00  0.00     0.221 C 
HETATM    5  C   UNL     1      42.621 -18.238   4.635  1.00  0.00     0.068 C 
HETATM    6  C   UNL     1      43.507 -18.263   3.382  1.00  0.00     0.143 C 
HETATM    7  N   UNL     1      42.904 -17.415   2.342  1.00  0.00    -0.363 N 
HETATM    8  N   UNL     1      41.329 -14.812   4.152  1.00  0.00    -0.181 NA
HETATM    9  C   UNL     1      41.104 -14.399   2.902  1.00  0.00     0.160 A 
HETATM   10  H   UNL     1      42.734 -17.915   1.467  1.00  0.00     0.162 HD
ENDROOT
BRANCH   1  11
HETATM   11  C   UNL     1      41.646 -15.010   0.490  1.00  0.00     0.261 C 
HETATM   12  N   UNL     1      41.682 -13.671   0.145  1.00  0.00    -0.323 N 
HETATM   13  H   UNL     1      41.711 -13.021   0.922  1.00  0.00     0.169 HD
HETATM   14  O   UNL     1      41.542 -15.950  -0.288  1.00  0.00    -0.267 OA
BRANCH  12  15
HETATM   15  C   UNL     1      41.537 -13.114  -1.142  1.00  0.00     0.035 A 
HETATM   16  C   UNL     1      40.312 -12.978  -1.800  1.00  0.00     0.030 A 
HETATM   17  C   UNL     1      40.236 -12.354  -3.051  1.00  0.00     0.012 A 
HETATM   18  C   UNL     1      41.385 -11.857  -3.674  1.00  0.00    -0.030 A 
HETATM   19  C   UNL     1      42.618 -12.023  -3.029  1.00  0.00     0.012 A 
HETATM   20  C   UNL     1      42.692 -12.645  -1.777  1.00  0.00     0.030 A 
BRANCH  18  21
HETATM   21  C   UNL     1      41.281 -11.141  -5.004  1.00  0.00     0.147 C 
HETATM   22  C   UNL     1      42.026  -9.816  -5.029  1.00  0.00     0.044 C 
BRANCH  21  23
HETATM   23  O   UNL     1      39.908 -10.903  -5.316  1.00  0.00    -0.391 OA
HETATM   24  H   UNL     1      39.781  -9.938  -5.317  1.00  0.00     0.210 HD
ENDBRANCH  21  23
ENDBRANCH  18  21
ENDBRANCH  12  15
ENDBRANCH   1  11
BRANCH   4  25
HETATM   25  C   UNL     1      41.379 -16.786   6.237  1.00  0.00     0.409 C 
HETATM   26  F   UNL     1      40.249 -17.462   5.933  1.00  0.00    -0.169 F 
HETATM   27  F   UNL     1      41.921 -17.415   7.318  1.00  0.00    -0.169 F 
HETATM   28  F   UNL     1      41.044 -15.551   6.659  1.00  0.00    -0.169 F 
ENDBRANCH   4  25
BRANCH   6  29
HETATM   29  C   UNL     1      43.771 -19.670   2.927  1.00  0.00     0.075 A 
HETATM   30  O   UNL     1      44.500 -20.456   3.778  1.00  0.00    -0.325 OA
HETATM   31  C   UNL     1      44.607 -21.679   3.202  1.00  0.00     0.142 A 
HETATM   32  C   UNL     1      43.963 -21.700   1.989  1.00  0.00     0.027 A 
HETATM   33  C   UNL     1      43.420 -20.405   1.810  1.00  0.00     0.037 A 
ENDBRANCH   6  29
TORSDOF 6
ENDMDL
MODEL 6
REMARK VINA RESULT:      -8.0      3.627      7.683
REMARK  6 active torsions:
REMARK  status: ('A' for Active; 'I' for Inactive)
REMARK    1  A    between atoms: C_2  and  O_3 
REMARK    2  A    between atoms: C_2  and  C_4 
REMARK    3  A    between atoms: C_7  and  N_8 
REMARK       I    between atoms: N_8  and  C_9 
REMARK    4  A    between atoms: C_9  and  C_10 
REMARK    5  A    between atoms: C_13  and  C_14 
REMARK    6  A    between atoms: C_19  and  C_20 
ROOT
HETATM    1  C   UNL     1      40.619 -14.767   4.743  1.00  0.00     0.096 A 
HETATM    2  C   UNL     1      39.931 -14.122   3.731  1.00  0.00     0.138 A 
HETATM    3  N   UNL     1      39.566 -12.900   4.249  1.00  0.00    -0.240 N 
HETATM    4  C   UNL     1      38.827 -11.892   3.514  1.00  0.00     0.221 C 
HETATM    5  C   UNL     1      39.006 -12.112   2.003  1.00  0.00     0.068 C 
HETATM    6  C   UNL     1      38.751 -13.581   1.636  1.00  0.00     0.143 C 
HETATM    7  N   UNL     1      39.622 -14.444   2.448  1.00  0.00    -0.363 N 
HETATM    8  N   UNL     1      39.916 -12.726   5.529  1.00  0.00    -0.181 NA
HETATM    9  C   UNL     1      40.595 -13.839   5.815  1.00  0.00     0.160 A 
HETATM   10  H   UNL     1      40.213 -15.060   1.885  1.00  0.00     0.162 HD
ENDROOT
BRANCH   1  11
HETATM   11  C   UNL     1      41.219 -16.090   4.801  1.00  0.00     0.261 C 
HETATM   12  N   UNL     1      42.230 -16.294   3.880  1.00  0.00    -0.323 N 
HETATM   13  H   UNL     1      42.427 -15.509   3.269  1.00  0.00     0.169 HD
HETATM   14  O   UNL     1      40.782 -16.925   5.583  1.00  0.00    -0.267 OA
BRANCH  12  15
HETATM   15  C   UNL     1      42.905 -17.500   3.601  1.00  0.00     0.035 A 
HETATM   16  C   UNL     1      43.806 -18.110   4.476  1.00  0.00     0.030 A 
HETATM   17  C   UNL     1      44.389 -19.344   4.159  1.00  0.00     0.012 A 
HETATM   18  C   UNL     1      44.087 -19.991   2.957  1.00  0.00    -0.030 A 
HETATM   19  C   UNL     1      43.209 -19.362   2.064  1.00  0.00     0.012 A 
HETATM   20  C   UNL     1      42.625 -18.130   2.384  1.00  0.00     0.030 A 
BRANCH  18  21
HETATM   21  C   UNL     1      44.688 -21.346   2.650  1.00  0.00     0.147 C 
HETATM   22  C   UNL     1      44.061 -22.015   1.437  1.00  0.00     0.044 C 
BRANCH  21  23
HETATM   23  O   UNL     1      44.537 -22.206   3.779  1.00  0.00    -0.391 OA
HETATM   24  H   UNL     1      44.384 -23.103   3.434  1.00  0.00     0.210 HD
ENDBRANCH  21  23
ENDBRANCH  18  21
ENDBRANCH  12  15
ENDBRANCH   1  11
BRANCH   4  25
HETATM   25  C   UNL     1      39.243 -10.480   3.872  1.00  0.00     0.409 C 
HETATM   26  F   UNL     1      38.810 -10.104   5.095  1.00  0.00    -0.169 F 
HETATM   27  F   UNL     1      40.604 -10.413   3.912  1.00  0.00    -0.169 F 
HETATM   28  F   UNL     1      38.856  -9.555   2.971  1.00  0.00    -0.169 F 
ENDBRANCH   4  25
BRANCH   6  29
HETATM   29  C   UNL     1      38.895 -13.809   0.157  1.00  0.00     0.075 A 
HETATM   30  O   UNL     1      40.106 -14.282  -0.267  1.00  0.00    -0.325 OA
HETATM   31  C   UNL     1      40.026 -14.441  -1.612  1.00  0.00     0.142 A 
HETATM   32  C   UNL     1      38.783 -14.076  -2.068  1.00  0.00     0.027 A 
HETATM   33  C   UNL     1      38.049 -13.670  -0.927  1.00  0.00     0.037 A 
ENDBRANCH   6  29
TORSDOF 6
ENDMDL
MODEL 7
REMARK VINA RESULT:      -7.7      3.560      5.401
REMARK  6 active torsions:
REMARK  status: ('A' for Active; 'I' for Inactive)
REMARK    1  A    between atoms: C_2  and  O_3 
REMARK    2  A    between atoms: C_2  and  C_4 
REMARK    3  A    between atoms: C_7  and  N_8 
REMARK       I    between atoms: N_8  and  C_9 
REMARK    4  A    between atoms: C_9  and  C_10 
REMARK    5  A    between atoms: C_13  and  C_14 
REMARK    6  A    between atoms: C_19  and  C_20 
ROOT
HETATM    1  C   UNL     1      41.209 -16.205   1.460  1.00  0.00     0.096 A 
HETATM    2  C   UNL     1      41.851 -16.502   2.648  1.00  0.00     0.138 A 
HETATM    3  N   UNL     1      42.249 -17.815   2.539  1.00  0.00    -0.240 N 
HETATM    4  C   UNL     1      42.972 -18.536   3.569  1.00  0.00     0.221 C 
HETATM    5  C   UNL     1      43.702 -17.540   4.486  1.00  0.00     0.068 C 
HETATM    6  C   UNL     1      42.749 -16.426   4.942  1.00  0.00     0.143 C 
HETATM    7  N   UNL     1      42.150 -15.784   3.762  1.00  0.00    -0.363 N 
HETATM    8  N   UNL     1      41.867 -18.405   1.400  1.00  0.00    -0.181 NA
HETATM    9  C   UNL     1      41.277 -17.416   0.725  1.00  0.00     0.160 A 
HETATM   10  H   UNL     1      42.309 -14.775   3.731  1.00  0.00     0.162 HD
ENDROOT
BRANCH   1  11
HETATM   11  C   UNL     1      40.554 -14.990   1.001  1.00  0.00     0.261 C 
HETATM   12  N   UNL     1      39.533 -14.552   1.825  1.00  0.00    -0.323 N 
HETATM   13  H   UNL     1      39.353 -15.128   2.640  1.00  0.00     0.169 HD
HETATM   14  O   UNL     1      40.887 -14.481  -0.062  1.00  0.00    -0.267 OA
BRANCH  12  15
HETATM   15  C   UNL     1      38.632 -13.495   1.585  1.00  0.00     0.035 A 
HETATM   16  C   UNL     1      37.596 -13.549   0.650  1.00  0.00     0.030 A 
HETATM   17  C   UNL     1      36.698 -12.484   0.513  1.00  0.00     0.012 A 
HETATM   18  C   UNL     1      36.819 -11.338   1.304  1.00  0.00    -0.030 A 
HETATM   19  C   UNL     1      37.879 -11.270   2.219  1.00  0.00     0.012 A 
HETATM   20  C   UNL     1      38.774 -12.337   2.357  1.00  0.00     0.030 A 
BRANCH  18  21
HETATM   21  C   UNL     1      35.812 -10.215   1.178  1.00  0.00     0.147 C 
HETATM   22  C   UNL     1      36.202  -8.973   1.964  1.00  0.00     0.044 C 
BRANCH  21  23
HETATM   23  O   UNL     1      34.534 -10.662   1.630  1.00  0.00    -0.391 OA
HETATM   24  H   UNL     1      34.672 -11.089   2.494  1.00  0.00     0.210 HD
ENDBRANCH  21  23
ENDBRANCH  18  21
ENDBRANCH  12  15
ENDBRANCH   1  11
BRANCH   4  25
HETATM   25  C   UNL     1      43.968 -19.526   3.004  1.00  0.00     0.409 C 
HETATM   26  F   UNL     1      44.741 -18.991   2.033  1.00  0.00    -0.169 F 
HETATM   27  F   UNL     1      44.818 -19.918   3.995  1.00  0.00    -0.169 F 
HETATM   28  F   UNL     1      43.404 -20.657   2.535  1.00  0.00    -0.169 F 
ENDBRANCH   4  25
BRANCH   6  29
HETATM   29  C   UNL     1      43.439 -15.459   5.862  1.00  0.00     0.075 A 
HETATM   30  O   UNL     1      43.115 -14.138   5.706  1.00  0.00    -0.325 OA
HETATM   31  C   UNL     1      43.817 -13.440   6.634  1.00  0.00     0.142 A 
HETATM   32  C   UNL     1      44.595 -14.286   7.388  1.00  0.00     0.027 A 
HETATM   33  C   UNL     1      44.350 -15.591   6.894  1.00  0.00     0.037 A 
ENDBRANCH   6  29
TORSDOF 6
ENDMDL
MODEL 8
REMARK VINA RESULT:      -7.7      4.872      8.130
REMARK  6 active torsions:
REMARK  status: ('A' for Active; 'I' for Inactive)
REMARK    1  A    between atoms: C_2  and  O_3 
REMARK    2  A    between atoms: C_2  and  C_4 
REMARK    3  A    between atoms: C_7  and  N_8 
REMARK       I    between atoms: N_8  and  C_9 
REMARK    4  A    between atoms: C_9  and  C_10 
REMARK    5  A    between atoms: C_13  and  C_14 
REMARK    6  A    between atoms: C_19  and  C_20 
ROOT
HETATM    1  C   UNL     1      40.263 -14.002   3.848  1.00  0.00     0.096 A 
HETATM    2  C   UNL     1      40.681 -15.115   3.140  1.00  0.00     0.138 A 
HETATM    3  N   UNL     1      40.338 -14.873   1.829  1.00  0.00    -0.240 N 
HETATM    4  C   UNL     1      40.602 -15.787   0.736  1.00  0.00     0.221 C 
HETATM    5  C   UNL     1      41.760 -16.727   1.112  1.00  0.00     0.068 C 
HETATM    6  C   UNL     1      41.533 -17.337   2.502  1.00  0.00     0.143 C 
HETATM    7  N   UNL     1      41.331 -16.258   3.480  1.00  0.00    -0.363 N 
HETATM    8  N   UNL     1      39.683 -13.720   1.643  1.00  0.00    -0.181 NA
HETATM    9  C   UNL     1      39.679 -13.170   2.860  1.00  0.00     0.160 A 
HETATM   10  H   UNL     1      41.990 -16.296   4.261  1.00  0.00     0.162 HD
ENDROOT
BRANCH   1  11
HETATM   11  C   UNL     1      40.324 -13.690   5.267  1.00  0.00     0.261 C 
HETATM   12  N   UNL     1      40.223 -12.341   5.555  1.00  0.00    -0.323 N 
HETATM   13  H   UNL     1      40.129 -11.731   4.751  1.00  0.00     0.169 HD
HETATM   14  O   UNL     1      40.509 -14.586   6.082  1.00  0.00    -0.267 OA
BRANCH  12  15
HETATM   15  C   UNL     1      40.382 -11.718   6.810  1.00  0.00     0.035 A 
HETATM   16  C   UNL     1      39.397 -11.693   7.799  1.00  0.00     0.030 A 
HETATM   17  C   UNL     1      39.650 -11.113   9.048  1.00  0.00     0.012 A 
HETATM   18  C   UNL     1      40.892 -10.539   9.332  1.00  0.00    -0.030 A 
HETATM   19  C   UNL     1      41.870 -10.534   8.327  1.00  0.00     0.012 A 
HETATM   20  C   UNL     1      41.616 -11.118   7.080  1.00  0.00     0.030 A 
BRANCH  18  21
HETATM   21  C   UNL     1      41.168  -9.958  10.703  1.00  0.00     0.147 C 
HETATM   22  C   UNL     1      42.651  -9.848  11.017  1.00  0.00     0.044 C 
BRANCH  21  23
HETATM   23  O   UNL     1      40.544 -10.765  11.701  1.00  0.00    -0.391 OA
HETATM   24  H   UNL     1      40.695 -10.325  12.556  1.00  0.00     0.210 HD
ENDBRANCH  21  23
ENDBRANCH  18  21
ENDBRANCH  12  15
ENDBRANCH   1  11
BRANCH   4  25
HETATM   25  C   UNL     1      40.929 -15.075  -0.560  1.00  0.00     0.409 C 
HETATM   26  F   UNL     1      41.950 -14.200  -0.430  1.00  0.00    -0.169 F 
HETATM   27  F   UNL     1      41.331 -15.994  -1.485  1.00  0.00    -0.169 F 
HETATM   28  F   UNL     1      39.877 -14.436  -1.109  1.00  0.00    -0.169 F 
ENDBRANCH   4  25
BRANCH   6  29
HETATM   29  C   UNL     1      42.642 -18.280   2.874  1.00  0.00     0.075 A 
HETATM   30  O   UNL     1      42.972 -18.334   4.200  1.00  0.00    -0.325 OA
HETATM   31  C   UNL     1      43.966 -19.249   4.330  1.00  0.00     0.142 A 
HETATM   32  C   UNL     1      44.288 -19.787   3.108  1.00  0.00     0.027 A 
HETATM   33  C   UNL     1      43.433 -19.166   2.166  1.00  0.00     0.037 A 
ENDBRANCH   6  29
TORSDOF 6
ENDMDL
MODEL 9
REMARK VINA RESULT:      -7.6      3.653      5.310
REMARK  6 active torsions:
REMARK  status: ('A' for Active; 'I' for Inactive)
REMARK    1  A    between atoms: C_2  and  O_3 
REMARK    2  A    between atoms: C_2  and  C_4 
REMARK    3  A    between atoms: C_7  and  N_8 
REMARK       I    between atoms: N_8  and  C_9 
REMARK    4  A    between atoms: C_9  and  C_10 
REMARK    5  A    between atoms: C_13  and  C_14 
REMARK    6  A    between atoms: C_19  and  C_20 
ROOT
HETATM    1  C   UNL     1      41.930 -15.431   0.902  1.00  0.00     0.096 A 
HETATM    2  C   UNL     1      42.241 -15.854   2.181  1.00  0.00     0.138 A 
HETATM    3  N   UNL     1      42.317 -17.227   2.112  1.00  0.00    -0.240 N 
HETATM    4  C   UNL     1      42.631 -18.083   3.239  1.00  0.00     0.221 C 
HETATM    5  C   UNL     1      43.394 -17.281   4.306  1.00  0.00     0.068 C 
HETATM    6  C   UNL     1      42.676 -15.958   4.605  1.00  0.00     0.143 C 
HETATM    7  N   UNL     1      42.489 -15.211   3.351  1.00  0.00    -0.363 N 
HETATM    8  N   UNL     1      42.027 -17.726   0.905  1.00  0.00    -0.181 NA
HETATM    9  C   UNL     1      41.838 -16.635   0.159  1.00  0.00     0.160 A 
HETATM   10  H   UNL     1      42.895 -14.273   3.380  1.00  0.00     0.162 HD
ENDROOT
BRANCH   1  11
HETATM   11  C   UNL     1      41.694 -14.101   0.362  1.00  0.00     0.261 C 
HETATM   12  N   UNL     1      42.009 -13.970  -0.978  1.00  0.00    -0.323 N 
HETATM   13  H   UNL     1      42.374 -14.805  -1.423  1.00  0.00     0.169 HD
HETATM   14  O   UNL     1      41.304 -13.204   1.099  1.00  0.00    -0.267 OA
BRANCH  12  15
HETATM   15  C   UNL     1      42.018 -12.787  -1.744  1.00  0.00     0.035 A 
HETATM   16  C   UNL     1      41.196 -12.568  -2.852  1.00  0.00     0.030 A 
HETATM   17  C   UNL     1      41.212 -11.340  -3.525  1.00  0.00     0.012 A 
HETATM   18  C   UNL     1      42.057 -10.306  -3.109  1.00  0.00    -0.030 A 
HETATM   19  C   UNL     1      42.906 -10.538  -2.018  1.00  0.00     0.012 A 
HETATM   20  C   UNL     1      42.886 -11.765  -1.344  1.00  0.00     0.030 A 
BRANCH  18  21
HETATM   21  C   UNL     1      42.029  -8.968  -3.816  1.00  0.00     0.147 C 
HETATM   22  C   UNL     1      42.457  -9.054  -5.273  1.00  0.00     0.044 C 
BRANCH  21  23
HETATM   23  O   UNL     1      42.885  -8.048  -3.139  1.00  0.00    -0.391 OA
HETATM   24  H   UNL     1      42.667  -7.161  -3.472  1.00  0.00     0.210 HD
ENDBRANCH  21  23
ENDBRANCH  18  21
ENDBRANCH  12  15
ENDBRANCH   1  11
BRANCH   4  25
HETATM   25  C   UNL     1      43.442 -19.300   2.845  1.00  0.00     0.409 C 
HETATM   26  F   UNL     1      44.560 -18.979   2.157  1.00  0.00    -0.169 F 
HETATM   27  F   UNL     1      43.859 -19.942   3.973  1.00  0.00    -0.169 F 
HETATM   28  F   UNL     1      42.745 -20.212   2.138  1.00  0.00    -0.169 F 
ENDBRANCH   4  25
BRANCH   6  29
HETATM   29  C   UNL     1      43.394 -15.173   5.667  1.00  0.00     0.075 A 
HETATM   30  O   UNL     1      43.090 -13.841   5.745  1.00  0.00    -0.325 OA
HETATM   31  C   UNL     1      43.816 -13.323   6.767  1.00  0.00     0.142 A 
HETATM   32  C   UNL     1      44.589 -14.297   7.352  1.00  0.00     0.027 A 
HETATM   33  C   UNL     1      44.316 -15.493   6.645  1.00  0.00     0.037 A 
ENDBRANCH   6  29
TORSDOF 6
ENDMDL
MODEL 10
REMARK VINA RESULT:      -7.5      4.591      9.152
REMARK  6 active torsions:
REMARK  status: ('A' for Active; 'I' for Inactive)
REMARK    1  A    between atoms: C_2  and  O_3 
REMARK    2  A    between atoms: C_2  and  C_4 
REMARK    3  A    between atoms: C_7  and  N_8 
REMARK       I    between atoms: N_8  and  C_9 
REMARK    4  A    between atoms: C_9  and  C_10 
REMARK    5  A    between atoms: C_13  and  C_14 
REMARK    6  A    between atoms: C_19  and  C_20 
ROOT
HETATM    1  C   UNL     1      41.296 -15.810   0.233  1.00  0.00     0.096 A 
HETATM    2  C   UNL     1      41.020 -14.475   0.467  1.00  0.00     0.138 A 
HETATM    3  N   UNL     1      40.917 -13.892  -0.776  1.00  0.00    -0.240 N 
HETATM    4  C   UNL     1      40.625 -12.489  -0.997  1.00  0.00     0.221 C 
HETATM    5  C   UNL     1      39.912 -11.906   0.235  1.00  0.00     0.068 C 
HETATM    6  C   UNL     1      40.664 -12.276   1.521  1.00  0.00     0.143 C 
HETATM    7  N   UNL     1      40.823 -13.737   1.590  1.00  0.00    -0.363 N 
HETATM    8  N   UNL     1      41.158 -14.731  -1.790  1.00  0.00    -0.181 NA
HETATM    9  C   UNL     1      41.342 -15.904  -1.181  1.00  0.00     0.160 A 
HETATM   10  H   UNL     1      40.436 -14.142   2.445  1.00  0.00     0.162 HD
ENDROOT
BRANCH   1  11
HETATM   11  C   UNL     1      41.539 -16.913   1.149  1.00  0.00     0.261 C 
HETATM   12  N   UNL     1      42.825 -16.955   1.655  1.00  0.00    -0.323 N 
HETATM   13  H   UNL     1      43.447 -16.226   1.326  1.00  0.00     0.169 HD
HETATM   14  O   UNL     1      40.655 -17.733   1.365  1.00  0.00    -0.267 OA
BRANCH  12  15
HETATM   15  C   UNL     1      43.400 -17.968   2.451  1.00  0.00     0.035 A 
HETATM   16  C   UNL     1      43.567 -17.874   3.834  1.00  0.00     0.030 A 
HETATM   17  C   UNL     1      44.085 -18.948   4.568  1.00  0.00     0.012 A 
HETATM   18  C   UNL     1      44.453 -20.138   3.933  1.00  0.00    -0.030 A 
HETATM   19  C   UNL     1      44.317 -20.220   2.540  1.00  0.00     0.012 A 
HETATM   20  C   UNL     1      43.796 -19.146   1.808  1.00  0.00     0.030 A 
BRANCH  18  21
HETATM   21  C   UNL     1      44.967 -21.308   4.745  1.00  0.00     0.147 C 
HETATM   22  C   UNL     1      44.721 -22.652   4.077  1.00  0.00     0.044 C 
BRANCH  21  23
HETATM   23  O   UNL     1      44.344 -21.311   6.030  1.00  0.00    -0.391 OA
HETATM   24  H   UNL     1      45.025 -21.053   6.675  1.00  0.00     0.210 HD
ENDBRANCH  21  23
ENDBRANCH  18  21
ENDBRANCH  12  15
ENDBRANCH   1  11
BRANCH   4  25
HETATM   25  C   UNL     1      39.779 -12.251  -2.230  1.00  0.00     0.409 C 
HETATM   26  F   UNL     1      38.720 -13.087  -2.304  1.00  0.00    -0.169 F 
HETATM   27  F   UNL     1      39.265 -10.989  -2.182  1.00  0.00    -0.169 F 
HETATM   28  F   UNL     1      40.470 -12.324  -3.385  1.00  0.00    -0.169 F 
ENDBRANCH   4  25
BRANCH   6  29
HETATM   29  C   UNL     1      39.996 -11.690   2.734  1.00  0.00     0.075 A 
HETATM   30  O   UNL     1      40.762 -10.859   3.505  1.00  0.00    -0.325 OA
HETATM   31  C   UNL     1      39.980 -10.422   4.523  1.00  0.00     0.142 A 
HETATM   32  C   UNL     1      38.718 -10.959   4.427  1.00  0.00     0.027 A 
HETATM   33  C   UNL     1      38.725 -11.776   3.271  1.00  0.00     0.037 A 
ENDBRANCH   6  29
TORSDOF 6
ENDMDL
