MODEL 1
REMARK VINA RESULT:      -9.4      0.000      0.000
REMARK  7 active torsions:
REMARK  status: ('A' for Active; 'I' for Inactive)
REMARK    1  A    between atoms: N_7  and  C_8 
REMARK    2  A    between atoms: C_8  and  C_9 
REMARK       I    between atoms: C_9  and  N_10 
REMARK    3  A    between atoms: N_10  and  C_11 
REMARK    4  A    between atoms: C_11  and  C_12 
REMARK    5  A    between atoms: C_12  and  C_13 
REMARK    6  A    between atoms: C_12  and  C_23 
REMARK    7  A    between atoms: C_26  and  O_27 
ROOT
HETATM    1  C   UNL     1      40.567 -16.751   2.140  1.00  0.00     0.136 C 
ENDROOT
BRANCH   1   2
HETATM    2  N   UNL     1      40.660 -15.430   1.538  1.00  0.00    -0.359 N 
HETATM    3  C   UNL     1      41.551 -15.178   0.516  1.00  0.00     0.236 C 
HETATM    4  O   UNL     1      42.299 -16.037   0.055  1.00  0.00    -0.272 OA
HETATM    5  H   UNL     1      40.005 -14.700   1.825  1.00  0.00     0.162 HD
BRANCH   3   6
HETATM    6  C   UNL     1      41.557 -13.736   0.021  1.00  0.00     0.239 C 
BRANCH   6   7
HETATM    7  N   UNL     1      41.016 -13.660  -1.317  1.00  0.00    -0.259 N 
HETATM    8  C   UNL     1      41.754 -13.385  -2.421  1.00  0.00     0.326 A 
HETATM    9  N   UNL     1      40.941 -13.458  -3.523  1.00  0.00    -0.324 N 
HETATM   10  O   UNL     1      42.939 -13.095  -2.454  1.00  0.00    -0.247 OA
HETATM   11  C   UNL     1      39.561 -13.766  -3.187  1.00  0.00     0.119 A 
HETATM   12  H   UNL     1      41.297 -13.263  -4.450  1.00  0.00     0.165 HD
HETATM   13  C   UNL     1      39.106 -15.083  -3.858  1.00  0.00     0.019 C 
HETATM   14  C   UNL     1      39.710 -13.885  -1.649  1.00  0.00     0.257 A 
HETATM   15  C   UNL     1      38.670 -12.572  -3.554  1.00  0.00     0.041 C 
HETATM   16  C   UNL     1      39.886 -16.320  -3.391  1.00  0.00     0.013 C 
HETATM   17  C   UNL     1      37.598 -15.329  -3.687  1.00  0.00     0.007 C 
HETATM   18  C   UNL     1      36.772 -14.131  -4.143  1.00  0.00     0.001 C 
HETATM   19  C   UNL     1      37.178 -12.861  -3.408  1.00  0.00     0.003 C 
HETATM   20  O   UNL     1      38.807 -14.158  -0.871  1.00  0.00    -0.270 OA
ENDBRANCH   6   7
ENDBRANCH   3   6
ENDBRANCH   1   2
BRANCH   1  21
HETATM   21  C   UNL     1      41.206 -16.851   3.540  1.00  0.00     0.071 C 
BRANCH  21  22
HETATM   22  C   UNL     1      41.839 -15.568   4.027  1.00  0.00    -0.020 A 
HETATM   23  C   UNL     1      41.186 -14.533   4.784  1.00  0.00    -0.001 A 
HETATM   24  C   UNL     1      42.128 -13.536   5.039  1.00  0.00     0.042 A 
HETATM   25  C   UNL     1      39.879 -14.358   5.285  1.00  0.00     0.014 A 
HETATM   26  C   UNL     1      41.833 -12.380   5.772  1.00  0.00     0.030 A 
HETATM   27  N   UNL     1      43.305 -13.933   4.452  1.00  0.00    -0.365 N 
HETATM   28  C   UNL     1      40.533 -12.236   6.262  1.00  0.00     0.002 A 
HETATM   29  C   UNL     1      39.566 -13.209   6.022  1.00  0.00     0.001 A 
HETATM   30  H   UNL     1      44.165 -13.402   4.480  1.00  0.00     0.165 HD
HETATM   31  C   UNL     1      43.145 -15.144   3.837  1.00  0.00     0.097 A 
ENDBRANCH  21  22
BRANCH  21  32
HETATM   32  C   UNL     1      42.304 -17.902   3.652  1.00  0.00    -0.048 A 
HETATM   33  C   UNL     1      42.741 -18.316   4.921  1.00  0.00     0.011 A 
HETATM   34  C   UNL     1      43.731 -19.294   5.056  1.00  0.00     0.037 A 
HETATM   35  C   UNL     1      44.302 -19.889   3.932  1.00  0.00     0.068 A 
HETATM   36  C   UNL     1      43.899 -19.470   2.666  1.00  0.00     0.037 A 
HETATM   37  C   UNL     1      42.913 -18.485   2.528  1.00  0.00     0.011 A 
BRANCH  35  38
HETATM   38  O   UNL     1      45.242 -20.845   4.200  1.00  0.00    -0.356 OA
HETATM   39  C   UNL     1      44.887 -21.835   5.158  1.00  0.00     0.210 C 
ENDBRANCH  35  38
ENDBRANCH  21  32
ENDBRANCH   1  21
TORSDOF 7
ENDMDL
MODEL 2
REMARK VINA RESULT:      -9.3      2.640      5.372
REMARK  7 active torsions:
REMARK  status: ('A' for Active; 'I' for Inactive)
REMARK    1  A    between atoms: N_7  and  C_8 
REMARK    2  A    between atoms: C_8  and  C_9 
REMARK       I    between atoms: C_9  and  N_10 
REMARK    3  A    between atoms: N_10  and  C_11 
REMARK    4  A    between atoms: C_11  and  C_12 
REMARK    5  A    between atoms: C_12  and  C_13 
REMARK    6  A    between atoms: C_12  and  C_23 
REMARK    7  A    between atoms: C_26  and  O_27 
ROOT
HETATM    1  C   UNL     1      41.291 -16.961   4.558  1.00  0.00     0.136 C 
ENDROOT
BRANCH   1   2
HETATM    2  N   UNL     1      40.538 -16.673   3.348  1.00  0.00    -0.359 N 
HETATM    3  C   UNL     1      40.218 -15.376   3.004  1.00  0.00     0.236 C 
HETATM    4  O   UNL     1      40.550 -14.405   3.679  1.00  0.00    -0.272 OA
HETATM    5  H   UNL     1      40.308 -17.434   2.706  1.00  0.00     0.162 HD
BRANCH   3   6
HETATM    6  C   UNL     1      39.391 -15.243   1.731  1.00  0.00     0.239 C 
BRANCH   6   7
HETATM    7  N   UNL     1      40.238 -14.892   0.613  1.00  0.00    -0.259 N 
HETATM    8  C   UNL     1      41.150 -15.729   0.058  1.00  0.00     0.326 A 
HETATM    9  N   UNL     1      41.726 -15.101  -1.017  1.00  0.00    -0.324 N 
HETATM   10  O   UNL     1      41.444 -16.848   0.444  1.00  0.00    -0.247 OA
HETATM   11  C   UNL     1      41.226 -13.750  -1.215  1.00  0.00     0.119 A 
HETATM   12  H   UNL     1      42.452 -15.550  -1.558  1.00  0.00     0.165 HD
HETATM   13  C   UNL     1      40.564 -13.600  -2.605  1.00  0.00     0.019 C 
HETATM   14  C   UNL     1      40.211 -13.695  -0.046  1.00  0.00     0.257 A 
HETATM   15  C   UNL     1      42.368 -12.748  -0.988  1.00  0.00     0.041 C 
HETATM   16  C   UNL     1      39.325 -14.485  -2.800  1.00  0.00     0.013 C 
HETATM   17  C   UNL     1      40.210 -12.138  -2.922  1.00  0.00     0.007 C 
HETATM   18  C   UNL     1      41.409 -11.213  -2.750  1.00  0.00     0.001 C 
HETATM   19  C   UNL     1      41.994 -11.313  -1.348  1.00  0.00     0.003 C 
HETATM   20  O   UNL     1      39.491 -12.744   0.221  1.00  0.00    -0.270 OA
ENDBRANCH   6   7
ENDBRANCH   3   6
ENDBRANCH   1   2
BRANCH   1  21
HETATM   21  C   UNL     1      42.814 -16.770   4.412  1.00  0.00     0.071 C 
BRANCH  21  22
HETATM   22  C   UNL     1      43.616 -18.043   4.548  1.00  0.00    -0.020 A 
HETATM   23  C   UNL     1      43.656 -19.127   3.602  1.00  0.00    -0.001 A 
HETATM   24  C   UNL     1      44.525 -20.096   4.103  1.00  0.00     0.042 A 
HETATM   25  C   UNL     1      43.038 -19.368   2.356  1.00  0.00     0.014 A 
HETATM   26  C   UNL     1      44.813 -21.286   3.424  1.00  0.00     0.030 A 
HETATM   27  N   UNL     1      44.989 -19.635   5.312  1.00  0.00    -0.365 N 
HETATM   28  C   UNL     1      44.193 -21.494   2.189  1.00  0.00     0.002 A 
HETATM   29  C   UNL     1      43.316 -20.551   1.661  1.00  0.00     0.001 A 
HETATM   30  H   UNL     1      45.641 -20.134   5.902  1.00  0.00     0.165 HD
HETATM   31  C   UNL     1      44.447 -18.412   5.594  1.00  0.00     0.097 A 
ENDBRANCH  21  22
BRANCH  21  32
HETATM   32  C   UNL     1      43.423 -15.807   5.425  1.00  0.00    -0.048 A 
HETATM   33  C   UNL     1      43.404 -16.134   6.791  1.00  0.00     0.011 A 
HETATM   34  C   UNL     1      43.975 -15.283   7.741  1.00  0.00     0.037 A 
HETATM   35  C   UNL     1      44.585 -14.091   7.354  1.00  0.00     0.068 A 
HETATM   36  C   UNL     1      44.589 -13.739   6.006  1.00  0.00     0.037 A 
HETATM   37  C   UNL     1      44.011 -14.587   5.053  1.00  0.00     0.011 A 
BRANCH  35  38
HETATM   38  O   UNL     1      45.124 -13.359   8.376  1.00  0.00    -0.356 OA
HETATM   39  C   UNL     1      44.404 -12.199   8.775  1.00  0.00     0.210 C 
ENDBRANCH  35  38
ENDBRANCH  21  32
ENDBRANCH   1  21
TORSDOF 7
ENDMDL
MODEL 3
REMARK VINA RESULT:      -9.3      5.581      9.170
REMARK  7 active torsions:
REMARK  status: ('A' for Active; 'I' for Inactive)
REMARK    1  A    between atoms: N_7  and  C_8 
REMARK    2  A    between atoms: C_8  and  C_9 
REMARK       I    between atoms: C_9  and  N_10 
REMARK    3  A    between atoms: N_10  and  C_11 
REMARK    4  A    between atoms: C_11  and  C_12 
REMARK    5  A    between atoms: C_12  and  C_13 
REMARK    6  A    between atoms: C_12  and  C_23 
REMARK    7  A    between atoms: C_26  and  O_27 
ROOT
HETATM    1  C   UNL     1      44.052 -14.499   7.254  1.00  0.00     0.136 C 
ENDROOT
BRANCH   1   2
HETATM    2  N   UNL     1      43.956 -13.138   7.757  1.00  0.00    -0.359 N 
HETATM    3  C   UNL     1      44.967 -12.589   8.518  1.00  0.00     0.236 C 
HETATM    4  O   UNL     1      45.993 -13.201   8.805  1.00  0.00    -0.272 OA
HETATM    5  H   UNL     1      43.163 -12.555   7.480  1.00  0.00     0.162 HD
BRANCH   3   6
HETATM    6  C   UNL     1      44.697 -11.170   9.004  1.00  0.00     0.239 C 
BRANCH   6   7
HETATM    7  N   UNL     1      43.419 -11.103   9.677  1.00  0.00    -0.259 N 
HETATM    8  C   UNL     1      43.155 -11.696  10.868  1.00  0.00     0.326 A 
HETATM    9  N   UNL     1      41.875 -11.374  11.245  1.00  0.00    -0.324 N 
HETATM   10  O   UNL     1      43.903 -12.418  11.506  1.00  0.00    -0.247 OA
HETATM   11  C   UNL     1      41.191 -10.545  10.267  1.00  0.00     0.119 A 
HETATM   12  H   UNL     1      41.475 -11.738  12.099  1.00  0.00     0.165 HD
HETATM   13  C   UNL     1      40.770  -9.191  10.884  1.00  0.00     0.019 C 
HETATM   14  C   UNL     1      42.330 -10.413   9.225  1.00  0.00     0.257 A 
HETATM   15  C   UNL     1      40.006 -11.325   9.680  1.00  0.00     0.041 C 
HETATM   16  C   UNL     1      41.951  -8.324  11.343  1.00  0.00     0.013 C 
HETATM   17  C   UNL     1      39.870  -8.378   9.938  1.00  0.00     0.007 C 
HETATM   18  C   UNL     1      38.674  -9.191   9.456  1.00  0.00     0.001 C 
HETATM   19  C   UNL     1      39.113 -10.480   8.775  1.00  0.00     0.003 C 
HETATM   20  O   UNL     1      42.264  -9.776   8.183  1.00  0.00    -0.270 OA
ENDBRANCH   6   7
ENDBRANCH   3   6
ENDBRANCH   1   2
BRANCH   1  21
HETATM   21  C   UNL     1      43.397 -14.708   5.875  1.00  0.00     0.071 C 
BRANCH  21  22
HETATM   22  C   UNL     1      41.900 -14.505   5.861  1.00  0.00    -0.020 A 
HETATM   23  C   UNL     1      41.213 -13.265   5.613  1.00  0.00    -0.001 A 
HETATM   24  C   UNL     1      39.842 -13.519   5.678  1.00  0.00     0.042 A 
HETATM   25  C   UNL     1      41.633 -11.949   5.328  1.00  0.00     0.014 A 
HETATM   26  C   UNL     1      38.874 -12.530   5.468  1.00  0.00     0.030 A 
HETATM   27  N   UNL     1      39.693 -14.854   5.968  1.00  0.00    -0.365 N 
HETATM   28  C   UNL     1      39.319 -11.237   5.180  1.00  0.00     0.002 A 
HETATM   29  C   UNL     1      40.679 -10.947   5.113  1.00  0.00     0.001 A 
HETATM   30  H   UNL     1      38.802 -15.319   6.072  1.00  0.00     0.165 HD
HETATM   31  C   UNL     1      40.916 -15.454   6.087  1.00  0.00     0.097 A 
ENDBRANCH  21  22
BRANCH  21  32
HETATM   32  C   UNL     1      43.615 -16.096   5.282  1.00  0.00    -0.048 A 
HETATM   33  C   UNL     1      43.324 -16.325   3.928  1.00  0.00     0.011 A 
HETATM   34  C   UNL     1      43.535 -17.581   3.351  1.00  0.00     0.037 A 
HETATM   35  C   UNL     1      44.045 -18.635   4.107  1.00  0.00     0.068 A 
HETATM   36  C   UNL     1      44.313 -18.431   5.458  1.00  0.00     0.037 A 
HETATM   37  C   UNL     1      44.097 -17.176   6.040  1.00  0.00     0.011 A 
BRANCH  35  38
HETATM   38  O   UNL     1      44.225 -19.804   3.420  1.00  0.00    -0.356 OA
HETATM   39  C   UNL     1      43.654 -19.871   2.119  1.00  0.00     0.210 C 
ENDBRANCH  35  38
ENDBRANCH  21  32
ENDBRANCH   1  21
TORSDOF 7
ENDMDL
MODEL 4
REMARK VINA RESULT:      -9.2      3.065      7.069
REMARK  7 active torsions:
REMARK  status: ('A' for Active; 'I' for Inactive)
REMARK    1  A    between atoms: N_7  and  C_8 
REMARK    2  A    between atoms: C_8  and  C_9 
REMARK       I    between atoms: C_9  and  N_10 
REMARK    3  A    between atoms: N_10  and  C_11 
REMARK    4  A    between atoms: C_11  and  C_12 
REMARK    5  A    between atoms: C_12  and  C_13 
REMARK    6  A    between atoms: C_12  and  C_23 
REMARK    7  A    between atoms: C_26  and  O_27 
ROOT
HETATM    1  C   UNL     1      40.776 -12.398   3.803  1.00  0.00     0.136 C 
ENDROOT
BRANCH   1   2
HETATM    2  N   UNL     1      40.483 -13.552   2.969  1.00  0.00    -0.359 N 
HETATM    3  C   UNL     1      39.345 -13.595   2.191  1.00  0.00     0.236 C 
HETATM    4  O   UNL     1      38.530 -12.677   2.150  1.00  0.00    -0.272 OA
HETATM    5  H   UNL     1      41.167 -14.308   2.900  1.00  0.00     0.162 HD
BRANCH   3   6
HETATM    6  C   UNL     1      39.161 -14.889   1.407  1.00  0.00     0.239 C 
BRANCH   6   7
HETATM    7  N   UNL     1      40.439 -15.521   1.170  1.00  0.00    -0.259 N 
HETATM    8  C   UNL     1      41.202 -15.305   0.069  1.00  0.00     0.326 A 
HETATM    9  N   UNL     1      42.372 -16.009   0.200  1.00  0.00    -0.324 N 
HETATM   10  O   UNL     1      40.910 -14.623  -0.899  1.00  0.00    -0.247 OA
HETATM   11  C   UNL     1      42.431 -16.782   1.430  1.00  0.00     0.119 A 
HETATM   12  H   UNL     1      43.073 -16.000  -0.529  1.00  0.00     0.165 HD
HETATM   13  C   UNL     1      43.628 -16.343   2.306  1.00  0.00     0.019 C 
HETATM   14  C   UNL     1      41.058 -16.385   2.028  1.00  0.00     0.257 A 
HETATM   15  C   UNL     1      42.461 -18.279   1.087  1.00  0.00     0.041 C 
HETATM   16  C   UNL     1      43.543 -14.888   2.787  1.00  0.00     0.013 C 
HETATM   17  C   UNL     1      43.834 -17.275   3.511  1.00  0.00     0.007 C 
HETATM   18  C   UNL     1      43.931 -18.736   3.089  1.00  0.00     0.001 C 
HETATM   19  C   UNL     1      42.704 -19.172   2.301  1.00  0.00     0.003 C 
HETATM   20  O   UNL     1      40.618 -16.768   3.103  1.00  0.00    -0.270 OA
ENDBRANCH   6   7
ENDBRANCH   3   6
ENDBRANCH   1   2
BRANCH   1  21
HETATM   21  C   UNL     1      41.518 -12.738   5.110  1.00  0.00     0.071 C 
BRANCH  21  22
HETATM   22  C   UNL     1      41.271 -14.140   5.618  1.00  0.00    -0.020 A 
HETATM   23  C   UNL     1      42.263 -15.039   6.146  1.00  0.00    -0.001 A 
HETATM   24  C   UNL     1      41.614 -16.219   6.511  1.00  0.00     0.042 A 
HETATM   25  C   UNL     1      43.656 -14.953   6.355  1.00  0.00     0.014 A 
HETATM   26  C   UNL     1      42.282 -17.311   7.080  1.00  0.00     0.030 A 
HETATM   27  N   UNL     1      40.283 -16.058   6.209  1.00  0.00    -0.365 N 
HETATM   28  C   UNL     1      43.660 -17.194   7.283  1.00  0.00     0.002 A 
HETATM   29  C   UNL     1      44.340 -16.034   6.925  1.00  0.00     0.001 A 
HETATM   30  H   UNL     1      39.572 -16.757   6.371  1.00  0.00     0.165 HD
HETATM   31  C   UNL     1      40.065 -14.822   5.667  1.00  0.00     0.097 A 
ENDBRANCH  21  22
BRANCH  21  32
HETATM   32  C   UNL     1      41.173 -11.826   6.282  1.00  0.00    -0.048 A 
HETATM   33  C   UNL     1      39.839 -11.435   6.487  1.00  0.00     0.011 A 
HETATM   34  C   UNL     1      39.488 -10.618   7.566  1.00  0.00     0.037 A 
HETATM   35  C   UNL     1      40.454 -10.177   8.469  1.00  0.00     0.068 A 
HETATM   36  C   UNL     1      41.785 -10.534   8.264  1.00  0.00     0.037 A 
HETATM   37  C   UNL     1      42.140 -11.347   7.181  1.00  0.00     0.011 A 
BRANCH  35  38
HETATM   38  O   UNL     1      39.979  -9.403   9.490  1.00  0.00    -0.356 OA
HETATM   39  C   UNL     1      39.610 -10.082  10.684  1.00  0.00     0.210 C 
ENDBRANCH  35  38
ENDBRANCH  21  32
ENDBRANCH   1  21
TORSDOF 7
ENDMDL
MODEL 5
REMARK VINA RESULT:      -9.0      1.928      2.535
REMARK  7 active torsions:
REMARK  status: ('A' for Active; 'I' for Inactive)
REMARK    1  A    between atoms: N_7  and  C_8 
REMARK    2  A    between atoms: C_8  and  C_9 
REMARK       I    between atoms: C_9  and  N_10 
REMARK    3  A    between atoms: N_10  and  C_11 
REMARK    4  A    between atoms: C_11  and  C_12 
REMARK    5  A    between atoms: C_12  and  C_13 
REMARK    6  A    between atoms: C_12  and  C_23 
REMARK    7  A    between atoms: C_26  and  O_27 
ROOT
HETATM    1  C   UNL     1      40.762 -17.122   1.632  1.00  0.00     0.136 C 
ENDROOT
BRANCH   1   2
HETATM    2  N   UNL     1      39.970 -15.970   1.232  1.00  0.00    -0.359 N 
HETATM    3  C   UNL     1      40.372 -15.161   0.189  1.00  0.00     0.236 C 
HETATM    4  O   UNL     1      41.397 -15.364  -0.457  1.00  0.00    -0.272 OA
HETATM    5  H   UNL     1      39.067 -15.801   1.679  1.00  0.00     0.162 HD
BRANCH   3   6
HETATM    6  C   UNL     1      39.457 -13.972  -0.080  1.00  0.00     0.239 C 
BRANCH   6   7
HETATM    7  N   UNL     1      40.226 -12.841  -0.551  1.00  0.00    -0.259 N 
HETATM    8  C   UNL     1      41.061 -12.112   0.230  1.00  0.00     0.326 A 
HETATM    9  N   UNL     1      41.675 -11.164  -0.549  1.00  0.00    -0.324 N 
HETATM   10  O   UNL     1      41.238 -12.241   1.430  1.00  0.00    -0.247 OA
HETATM   11  C   UNL     1      41.234 -11.200  -1.934  1.00  0.00     0.119 A 
HETATM   12  H   UNL     1      42.324 -10.499  -0.150  1.00  0.00     0.165 HD
HETATM   13  C   UNL     1      42.420 -11.479  -2.887  1.00  0.00     0.019 C 
HETATM   14  C   UNL     1      40.237 -12.382  -1.838  1.00  0.00     0.257 A 
HETATM   15  C   UNL     1      40.497  -9.895  -2.266  1.00  0.00     0.041 C 
HETATM   16  C   UNL     1      43.080 -12.848  -2.673  1.00  0.00     0.013 C 
HETATM   17  C   UNL     1      42.023 -11.322  -4.365  1.00  0.00     0.007 C 
HETATM   18  C   UNL     1      41.367  -9.973  -4.636  1.00  0.00     0.001 C 
HETATM   19  C   UNL     1      40.151  -9.755  -3.746  1.00  0.00     0.003 C 
HETATM   20  O   UNL     1      39.590 -12.838  -2.769  1.00  0.00    -0.270 OA
ENDBRANCH   6   7
ENDBRANCH   3   6
ENDBRANCH   1   2
BRANCH   1  21
HETATM   21  C   UNL     1      41.345 -17.021   3.055  1.00  0.00     0.071 C 
BRANCH  21  22
HETATM   22  C   UNL     1      41.941 -15.673   3.388  1.00  0.00    -0.020 A 
HETATM   23  C   UNL     1      41.416 -14.722   4.332  1.00  0.00    -0.001 A 
HETATM   24  C   UNL     1      42.273 -13.621   4.346  1.00  0.00     0.042 A 
HETATM   25  C   UNL     1      40.293 -14.702   5.186  1.00  0.00     0.014 A 
HETATM   26  C   UNL     1      42.069 -12.508   5.171  1.00  0.00     0.030 A 
HETATM   27  N   UNL     1      43.273 -13.876   3.439  1.00  0.00    -0.365 N 
HETATM   28  C   UNL     1      40.952 -12.519   6.011  1.00  0.00     0.002 A 
HETATM   29  C   UNL     1      40.074 -13.599   6.020  1.00  0.00     0.001 A 
HETATM   30  H   UNL     1      44.039 -13.248   3.242  1.00  0.00     0.165 HD
HETATM   31  C   UNL     1      43.083 -15.097   2.854  1.00  0.00     0.097 A 
ENDBRANCH  21  22
BRANCH  21  32
HETATM   32  C   UNL     1      42.452 -18.027   3.350  1.00  0.00    -0.048 A 
HETATM   33  C   UNL     1      42.830 -18.272   4.681  1.00  0.00     0.011 A 
HETATM   34  C   UNL     1      43.826 -19.205   4.984  1.00  0.00     0.037 A 
HETATM   35  C   UNL     1      44.463 -19.921   3.971  1.00  0.00     0.068 A 
HETATM   36  C   UNL     1      44.120 -19.669   2.645  1.00  0.00     0.037 A 
HETATM   37  C   UNL     1      43.127 -18.730   2.338  1.00  0.00     0.011 A 
BRANCH  35  38
HETATM   38  O   UNL     1      45.403 -20.817   4.401  1.00  0.00    -0.356 OA
HETATM   39  C   UNL     1      44.928 -21.913   5.174  1.00  0.00     0.210 C 
ENDBRANCH  35  38
ENDBRANCH  21  32
ENDBRANCH   1  21
TORSDOF 7
ENDMDL
MODEL 6
REMARK VINA RESULT:      -8.9      1.995      3.185
REMARK  7 active torsions:
REMARK  status: ('A' for Active; 'I' for Inactive)
REMARK    1  A    between atoms: N_7  and  C_8 
REMARK    2  A    between atoms: C_8  and  C_9 
REMARK       I    between atoms: C_9  and  N_10 
REMARK    3  A    between atoms: N_10  and  C_11 
REMARK    4  A    between atoms: C_11  and  C_12 
REMARK    5  A    between atoms: C_12  and  C_13 
REMARK    6  A    between atoms: C_12  and  C_23 
REMARK    7  A    between atoms: C_26  and  O_27 
ROOT
HETATM    1  C   UNL     1      41.079 -17.168   1.450  1.00  0.00     0.136 C 
ENDROOT
BRANCH   1   2
HETATM    2  N   UNL     1      40.214 -16.076   1.033  1.00  0.00    -0.359 N 
HETATM    3  C   UNL     1      40.636 -15.155   0.096  1.00  0.00     0.236 C 
HETATM    4  O   UNL     1      41.741 -15.205  -0.438  1.00  0.00    -0.272 OA
HETATM    5  H   UNL     1      39.255 -16.033   1.382  1.00  0.00     0.162 HD
BRANCH   3   6
HETATM    6  C   UNL     1      39.632 -14.049  -0.202  1.00  0.00     0.239 C 
BRANCH   6   7
HETATM    7  N   UNL     1      40.214 -13.064  -1.086  1.00  0.00    -0.259 N 
HETATM    8  C   UNL     1      40.075 -13.077  -2.436  1.00  0.00     0.326 A 
HETATM    9  N   UNL     1      40.695 -11.968  -2.952  1.00  0.00    -0.324 N 
HETATM   10  O   UNL     1      39.517 -13.931  -3.104  1.00  0.00    -0.247 OA
HETATM   11  C   UNL     1      41.329 -11.150  -1.931  1.00  0.00     0.119 A 
HETATM   12  H   UNL     1      40.725 -11.802  -3.949  1.00  0.00     0.165 HD
HETATM   13  C   UNL     1      40.735  -9.722  -1.916  1.00  0.00     0.019 C 
HETATM   14  C   UNL     1      40.947 -11.984  -0.683  1.00  0.00     0.257 A 
HETATM   15  C   UNL     1      42.850 -11.159  -2.145  1.00  0.00     0.041 C 
HETATM   16  C   UNL     1      39.244  -9.675  -1.554  1.00  0.00     0.013 C 
HETATM   17  C   UNL     1      41.520  -8.778  -0.990  1.00  0.00     0.007 C 
HETATM   18  C   UNL     1      43.011  -8.781  -1.310  1.00  0.00     0.001 C 
HETATM   19  C   UNL     1      43.595 -10.185  -1.236  1.00  0.00     0.003 C 
HETATM   20  O   UNL     1      41.238 -11.703   0.471  1.00  0.00    -0.270 OA
ENDBRANCH   6   7
ENDBRANCH   3   6
ENDBRANCH   1   2
BRANCH   1  21
HETATM   21  C   UNL     1      41.528 -17.089   2.922  1.00  0.00     0.071 C 
BRANCH  21  22
HETATM   22  C   UNL     1      42.121 -15.757   3.320  1.00  0.00    -0.020 A 
HETATM   23  C   UNL     1      41.549 -14.817   4.248  1.00  0.00    -0.001 A 
HETATM   24  C   UNL     1      42.419 -13.730   4.339  1.00  0.00     0.042 A 
HETATM   25  C   UNL     1      40.374 -14.796   5.028  1.00  0.00     0.014 A 
HETATM   26  C   UNL     1      42.178 -12.630   5.172  1.00  0.00     0.030 A 
HETATM   27  N   UNL     1      43.472 -13.983   3.494  1.00  0.00    -0.365 N 
HETATM   28  C   UNL     1      41.010 -12.640   5.938  1.00  0.00     0.002 A 
HETATM   29  C   UNL     1      40.117 -13.706   5.868  1.00  0.00     0.001 A 
HETATM   30  H   UNL     1      44.259 -13.364   3.360  1.00  0.00     0.165 HD
HETATM   31  C   UNL     1      43.303 -15.190   2.872  1.00  0.00     0.097 A 
ENDBRANCH  21  22
BRANCH  21  32
HETATM   32  C   UNL     1      42.579 -18.123   3.312  1.00  0.00    -0.048 A 
HETATM   33  C   UNL     1      42.915 -18.293   4.665  1.00  0.00     0.011 A 
HETATM   34  C   UNL     1      43.858 -19.248   5.056  1.00  0.00     0.037 A 
HETATM   35  C   UNL     1      44.483 -20.060   4.110  1.00  0.00     0.068 A 
HETATM   36  C   UNL     1      44.180 -19.885   2.762  1.00  0.00     0.037 A 
HETATM   37  C   UNL     1      43.240 -18.924   2.368  1.00  0.00     0.011 A 
BRANCH  35  38
HETATM   38  O   UNL     1      45.368 -20.967   4.623  1.00  0.00    -0.356 OA
HETATM   39  C   UNL     1      44.873 -22.281   4.849  1.00  0.00     0.210 C 
ENDBRANCH  35  38
ENDBRANCH  21  32
ENDBRANCH   1  21
TORSDOF 7
ENDMDL
MODEL 7
REMARK VINA RESULT:      -8.9      4.883      9.836
REMARK  7 active torsions:
REMARK  status: ('A' for Active; 'I' for Inactive)
REMARK    1  A    between atoms: N_7  and  C_8 
REMARK    2  A    between atoms: C_8  and  C_9 
REMARK       I    between atoms: C_9  and  N_10 
REMARK    3  A    between atoms: N_10  and  C_11 
REMARK    4  A    between atoms: C_11  and  C_12 
REMARK    5  A    between atoms: C_12  and  C_13 
REMARK    6  A    between atoms: C_12  and  C_23 
REMARK    7  A    between atoms: C_26  and  O_27 
ROOT
HETATM    1  C   UNL     1      40.879 -13.189   5.958  1.00  0.00     0.136 C 
ENDROOT
BRANCH   1   2
HETATM    2  N   UNL     1      41.478 -11.937   6.392  1.00  0.00    -0.359 N 
HETATM    3  C   UNL     1      40.694 -10.847   6.707  1.00  0.00     0.236 C 
HETATM    4  O   UNL     1      39.467 -10.868   6.649  1.00  0.00    -0.272 OA
HETATM    5  H   UNL     1      42.488 -11.888   6.539  1.00  0.00     0.162 HD
BRANCH   3   6
HETATM    6  C   UNL     1      41.473  -9.599   7.105  1.00  0.00     0.239 C 
BRANCH   6   7
HETATM    7  N   UNL     1      41.334  -9.348   8.522  1.00  0.00    -0.259 N 
HETATM    8  C   UNL     1      40.484  -8.433   9.052  1.00  0.00     0.326 A 
HETATM    9  N   UNL     1      40.559  -8.504  10.420  1.00  0.00    -0.324 N 
HETATM   10  O   UNL     1      39.777  -7.651   8.438  1.00  0.00    -0.247 OA
HETATM   11  C   UNL     1      41.526  -9.487  10.881  1.00  0.00     0.119 A 
HETATM   12  H   UNL     1      40.016  -7.885  11.006  1.00  0.00     0.165 HD
HETATM   13  C   UNL     1      40.843 -10.574  11.745  1.00  0.00     0.019 C 
HETATM   14  C   UNL     1      42.008 -10.013   9.507  1.00  0.00     0.257 A 
HETATM   15  C   UNL     1      42.666  -8.770  11.618  1.00  0.00     0.041 C 
HETATM   16  C   UNL     1      39.802 -11.407  10.984  1.00  0.00     0.013 C 
HETATM   17  C   UNL     1      41.865 -11.509  12.412  1.00  0.00     0.007 C 
HETATM   18  C   UNL     1      42.923 -10.731  13.188  1.00  0.00     0.001 C 
HETATM   19  C   UNL     1      43.641  -9.726  12.300  1.00  0.00     0.003 C 
HETATM   20  O   UNL     1      42.839 -10.894   9.339  1.00  0.00    -0.270 OA
ENDBRANCH   6   7
ENDBRANCH   3   6
ENDBRANCH   1   2
BRANCH   1  21
HETATM   21  C   UNL     1      41.833 -14.101   5.161  1.00  0.00     0.071 C 
BRANCH  21  22
HETATM   22  C   UNL     1      41.193 -14.781   3.973  1.00  0.00    -0.020 A 
HETATM   23  C   UNL     1      41.875 -15.564   2.975  1.00  0.00    -0.001 A 
HETATM   24  C   UNL     1      40.917 -16.020   2.068  1.00  0.00     0.042 A 
HETATM   25  C   UNL     1      43.219 -15.935   2.766  1.00  0.00     0.014 A 
HETATM   26  C   UNL     1      41.233 -16.830   0.971  1.00  0.00     0.030 A 
HETATM   27  N   UNL     1      39.703 -15.527   2.481  1.00  0.00    -0.365 N 
HETATM   28  C   UNL     1      42.572 -17.188   0.793  1.00  0.00     0.002 A 
HETATM   29  C   UNL     1      43.554 -16.747   1.675  1.00  0.00     0.001 A 
HETATM   30  H   UNL     1      38.826 -15.702   2.011  1.00  0.00     0.165 HD
HETATM   31  C   UNL     1      39.855 -14.779   3.616  1.00  0.00     0.097 A 
ENDBRANCH  21  22
BRANCH  21  32
HETATM   32  C   UNL     1      42.449 -15.229   5.980  1.00  0.00    -0.048 A 
HETATM   33  C   UNL     1      41.631 -16.267   6.456  1.00  0.00     0.011 A 
HETATM   34  C   UNL     1      42.171 -17.328   7.189  1.00  0.00     0.037 A 
HETATM   35  C   UNL     1      43.537 -17.383   7.460  1.00  0.00     0.068 A 
HETATM   36  C   UNL     1      44.358 -16.347   7.019  1.00  0.00     0.037 A 
HETATM   37  C   UNL     1      43.818 -15.281   6.289  1.00  0.00     0.011 A 
BRANCH  35  38
HETATM   38  O   UNL     1      43.942 -18.481   8.168  1.00  0.00    -0.356 OA
HETATM   39  C   UNL     1      43.853 -19.735   7.501  1.00  0.00     0.210 C 
ENDBRANCH  35  38
ENDBRANCH  21  32
ENDBRANCH   1  21
TORSDOF 7
ENDMDL
MODEL 8
REMARK VINA RESULT:      -8.9      2.152      3.366
REMARK  7 active torsions:
REMARK  status: ('A' for Active; 'I' for Inactive)
REMARK    1  A    between atoms: N_7  and  C_8 
REMARK    2  A    between atoms: C_8  and  C_9 
REMARK       I    between atoms: C_9  and  N_10 
REMARK    3  A    between atoms: N_10  and  C_11 
REMARK    4  A    between atoms: C_11  and  C_12 
REMARK    5  A    between atoms: C_12  and  C_13 
REMARK    6  A    between atoms: C_12  and  C_23 
REMARK    7  A    between atoms: C_26  and  O_27 
ROOT
HETATM    1  C   UNL     1      41.725 -16.788   0.850  1.00  0.00     0.136 C 
ENDROOT
BRANCH   1   2
HETATM    2  N   UNL     1      41.939 -15.457   0.304  1.00  0.00    -0.359 N 
HETATM    3  C   UNL     1      41.520 -15.138  -0.971  1.00  0.00     0.236 C 
HETATM    4  O   UNL     1      40.946 -15.938  -1.705  1.00  0.00    -0.272 OA
HETATM    5  H   UNL     1      42.337 -14.728   0.899  1.00  0.00     0.162 HD
BRANCH   3   6
HETATM    6  C   UNL     1      41.855 -13.718  -1.412  1.00  0.00     0.239 C 
BRANCH   6   7
HETATM    7  N   UNL     1      40.881 -12.786  -0.891  1.00  0.00    -0.259 N 
HETATM    8  C   UNL     1      39.768 -12.396  -1.560  1.00  0.00     0.326 A 
HETATM    9  N   UNL     1      39.038 -11.563  -0.751  1.00  0.00    -0.324 N 
HETATM   10  O   UNL     1      39.456 -12.701  -2.699  1.00  0.00    -0.247 OA
HETATM   11  C   UNL     1      39.674 -11.325   0.535  1.00  0.00     0.119 A 
HETATM   12  H   UNL     1      38.176 -11.142  -1.074  1.00  0.00     0.165 HD
HETATM   13  C   UNL     1      38.770 -11.798   1.698  1.00  0.00     0.019 C 
HETATM   14  C   UNL     1      40.935 -12.204   0.345  1.00  0.00     0.257 A 
HETATM   15  C   UNL     1      40.058  -9.842   0.644  1.00  0.00     0.041 C 
HETATM   16  C   UNL     1      38.495 -13.308   1.695  1.00  0.00     0.013 C 
HETATM   17  C   UNL     1      39.324 -11.377   3.069  1.00  0.00     0.007 C 
HETATM   18  C   UNL     1      39.611  -9.880   3.130  1.00  0.00     0.001 C 
HETATM   19  C   UNL     1      40.569  -9.450   2.028  1.00  0.00     0.003 C 
HETATM   20  O   UNL     1      41.816 -12.365   1.177  1.00  0.00    -0.270 OA
ENDBRANCH   6   7
ENDBRANCH   3   6
ENDBRANCH   1   2
BRANCH   1  21
HETATM   21  C   UNL     1      41.836 -16.863   2.386  1.00  0.00     0.071 C 
BRANCH  21  22
HETATM   22  C   UNL     1      42.320 -15.587   3.037  1.00  0.00    -0.020 A 
HETATM   23  C   UNL     1      41.597 -14.799   4.000  1.00  0.00    -0.001 A 
HETATM   24  C   UNL     1      42.405 -13.717   4.353  1.00  0.00     0.042 A 
HETATM   25  C   UNL     1      40.332 -14.913   4.613  1.00  0.00     0.014 A 
HETATM   26  C   UNL     1      42.016 -12.751   5.289  1.00  0.00     0.030 A 
HETATM   27  N   UNL     1      43.567 -13.827   3.628  1.00  0.00    -0.365 N 
HETATM   28  C   UNL     1      40.760 -12.893   5.886  1.00  0.00     0.002 A 
HETATM   29  C   UNL     1      39.927 -13.957   5.553  1.00  0.00     0.001 A 
HETATM   30  H   UNL     1      44.339 -13.178   3.685  1.00  0.00     0.165 HD
HETATM   31  C   UNL     1      43.526 -14.938   2.831  1.00  0.00     0.097 A 
ENDBRANCH  21  22
BRANCH  21  32
HETATM   32  C   UNL     1      42.779 -17.948   2.893  1.00  0.00    -0.048 A 
HETATM   33  C   UNL     1      42.961 -18.118   4.275  1.00  0.00     0.011 A 
HETATM   34  C   UNL     1      43.802 -19.120   4.770  1.00  0.00     0.037 A 
HETATM   35  C   UNL     1      44.474 -19.979   3.902  1.00  0.00     0.068 A 
HETATM   36  C   UNL     1      44.325 -19.806   2.528  1.00  0.00     0.037 A 
HETATM   37  C   UNL     1      43.489 -18.799   2.030  1.00  0.00     0.011 A 
BRANCH  35  38
HETATM   38  O   UNL     1      45.248 -20.927   4.513  1.00  0.00    -0.356 OA
HETATM   39  C   UNL     1      44.760 -22.263   4.479  1.00  0.00     0.210 C 
ENDBRANCH  35  38
ENDBRANCH  21  32
ENDBRANCH   1  21
TORSDOF 7
ENDMDL
MODEL 9
REMARK VINA RESULT:      -8.8      2.783      8.574
REMARK  7 active torsions:
REMARK  status: ('A' for Active; 'I' for Inactive)
REMARK    1  A    between atoms: N_7  and  C_8 
REMARK    2  A    between atoms: C_8  and  C_9 
REMARK       I    between atoms: C_9  and  N_10 
REMARK    3  A    between atoms: N_10  and  C_11 
REMARK    4  A    between atoms: C_11  and  C_12 
REMARK    5  A    between atoms: C_12  and  C_13 
REMARK    6  A    between atoms: C_12  and  C_23 
REMARK    7  A    between atoms: C_26  and  O_27 
ROOT
HETATM    1  C   UNL     1      42.090 -12.240   0.912  1.00  0.00     0.136 C 
ENDROOT
BRANCH   1   2
HETATM    2  N   UNL     1      42.513 -12.882   2.147  1.00  0.00    -0.359 N 
HETATM    3  C   UNL     1      41.873 -12.617   3.339  1.00  0.00     0.236 C 
HETATM    4  O   UNL     1      40.922 -11.845   3.429  1.00  0.00    -0.272 OA
HETATM    5  H   UNL     1      43.244 -13.595   2.116  1.00  0.00     0.162 HD
BRANCH   3   6
HETATM    6  C   UNL     1      42.461 -13.336   4.547  1.00  0.00     0.239 C 
BRANCH   6   7
HETATM    7  N   UNL     1      42.102 -14.736   4.525  1.00  0.00    -0.259 N 
HETATM    8  C   UNL     1      41.056 -15.264   5.208  1.00  0.00     0.326 A 
HETATM    9  N   UNL     1      40.964 -16.600   4.909  1.00  0.00    -0.324 N 
HETATM   10  O   UNL     1      40.319 -14.677   5.983  1.00  0.00    -0.247 OA
HETATM   11  C   UNL     1      42.007 -17.047   4.001  1.00  0.00     0.119 A 
HETATM   12  H   UNL     1      40.258 -17.184   5.337  1.00  0.00     0.165 HD
HETATM   13  C   UNL     1      41.401 -17.617   2.697  1.00  0.00     0.019 C 
HETATM   14  C   UNL     1      42.741 -15.698   3.795  1.00  0.00     0.257 A 
HETATM   15  C   UNL     1      42.914 -18.053   4.725  1.00  0.00     0.041 C 
HETATM   16  C   UNL     1      40.613 -16.586   1.877  1.00  0.00     0.013 C 
HETATM   17  C   UNL     1      42.464 -18.281   1.807  1.00  0.00     0.007 C 
HETATM   18  C   UNL     1      43.275 -19.321   2.571  1.00  0.00     0.001 C 
HETATM   19  C   UNL     1      43.933 -18.720   3.805  1.00  0.00     0.003 C 
HETATM   20  O   UNL     1      43.716 -15.527   3.077  1.00  0.00    -0.270 OA
ENDBRANCH   6   7
ENDBRANCH   3   6
ENDBRANCH   1   2
BRANCH   1  21
HETATM   21  C   UNL     1      41.176 -13.112   0.030  1.00  0.00     0.071 C 
BRANCH  21  22
HETATM   22  C   UNL     1      41.465 -13.015  -1.451  1.00  0.00    -0.020 A 
HETATM   23  C   UNL     1      41.814 -11.818  -2.171  1.00  0.00    -0.001 A 
HETATM   24  C   UNL     1      42.010 -12.170  -3.507  1.00  0.00     0.042 A 
HETATM   25  C   UNL     1      41.991 -10.468  -1.805  1.00  0.00     0.014 A 
HETATM   26  C   UNL     1      42.379 -11.245  -4.491  1.00  0.00     0.030 A 
HETATM   27  N   UNL     1      41.778 -13.521  -3.607  1.00  0.00    -0.365 N 
HETATM   28  C   UNL     1      42.554  -9.916  -4.099  1.00  0.00     0.002 A 
HETATM   29  C   UNL     1      42.362  -9.529  -2.776  1.00  0.00     0.001 A 
HETATM   30  H   UNL     1      41.850 -14.051  -4.464  1.00  0.00     0.165 HD
HETATM   31  C   UNL     1      41.444 -14.038  -2.385  1.00  0.00     0.097 A 
ENDBRANCH  21  22
BRANCH  21  32
HETATM   32  C   UNL     1      39.690 -12.798   0.165  1.00  0.00    -0.048 A 
HETATM   33  C   UNL     1      39.274 -11.464   0.309  1.00  0.00     0.011 A 
HETATM   34  C   UNL     1      37.918 -11.143   0.413  1.00  0.00     0.037 A 
HETATM   35  C   UNL     1      36.944 -12.139   0.367  1.00  0.00     0.068 A 
HETATM   36  C   UNL     1      37.342 -13.469   0.251  1.00  0.00     0.037 A 
HETATM   37  C   UNL     1      38.701 -13.794   0.154  1.00  0.00     0.011 A 
BRANCH  35  38
HETATM   38  O   UNL     1      35.655 -11.692   0.457  1.00  0.00    -0.356 OA
HETATM   39  C   UNL     1      35.450 -10.486   1.183  1.00  0.00     0.210 C 
ENDBRANCH  35  38
ENDBRANCH  21  32
ENDBRANCH   1  21
TORSDOF 7
ENDMDL
MODEL 10
REMARK VINA RESULT:      -8.8      5.138     10.449
REMARK  7 active torsions:
REMARK  status: ('A' for Active; 'I' for Inactive)
REMARK    1  A    between atoms: N_7  and  C_8 
REMARK    2  A    between atoms: C_8  and  C_9 
REMARK       I    between atoms: C_9  and  N_10 
REMARK    3  A    between atoms: N_10  and  C_11 
REMARK    4  A    between atoms: C_11  and  C_12 
REMARK    5  A    between atoms: C_12  and  C_13 
REMARK    6  A    between atoms: C_12  and  C_23 
REMARK    7  A    between atoms: C_26  and  O_27 
ROOT
HETATM    1  C   UNL     1      41.712 -11.728   5.737  1.00  0.00     0.136 C 
ENDROOT
BRANCH   1   2
HETATM    2  N   UNL     1      40.834 -11.119   6.723  1.00  0.00    -0.359 N 
HETATM    3  C   UNL     1      41.050  -9.831   7.166  1.00  0.00     0.236 C 
HETATM    4  O   UNL     1      41.973  -9.131   6.758  1.00  0.00    -0.272 OA
HETATM    5  H   UNL     1      40.002 -11.625   7.035  1.00  0.00     0.162 HD
BRANCH   3   6
HETATM    6  C   UNL     1      40.069  -9.353   8.229  1.00  0.00     0.239 C 
BRANCH   6   7
HETATM    7  N   UNL     1      40.329 -10.013   9.489  1.00  0.00    -0.259 N 
HETATM    8  C   UNL     1      39.848 -11.237   9.820  1.00  0.00     0.326 A 
HETATM    9  N   UNL     1      40.342 -11.585  11.052  1.00  0.00    -0.324 N 
HETATM   10  O   UNL     1      39.085 -11.924   9.162  1.00  0.00    -0.247 OA
HETATM   11  C   UNL     1      41.183 -10.552  11.635  1.00  0.00     0.119 A 
HETATM   12  H   UNL     1      40.083 -12.458  11.492  1.00  0.00     0.165 HD
HETATM   13  C   UNL     1      42.614 -11.081  11.891  1.00  0.00     0.019 C 
HETATM   14  C   UNL     1      41.113  -9.511  10.490  1.00  0.00     0.257 A 
HETATM   15  C   UNL     1      40.512 -10.008  12.904  1.00  0.00     0.041 C 
HETATM   16  C   UNL     1      43.362 -11.491  10.615  1.00  0.00     0.013 C 
HETATM   17  C   UNL     1      43.465 -10.080  12.690  1.00  0.00     0.007 C 
HETATM   18  C   UNL     1      42.770  -9.642  13.974  1.00  0.00     0.001 C 
HETATM   19  C   UNL     1      41.398  -9.047  13.692  1.00  0.00     0.003 C 
HETATM   20  O   UNL     1      41.686  -8.431  10.481  1.00  0.00    -0.270 OA
ENDBRANCH   6   7
ENDBRANCH   3   6
ENDBRANCH   1   2
BRANCH   1  21
HETATM   21  C   UNL     1      41.459 -13.232   5.512  1.00  0.00     0.071 C 
BRANCH  21  22
HETATM   22  C   UNL     1      42.605 -14.124   5.930  1.00  0.00    -0.020 A 
HETATM   23  C   UNL     1      42.625 -15.563   5.876  1.00  0.00    -0.001 A 
HETATM   24  C   UNL     1      43.871 -15.987   6.339  1.00  0.00     0.042 A 
HETATM   25  C   UNL     1      41.699 -16.544   5.465  1.00  0.00     0.014 A 
HETATM   26  C   UNL     1      44.240 -17.336   6.405  1.00  0.00     0.030 A 
HETATM   27  N   UNL     1      44.581 -14.859   6.676  1.00  0.00    -0.365 N 
HETATM   28  C   UNL     1      43.305 -18.285   5.985  1.00  0.00     0.002 A 
HETATM   29  C   UNL     1      42.050 -17.898   5.523  1.00  0.00     0.001 A 
HETATM   30  H   UNL     1      45.524 -14.866   7.039  1.00  0.00     0.165 HD
HETATM   31  C   UNL     1      43.833 -13.739   6.443  1.00  0.00     0.097 A 
ENDBRANCH  21  22
BRANCH  21  32
HETATM   32  C   UNL     1      41.172 -13.609   4.063  1.00  0.00    -0.048 A 
HETATM   33  C   UNL     1      42.173 -13.441   3.092  1.00  0.00     0.011 A 
HETATM   34  C   UNL     1      41.947 -13.799   1.759  1.00  0.00     0.037 A 
HETATM   35  C   UNL     1      40.724 -14.339   1.364  1.00  0.00     0.068 A 
HETATM   36  C   UNL     1      39.712 -14.487   2.310  1.00  0.00     0.037 A 
HETATM   37  C   UNL     1      39.934 -14.123   3.644  1.00  0.00     0.011 A 
BRANCH  35  38
HETATM   38  O   UNL     1      40.638 -14.666   0.039  1.00  0.00    -0.356 OA
HETATM   39  C   UNL     1      41.337 -15.835  -0.373  1.00  0.00     0.210 C 
ENDBRANCH  35  38
ENDBRANCH  21  32
ENDBRANCH   1  21
TORSDOF 7
ENDMDL
