MODEL 1
REMARK VINA RESULT:      -7.7      0.000      0.000
REMARK  3 active torsions:
REMARK  status: ('A' for Active; 'I' for Inactive)
REMARK    1  A    between atoms: C_4  and  C_5 
REMARK    2  A    between atoms: C_11  and  C_12 
REMARK    3  A    between atoms: C_21  and  N_22 
ROOT
HETATM    1  C   UNL     1      40.827 -16.014   2.133  1.00  0.00     0.071 A 
HETATM    2  N   UNL     1      39.490 -16.356   2.136  1.00  0.00    -0.274 N 
HETATM    3  H   UNL     1      39.089 -17.264   2.344  1.00  0.00     0.189 HD
HETATM    4  N   UNL     1      38.662 -15.364   1.756  1.00  0.00    -0.148 NA
HETATM    5  C   UNL     1      39.508 -14.368   1.528  1.00  0.00     0.199 A 
HETATM    6  C   UNL     1      40.848 -14.673   1.784  1.00  0.00     0.036 A 
HETATM    7  C   UNL     1      41.915 -13.647   1.588  1.00  0.00     0.081 C 
HETATM    8  C   UNL     1      41.350 -12.489   0.744  1.00  0.00     0.077 C 
HETATM    9  C   UNL     1      42.299 -11.590   0.170  1.00  0.00     0.100 C 
HETATM   10  N   UNL     1      43.081 -10.879  -0.308  1.00  0.00    -0.192 NA
HETATM   11  C   UNL     1      40.020 -12.312   0.526  1.00  0.00     0.140 C 
HETATM   12  O   UNL     1      39.061 -13.206   1.019  1.00  0.00    -0.277 OA
ENDROOT
BRANCH   7  13
HETATM   13  C   UNL     1      42.561 -13.110   2.915  1.00  0.00     0.022 C 
HETATM   14  C   UNL     1      43.635 -14.025   3.460  1.00  0.00    -0.025 C 
HETATM   15  C   UNL     1      43.599 -14.582   4.679  1.00  0.00    -0.030 C 
HETATM   16  C   UNL     1      42.467 -14.395   5.644  1.00  0.00     0.027 C 
HETATM   17  C   UNL     1      41.217 -13.801   5.000  1.00  0.00     0.004 C 
HETATM   18  C   UNL     1      41.559 -12.683   4.017  1.00  0.00     0.010 C 
ENDBRANCH   7  13
BRANCH  11  19
HETATM   19  N   UNL     1      39.460 -11.277  -0.192  1.00  0.00    -0.282 NA
HETATM   20  H   UNL     1      39.986 -10.964  -1.004  1.00  0.00     0.126 HD
HETATM   21  H   UNL     1      38.477 -11.449  -0.395  1.00  0.00     0.126 HD
ENDBRANCH  11  19
BRANCH   1  22
HETATM   22  C   UNL     1      41.877 -16.983   2.414  1.00  0.00    -0.007 A 
HETATM   23  C   UNL     1      41.943 -17.614   3.664  1.00  0.00     0.014 A 
HETATM   24  C   UNL     1      42.955 -18.537   3.940  1.00  0.00     0.001 A 
HETATM   25  C   UNL     1      43.912 -18.834   2.972  1.00  0.00     0.000 A 
HETATM   26  C   UNL     1      43.858 -18.210   1.728  1.00  0.00     0.001 A 
HETATM   27  C   UNL     1      42.846 -17.288   1.449  1.00  0.00     0.014 A 
ENDBRANCH   1  22
TORSDOF 3
ENDMDL
MODEL 2
REMARK VINA RESULT:      -7.6      3.267      5.328
REMARK  3 active torsions:
REMARK  status: ('A' for Active; 'I' for Inactive)
REMARK    1  A    between atoms: C_4  and  C_5 
REMARK    2  A    between atoms: C_11  and  C_12 
REMARK    3  A    between atoms: C_21  and  N_22 
ROOT
HETATM    1  C   UNL     1      44.299 -18.611   4.818  1.00  0.00     0.071 A 
HETATM    2  N   UNL     1      45.067 -18.490   5.958  1.00  0.00    -0.274 N 
HETATM    3  H   UNL     1      45.717 -19.171   6.336  1.00  0.00     0.189 HD
HETATM    4  N   UNL     1      44.857 -17.354   6.651  1.00  0.00    -0.148 NA
HETATM    5  C   UNL     1      43.944 -16.741   5.909  1.00  0.00     0.199 A 
HETATM    6  C   UNL     1      43.588 -17.425   4.743  1.00  0.00     0.036 A 
HETATM    7  C   UNL     1      42.583 -16.850   3.799  1.00  0.00     0.081 C 
HETATM    8  C   UNL     1      41.814 -15.720   4.509  1.00  0.00     0.077 C 
HETATM    9  C   UNL     1      40.601 -15.284   3.897  1.00  0.00     0.100 C 
HETATM   10  N   UNL     1      39.606 -14.955   3.400  1.00  0.00    -0.192 NA
HETATM   11  C   UNL     1      42.238 -15.152   5.669  1.00  0.00     0.140 C 
HETATM   12  O   UNL     1      43.389 -15.593   6.335  1.00  0.00    -0.277 OA
ENDROOT
BRANCH   7  13
HETATM   13  C   UNL     1      43.176 -16.352   2.433  1.00  0.00     0.022 C 
HETATM   14  C   UNL     1      43.073 -14.853   2.257  1.00  0.00    -0.025 C 
HETATM   15  C   UNL     1      42.424 -14.259   1.245  1.00  0.00    -0.030 C 
HETATM   16  C   UNL     1      41.688 -15.009   0.176  1.00  0.00     0.027 C 
HETATM   17  C   UNL     1      41.453 -16.478   0.522  1.00  0.00     0.004 C 
HETATM   18  C   UNL     1      42.679 -17.111   1.176  1.00  0.00     0.010 C 
ENDBRANCH   7  13
BRANCH  11  19
HETATM   19  N   UNL     1      41.608 -14.118   6.328  1.00  0.00    -0.282 NA
HETATM   20  H   UNL     1      40.965 -13.563   5.769  1.00  0.00     0.126 HD
HETATM   21  H   UNL     1      41.206 -14.424   7.212  1.00  0.00     0.126 HD
ENDBRANCH  11  19
BRANCH   1  22
HETATM   22  C   UNL     1      44.313 -19.814   3.997  1.00  0.00    -0.007 A 
HETATM   23  C   UNL     1      43.894 -19.766   2.661  1.00  0.00     0.014 A 
HETATM   24  C   UNL     1      43.895 -20.920   1.874  1.00  0.00     0.001 A 
HETATM   25  C   UNL     1      44.312 -22.134   2.417  1.00  0.00     0.000 A 
HETATM   26  C   UNL     1      44.727 -22.195   3.745  1.00  0.00     0.001 A 
HETATM   27  C   UNL     1      44.727 -21.041   4.533  1.00  0.00     0.014 A 
ENDBRANCH   1  22
TORSDOF 3
ENDMDL
MODEL 3
REMARK VINA RESULT:      -7.4      3.534      4.852
REMARK  3 active torsions:
REMARK  status: ('A' for Active; 'I' for Inactive)
REMARK    1  A    between atoms: C_4  and  C_5 
REMARK    2  A    between atoms: C_11  and  C_12 
REMARK    3  A    between atoms: C_21  and  N_22 
ROOT
HETATM    1  C   UNL     1      42.089 -16.115   4.107  1.00  0.00     0.071 A 
HETATM    2  N   UNL     1      40.753 -15.787   3.996  1.00  0.00    -0.274 N 
HETATM    3  H   UNL     1      40.080 -16.165   3.338  1.00  0.00     0.189 HD
HETATM    4  N   UNL     1      40.351 -14.808   4.830  1.00  0.00    -0.148 NA
HETATM    5  C   UNL     1      41.466 -14.532   5.493  1.00  0.00     0.199 A 
HETATM    6  C   UNL     1      42.562 -15.325   5.142  1.00  0.00     0.036 A 
HETATM    7  C   UNL     1      43.883 -15.142   5.814  1.00  0.00     0.081 C 
HETATM    8  C   UNL     1      43.887 -13.791   6.555  1.00  0.00     0.077 C 
HETATM    9  C   UNL     1      45.157 -13.287   6.967  1.00  0.00     0.100 C 
HETATM   10  N   UNL     1      46.198 -12.879   7.277  1.00  0.00    -0.192 NA
HETATM   11  C   UNL     1      42.755 -13.082   6.808  1.00  0.00     0.140 C 
HETATM   12  O   UNL     1      41.496 -13.510   6.366  1.00  0.00    -0.277 OA
ENDROOT
BRANCH   7  13
HETATM   13  C   UNL     1      44.297 -16.310   6.779  1.00  0.00     0.022 C 
HETATM   14  C   UNL     1      45.101 -17.388   6.087  1.00  0.00    -0.025 C 
HETATM   15  C   UNL     1      44.734 -18.677   6.026  1.00  0.00    -0.030 C 
HETATM   16  C   UNL     1      43.458 -19.204   6.609  1.00  0.00     0.027 C 
HETATM   17  C   UNL     1      42.462 -18.106   6.974  1.00  0.00     0.004 C 
HETATM   18  C   UNL     1      43.149 -16.910   7.629  1.00  0.00     0.010 C 
ENDBRANCH   7  13
BRANCH  11  19
HETATM   19  N   UNL     1      42.698 -11.888   7.494  1.00  0.00    -0.282 NA
HETATM   20  H   UNL     1      42.649 -11.960   8.507  1.00  0.00     0.126 HD
HETATM   21  H   UNL     1      43.412 -11.236   7.174  1.00  0.00     0.126 HD
ENDBRANCH  11  19
BRANCH   1  22
HETATM   22  C   UNL     1      42.728 -17.076   3.218  1.00  0.00    -0.007 A 
HETATM   23  C   UNL     1      42.403 -18.437   3.293  1.00  0.00     0.014 A 
HETATM   24  C   UNL     1      43.022 -19.362   2.449  1.00  0.00     0.001 A 
HETATM   25  C   UNL     1      43.975 -18.937   1.526  1.00  0.00     0.000 A 
HETATM   26  C   UNL     1      44.309 -17.587   1.446  1.00  0.00     0.001 A 
HETATM   27  C   UNL     1      43.690 -16.660   2.288  1.00  0.00     0.014 A 
ENDBRANCH   1  22
TORSDOF 3
ENDMDL
MODEL 4
REMARK VINA RESULT:      -7.2      2.914      4.558
REMARK  3 active torsions:
REMARK  status: ('A' for Active; 'I' for Inactive)
REMARK    1  A    between atoms: C_4  and  C_5 
REMARK    2  A    between atoms: C_11  and  C_12 
REMARK    3  A    between atoms: C_21  and  N_22 
ROOT
HETATM    1  C   UNL     1      42.566 -17.930   2.399  1.00  0.00     0.071 A 
HETATM    2  N   UNL     1      41.738 -17.531   1.370  1.00  0.00    -0.274 N 
HETATM    3  H   UNL     1      41.508 -18.051   0.530  1.00  0.00     0.189 HD
HETATM    4  N   UNL     1      41.249 -16.282   1.502  1.00  0.00    -0.148 NA
HETATM    5  C   UNL     1      41.774 -15.900   2.659  1.00  0.00     0.199 A 
HETATM    6  C   UNL     1      42.552 -16.873   3.294  1.00  0.00     0.036 A 
HETATM    7  C   UNL     1      43.196 -16.593   4.612  1.00  0.00     0.081 C 
HETATM    8  C   UNL     1      43.180 -15.074   4.868  1.00  0.00     0.077 C 
HETATM    9  C   UNL     1      44.039 -14.587   5.899  1.00  0.00     0.100 C 
HETATM   10  N   UNL     1      44.758 -14.202   6.723  1.00  0.00    -0.192 NA
HETATM   11  C   UNL     1      42.407 -14.212   4.157  1.00  0.00     0.140 C 
HETATM   12  O   UNL     1      41.597 -14.641   3.097  1.00  0.00    -0.277 OA
ENDROOT
BRANCH   7  13
HETATM   13  C   UNL     1      42.572 -17.372   5.825  1.00  0.00     0.022 C 
HETATM   14  C   UNL     1      42.734 -16.641   7.140  1.00  0.00    -0.025 C 
HETATM   15  C   UNL     1      43.367 -17.149   8.208  1.00  0.00    -0.030 C 
HETATM   16  C   UNL     1      44.028 -18.494   8.220  1.00  0.00     0.027 C 
HETATM   17  C   UNL     1      44.211 -19.089   6.824  1.00  0.00     0.004 C 
HETATM   18  C   UNL     1      42.985 -18.861   5.943  1.00  0.00     0.010 C 
ENDBRANCH   7  13
BRANCH  11  19
HETATM   19  N   UNL     1      42.330 -12.851   4.365  1.00  0.00    -0.282 NA
HETATM   20  H   UNL     1      42.812 -12.501   5.189  1.00  0.00     0.126 HD
HETATM   21  H   UNL     1      42.551 -12.328   3.520  1.00  0.00     0.126 HD
ENDBRANCH  11  19
BRANCH   1  22
HETATM   22  C   UNL     1      43.269 -19.205   2.379  1.00  0.00    -0.007 A 
HETATM   23  C   UNL     1      42.708 -20.314   1.732  1.00  0.00     0.014 A 
HETATM   24  C   UNL     1      43.375 -21.542   1.720  1.00  0.00     0.001 A 
HETATM   25  C   UNL     1      44.607 -21.673   2.358  1.00  0.00     0.000 A 
HETATM   26  C   UNL     1      45.172 -20.578   3.008  1.00  0.00     0.001 A 
HETATM   27  C   UNL     1      44.507 -19.350   3.020  1.00  0.00     0.014 A 
ENDBRANCH   1  22
TORSDOF 3
ENDMDL
MODEL 5
REMARK VINA RESULT:      -7.2      2.944      5.759
REMARK  3 active torsions:
REMARK  status: ('A' for Active; 'I' for Inactive)
REMARK    1  A    between atoms: C_4  and  C_5 
REMARK    2  A    between atoms: C_11  and  C_12 
REMARK    3  A    between atoms: C_21  and  N_22 
ROOT
HETATM    1  C   UNL     1      41.978 -16.328   1.412  1.00  0.00     0.071 A 
HETATM    2  N   UNL     1      42.739 -16.944   0.440  1.00  0.00    -0.274 N 
HETATM    3  H   UNL     1      42.585 -16.930  -0.563  1.00  0.00     0.189 HD
HETATM    4  N   UNL     1      43.755 -17.689   0.919  1.00  0.00    -0.148 NA
HETATM    5  C   UNL     1      43.633 -17.514   2.229  1.00  0.00     0.199 A 
HETATM    6  C   UNL     1      42.598 -16.653   2.606  1.00  0.00     0.036 A 
HETATM    7  C   UNL     1      42.349 -16.347   4.047  1.00  0.00     0.081 C 
HETATM    8  C   UNL     1      43.088 -17.381   4.917  1.00  0.00     0.077 C 
HETATM    9  C   UNL     1      42.702 -17.461   6.288  1.00  0.00     0.100 C 
HETATM   10  N   UNL     1      42.363 -17.531   7.395  1.00  0.00    -0.192 NA
HETATM   11  C   UNL     1      44.057 -18.200   4.429  1.00  0.00     0.140 C 
HETATM   12  O   UNL     1      44.422 -18.197   3.077  1.00  0.00    -0.277 OA
ENDROOT
BRANCH   7  13
HETATM   13  C   UNL     1      42.718 -14.883   4.481  1.00  0.00     0.022 C 
HETATM   14  C   UNL     1      41.532 -14.110   5.014  1.00  0.00    -0.025 C 
HETATM   15  C   UNL     1      41.090 -12.958   4.489  1.00  0.00    -0.030 C 
HETATM   16  C   UNL     1      41.697 -12.309   3.281  1.00  0.00     0.027 C 
HETATM   17  C   UNL     1      42.633 -13.233   2.506  1.00  0.00     0.004 C 
HETATM   18  C   UNL     1      43.515 -14.061   3.437  1.00  0.00     0.010 C 
ENDBRANCH   7  13
BRANCH  11  19
HETATM   19  N   UNL     1      44.773 -19.118   5.169  1.00  0.00    -0.282 NA
HETATM   20  H   UNL     1      45.561 -18.747   5.694  1.00  0.00     0.126 HD
HETATM   21  H   UNL     1      44.161 -19.707   5.730  1.00  0.00     0.126 HD
ENDBRANCH  11  19
BRANCH   1  22
HETATM   22  C   UNL     1      40.778 -15.567   1.091  1.00  0.00    -0.007 A 
HETATM   23  C   UNL     1      40.703 -14.828  -0.098  1.00  0.00     0.014 A 
HETATM   24  C   UNL     1      39.558 -14.090  -0.404  1.00  0.00     0.001 A 
HETATM   25  C   UNL     1      38.478 -14.079   0.477  1.00  0.00     0.000 A 
HETATM   26  C   UNL     1      38.543 -14.807   1.664  1.00  0.00     0.001 A 
HETATM   27  C   UNL     1      39.687 -15.547   1.970  1.00  0.00     0.014 A 
ENDBRANCH   1  22
TORSDOF 3
ENDMDL
MODEL 6
REMARK VINA RESULT:      -6.9      3.234      5.118
REMARK  3 active torsions:
REMARK  status: ('A' for Active; 'I' for Inactive)
REMARK    1  A    between atoms: C_4  and  C_5 
REMARK    2  A    between atoms: C_11  and  C_12 
REMARK    3  A    between atoms: C_21  and  N_22 
ROOT
HETATM    1  C   UNL     1      43.963 -16.870   6.085  1.00  0.00     0.071 A 
HETATM    2  N   UNL     1      44.686 -16.086   6.960  1.00  0.00    -0.274 N 
HETATM    3  H   UNL     1      45.339 -16.399   7.670  1.00  0.00     0.189 HD
HETATM    4  N   UNL     1      44.422 -14.768   6.872  1.00  0.00    -0.148 NA
HETATM    5  C   UNL     1      43.522 -14.729   5.899  1.00  0.00     0.199 A 
HETATM    6  C   UNL     1      43.225 -15.972   5.332  1.00  0.00     0.036 A 
HETATM    7  C   UNL     1      42.241 -16.086   4.215  1.00  0.00     0.081 C 
HETATM    8  C   UNL     1      41.418 -14.785   4.135  1.00  0.00     0.077 C 
HETATM    9  C   UNL     1      40.217 -14.831   3.365  1.00  0.00     0.100 C 
HETATM   10  N   UNL     1      39.233 -14.887   2.755  1.00  0.00    -0.192 NA
HETATM   11  C   UNL     1      41.785 -13.638   4.765  1.00  0.00     0.140 C 
HETATM   12  O   UNL     1      42.923 -13.569   5.579  1.00  0.00    -0.277 OA
ENDROOT
BRANCH   7  13
HETATM   13  C   UNL     1      42.869 -16.438   2.819  1.00  0.00     0.022 C 
HETATM   14  C   UNL     1      42.776 -15.299   1.827  1.00  0.00    -0.025 C 
HETATM   15  C   UNL     1      42.155 -15.386   0.641  1.00  0.00    -0.030 C 
HETATM   16  C   UNL     1      41.443 -16.616   0.165  1.00  0.00     0.027 C 
HETATM   17  C   UNL     1      41.195 -17.637   1.274  1.00  0.00     0.004 C 
HETATM   18  C   UNL     1      42.402 -17.778   2.198  1.00  0.00     0.010 C 
ENDBRANCH   7  13
BRANCH  11  19
HETATM   19  N   UNL     1      41.106 -12.440   4.700  1.00  0.00    -0.282 NA
HETATM   20  H   UNL     1      40.595 -12.266   3.838  1.00  0.00     0.126 HD
HETATM   21  H   UNL     1      40.546 -12.280   5.535  1.00  0.00     0.126 HD
ENDBRANCH  11  19
BRANCH   1  22
HETATM   22  C   UNL     1      44.037 -18.325   6.105  1.00  0.00    -0.007 A 
HETATM   23  C   UNL     1      44.548 -19.025   5.004  1.00  0.00     0.014 A 
HETATM   24  C   UNL     1      44.610 -20.420   5.015  1.00  0.00     0.001 A 
HETATM   25  C   UNL     1      44.158 -21.129   6.126  1.00  0.00     0.000 A 
HETATM   26  C   UNL     1      43.644 -20.445   7.226  1.00  0.00     0.001 A 
HETATM   27  C   UNL     1      43.583 -19.049   7.216  1.00  0.00     0.014 A 
ENDBRANCH   1  22
TORSDOF 3
ENDMDL
MODEL 7
REMARK VINA RESULT:      -6.8      2.521      3.590
REMARK  3 active torsions:
REMARK  status: ('A' for Active; 'I' for Inactive)
REMARK    1  A    between atoms: C_4  and  C_5 
REMARK    2  A    between atoms: C_11  and  C_12 
REMARK    3  A    between atoms: C_21  and  N_22 
ROOT
HETATM    1  C   UNL     1      41.304 -15.567  -0.488  1.00  0.00     0.071 A 
HETATM    2  N   UNL     1      40.802 -16.348  -1.508  1.00  0.00    -0.274 N 
HETATM    3  H   UNL     1      40.533 -17.325  -1.459  1.00  0.00     0.189 HD
HETATM    4  N   UNL     1      40.735 -15.726  -2.702  1.00  0.00    -0.148 NA
HETATM    5  C   UNL     1      41.191 -14.515  -2.410  1.00  0.00     0.199 A 
HETATM    6  C   UNL     1      41.513 -14.324  -1.063  1.00  0.00     0.036 A 
HETATM    7  C   UNL     1      42.025 -13.007  -0.580  1.00  0.00     0.081 C 
HETATM    8  C   UNL     1      42.472 -12.166  -1.791  1.00  0.00     0.077 C 
HETATM    9  C   UNL     1      43.292 -11.031  -1.518  1.00  0.00     0.100 C 
HETATM   10  N   UNL     1      43.976 -10.124  -1.284  1.00  0.00    -0.192 NA
HETATM   11  C   UNL     1      42.129 -12.472  -3.071  1.00  0.00     0.140 C 
HETATM   12  O   UNL     1      41.378 -13.611  -3.387  1.00  0.00    -0.277 OA
ENDROOT
BRANCH   7  13
HETATM   13  C   UNL     1      41.020 -12.202   0.320  1.00  0.00     0.022 C 
HETATM   14  C   UNL     1      41.134 -12.552   1.787  1.00  0.00    -0.025 C 
HETATM   15  C   UNL     1      40.122 -13.031   2.525  1.00  0.00    -0.030 C 
HETATM   16  C   UNL     1      38.756 -13.315   1.977  1.00  0.00     0.027 C 
HETATM   17  C   UNL     1      38.711 -13.335   0.450  1.00  0.00     0.004 C 
HETATM   18  C   UNL     1      39.546 -12.210  -0.158  1.00  0.00     0.010 C 
ENDBRANCH   7  13
BRANCH  11  19
HETATM   19  N   UNL     1      42.473 -11.737  -4.186  1.00  0.00    -0.282 NA
HETATM   20  H   UNL     1      41.788 -11.725  -4.937  1.00  0.00     0.126 HD
HETATM   21  H   UNL     1      42.807 -10.808  -3.935  1.00  0.00     0.126 HD
ENDBRANCH  11  19
BRANCH   1  22
HETATM   22  C   UNL     1      41.547 -16.097   0.847  1.00  0.00    -0.007 A 
HETATM   23  C   UNL     1      40.481 -16.551   1.635  1.00  0.00     0.014 A 
HETATM   24  C   UNL     1      40.709 -17.050   2.920  1.00  0.00     0.001 A 
HETATM   25  C   UNL     1      42.005 -17.096   3.430  1.00  0.00     0.000 A 
HETATM   26  C   UNL     1      43.072 -16.644   2.658  1.00  0.00     0.001 A 
HETATM   27  C   UNL     1      42.845 -16.145   1.372  1.00  0.00     0.014 A 
ENDBRANCH   1  22
TORSDOF 3
ENDMDL
MODEL 8
REMARK VINA RESULT:      -6.6      2.579      3.811
REMARK  3 active torsions:
REMARK  status: ('A' for Active; 'I' for Inactive)
REMARK    1  A    between atoms: C_4  and  C_5 
REMARK    2  A    between atoms: C_11  and  C_12 
REMARK    3  A    between atoms: C_21  and  N_22 
ROOT
HETATM    1  C   UNL     1      42.804 -17.892   3.769  1.00  0.00     0.071 A 
HETATM    2  N   UNL     1      42.831 -19.047   3.014  1.00  0.00    -0.274 N 
HETATM    3  H   UNL     1      43.112 -19.973   3.317  1.00  0.00     0.189 HD
HETATM    4  N   UNL     1      42.499 -18.872   1.720  1.00  0.00    -0.148 NA
HETATM    5  C   UNL     1      42.239 -17.572   1.673  1.00  0.00     0.199 A 
HETATM    6  C   UNL     1      42.355 -16.911   2.900  1.00  0.00     0.036 A 
HETATM    7  C   UNL     1      42.078 -15.448   3.008  1.00  0.00     0.081 C 
HETATM    8  C   UNL     1      42.069 -14.832   1.595  1.00  0.00     0.077 C 
HETATM    9  C   UNL     1      42.159 -13.410   1.513  1.00  0.00     0.100 C 
HETATM   10  N   UNL     1      42.255 -12.256   1.460  1.00  0.00    -0.192 NA
HETATM   11  C   UNL     1      41.993 -15.580   0.463  1.00  0.00     0.140 C 
HETATM   12  O   UNL     1      41.965 -16.980   0.497  1.00  0.00    -0.277 OA
ENDROOT
BRANCH   7  13
HETATM   13  C   UNL     1      40.763 -15.084   3.786  1.00  0.00     0.022 C 
HETATM   14  C   UNL     1      39.680 -14.530   2.886  1.00  0.00    -0.025 C 
HETATM   15  C   UNL     1      39.122 -13.321   3.041  1.00  0.00    -0.030 C 
HETATM   16  C   UNL     1      39.527 -12.349   4.107  1.00  0.00     0.027 C 
HETATM   17  C   UNL     1      40.848 -12.711   4.783  1.00  0.00     0.004 C 
HETATM   18  C   UNL     1      40.958 -14.210   5.050  1.00  0.00     0.010 C 
ENDBRANCH   7  13
BRANCH  11  19
HETATM   19  N   UNL     1      41.947 -15.080  -0.821  1.00  0.00    -0.282 NA
HETATM   20  H   UNL     1      41.044 -14.728  -1.129  1.00  0.00     0.126 HD
HETATM   21  H   UNL     1      42.711 -14.430  -0.999  1.00  0.00     0.126 HD
ENDBRANCH  11  19
BRANCH   1  22
HETATM   22  C   UNL     1      43.232 -17.865   5.161  1.00  0.00    -0.007 A 
HETATM   23  C   UNL     1      44.537 -18.237   5.509  1.00  0.00     0.014 A 
HETATM   24  C   UNL     1      44.947 -18.223   6.845  1.00  0.00     0.001 A 
HETATM   25  C   UNL     1      44.055 -17.841   7.845  1.00  0.00     0.000 A 
HETATM   26  C   UNL     1      42.754 -17.473   7.511  1.00  0.00     0.001 A 
HETATM   27  C   UNL     1      42.342 -17.486   6.176  1.00  0.00     0.014 A 
ENDBRANCH   1  22
TORSDOF 3
ENDMDL
MODEL 9
REMARK VINA RESULT:      -6.5      4.545      6.995
REMARK  3 active torsions:
REMARK  status: ('A' for Active; 'I' for Inactive)
REMARK    1  A    between atoms: C_4  and  C_5 
REMARK    2  A    between atoms: C_11  and  C_12 
REMARK    3  A    between atoms: C_21  and  N_22 
ROOT
HETATM    1  C   UNL     1      41.657 -12.659  -2.813  1.00  0.00     0.071 A 
HETATM    2  N   UNL     1      42.389 -13.777  -3.156  1.00  0.00    -0.274 N 
HETATM    3  H   UNL     1      43.399 -13.868  -3.177  1.00  0.00     0.189 HD
HETATM    4  N   UNL     1      41.645 -14.825  -3.562  1.00  0.00    -0.148 NA
HETATM    5  C   UNL     1      40.411 -14.350  -3.448  1.00  0.00     0.199 A 
HETATM    6  C   UNL     1      40.334 -13.046  -2.948  1.00  0.00     0.036 A 
HETATM    7  C   UNL     1      39.011 -12.382  -2.750  1.00  0.00     0.081 C 
HETATM    8  C   UNL     1      37.933 -13.169  -3.521  1.00  0.00     0.077 C 
HETATM    9  C   UNL     1      36.685 -12.511  -3.731  1.00  0.00     0.100 C 
HETATM   10  N   UNL     1      35.683 -11.956  -3.915  1.00  0.00    -0.192 NA
HETATM   11  C   UNL     1      38.135 -14.425  -3.999  1.00  0.00     0.140 C 
HETATM   12  O   UNL     1      39.365 -15.082  -3.868  1.00  0.00    -0.277 OA
ENDROOT
BRANCH   7  13
HETATM   13  C   UNL     1      38.594 -12.184  -1.249  1.00  0.00     0.022 C 
HETATM   14  C   UNL     1      39.159 -10.918  -0.643  1.00  0.00    -0.025 C 
HETATM   15  C   UNL     1      39.954 -10.893   0.437  1.00  0.00    -0.030 C 
HETATM   16  C   UNL     1      40.411 -12.123   1.160  1.00  0.00     0.027 C 
HETATM   17  C   UNL     1      40.177 -13.410   0.370  1.00  0.00     0.004 C 
HETATM   18  C   UNL     1      38.819 -13.409  -0.329  1.00  0.00     0.010 C 
ENDBRANCH   7  13
BRANCH  11  19
HETATM   19  N   UNL     1      37.196 -15.186  -4.664  1.00  0.00    -0.282 NA
HETATM   20  H   UNL     1      36.443 -15.560  -4.092  1.00  0.00     0.126 HD
HETATM   21  H   UNL     1      36.864 -14.720  -5.507  1.00  0.00     0.126 HD
ENDBRANCH  11  19
BRANCH   1  22
HETATM   22  C   UNL     1      42.291 -11.398  -2.450  1.00  0.00    -0.007 A 
HETATM   23  C   UNL     1      42.090 -10.253  -3.233  1.00  0.00     0.014 A 
HETATM   24  C   UNL     1      42.705  -9.045  -2.894  1.00  0.00     0.001 A 
HETATM   25  C   UNL     1      43.529  -8.972  -1.773  1.00  0.00     0.000 A 
HETATM   26  C   UNL     1      43.739 -10.105  -0.990  1.00  0.00     0.001 A 
HETATM   27  C   UNL     1      43.123 -11.313  -1.327  1.00  0.00     0.014 A 
ENDBRANCH   1  22
TORSDOF 3
ENDMDL
MODEL 10
REMARK VINA RESULT:      -6.5      4.327      6.948
REMARK  3 active torsions:
REMARK  status: ('A' for Active; 'I' for Inactive)
REMARK    1  A    between atoms: C_4  and  C_5 
REMARK    2  A    between atoms: C_11  and  C_12 
REMARK    3  A    between atoms: C_21  and  N_22 
ROOT
HETATM    1  C   UNL     1      42.891 -16.331   6.071  1.00  0.00     0.071 A 
HETATM    2  N   UNL     1      42.811 -16.445   7.444  1.00  0.00    -0.274 N 
HETATM    3  H   UNL     1      42.635 -15.704   8.113  1.00  0.00     0.189 HD
HETATM    4  N   UNL     1      43.060 -17.683   7.913  1.00  0.00    -0.148 NA
HETATM    5  C   UNL     1      43.283 -18.364   6.797  1.00  0.00     0.199 A 
HETATM    6  C   UNL     1      43.149 -17.615   5.623  1.00  0.00     0.036 A 
HETATM    7  C   UNL     1      43.354 -18.249   4.287  1.00  0.00     0.081 C 
HETATM    8  C   UNL     1      44.073 -19.599   4.475  1.00  0.00     0.077 C 
HETATM    9  C   UNL     1      44.654 -20.186   3.311  1.00  0.00     0.100 C 
HETATM   10  N   UNL     1      45.140 -20.641   2.361  1.00  0.00    -0.192 NA
HETATM   11  C   UNL     1      44.178 -20.220   5.680  1.00  0.00     0.140 C 
HETATM   12  O   UNL     1      43.676 -19.648   6.856  1.00  0.00    -0.277 OA
ENDROOT
BRANCH   7  13
HETATM   13  C   UNL     1      42.046 -18.426   3.436  1.00  0.00     0.022 C 
HETATM   14  C   UNL     1      42.288 -18.295   1.948  1.00  0.00    -0.025 C 
HETATM   15  C   UNL     1      41.684 -17.388   1.167  1.00  0.00    -0.030 C 
HETATM   16  C   UNL     1      40.717 -16.364   1.678  1.00  0.00     0.027 C 
HETATM   17  C   UNL     1      40.736 -16.222   3.198  1.00  0.00     0.004 C 
HETATM   18  C   UNL     1      40.834 -17.577   3.895  1.00  0.00     0.010 C 
ENDBRANCH   7  13
BRANCH  11  19
HETATM   19  N   UNL     1      44.780 -21.441   5.898  1.00  0.00    -0.282 NA
HETATM   20  H   UNL     1      45.705 -21.558   5.493  1.00  0.00     0.126 HD
HETATM   21  H   UNL     1      44.737 -21.710   6.879  1.00  0.00     0.126 HD
ENDBRANCH  11  19
BRANCH   1  22
HETATM   22  C   UNL     1      42.756 -15.050   5.391  1.00  0.00    -0.007 A 
HETATM   23  C   UNL     1      41.869 -14.079   5.876  1.00  0.00     0.014 A 
HETATM   24  C   UNL     1      41.730 -12.854   5.220  1.00  0.00     0.001 A 
HETATM   25  C   UNL     1      42.471 -12.589   4.070  1.00  0.00     0.000 A 
HETATM   26  C   UNL     1      43.352 -13.549   3.576  1.00  0.00     0.001 A 
HETATM   27  C   UNL     1      43.494 -14.774   4.232  1.00  0.00     0.014 A 
ENDBRANCH   1  22
TORSDOF 3
ENDMDL
