MODEL 1
REMARK VINA RESULT:      -7.9      0.000      0.000
REMARK  2 active torsions:
REMARK  status: ('A' for Active; 'I' for Inactive)
REMARK    1  A    between atoms: C_2  and  C_3 
REMARK       I    between atoms: C_3  and  N_4 
REMARK    2  A    between atoms: N_4  and  C_5 
ROOT
HETATM    1  C   UNL     1      43.919 -15.350   6.771  1.00  0.00     0.174 A 
HETATM    2  S   UNL     1      43.077 -15.272   5.298  1.00  0.00    -0.050 SA
HETATM    3  C   UNL     1      43.581 -16.875   4.915  1.00  0.00     0.040 A 
HETATM    4  C   UNL     1      44.365 -17.360   5.973  1.00  0.00     0.079 A 
HETATM    5  N   UNL     1      44.543 -16.474   7.024  1.00  0.00    -0.223 NA
HETATM    6  C   UNL     1      43.302 -17.637   3.765  1.00  0.00     0.061 A 
HETATM    7  C   UNL     1      43.854 -18.902   3.737  1.00  0.00     0.106 A 
HETATM    8  C   UNL     1      44.623 -19.397   4.760  1.00  0.00     0.107 A 
HETATM    9  O   UNL     1      45.062 -20.662   4.516  1.00  0.00    -0.323 OA
HETATM   10  C   UNL     1      44.487 -20.905   3.215  1.00  0.00     0.352 A 
HETATM   11  O   UNL     1      43.711 -19.794   2.719  1.00  0.00    -0.323 OA
HETATM   12  C   UNL     1      44.903 -18.664   5.898  1.00  0.00     0.073 A 
ENDROOT
BRANCH   1  13
HETATM   13  N   UNL     1      43.971 -14.313   7.664  1.00  0.00    -0.301 N 
HETATM   14  C   UNL     1      44.940 -13.344   7.785  1.00  0.00     0.264 C 
HETATM   15  O   UNL     1      45.928 -13.242   7.065  1.00  0.00    -0.267 OA
HETATM   16  H   UNL     1      43.192 -14.298   8.308  1.00  0.00     0.171 HD
BRANCH  14  17
HETATM   17  C   UNL     1      44.716 -12.397   8.880  1.00  0.00     0.074 A 
HETATM   18  C   UNL     1      45.547 -12.184   9.970  1.00  0.00     0.026 A 
HETATM   19  C   UNL     1      45.040 -11.198  10.868  1.00  0.00     0.028 A 
HETATM   20  C   UNL     1      43.844 -10.698  10.424  1.00  0.00     0.052 A 
HETATM   21  S   UNL     1      43.329 -11.385   8.965  1.00  0.00    -0.077 SA
HETATM   22 BR   UNL     1      42.868  -9.385  11.336  1.00  0.00    -0.043 Br
ENDBRANCH  14  17
ENDBRANCH   1  13
TORSDOF 2
ENDMDL
MODEL 2
REMARK VINA RESULT:      -7.6      6.510      8.250
REMARK  2 active torsions:
REMARK  status: ('A' for Active; 'I' for Inactive)
REMARK    1  A    between atoms: C_2  and  C_3 
REMARK       I    between atoms: C_3  and  N_4 
REMARK    2  A    between atoms: N_4  and  C_5 
ROOT
HETATM    1  C   UNL     1      43.091 -17.241   1.256  1.00  0.00     0.174 A 
HETATM    2  S   UNL     1      43.288 -16.742   2.868  1.00  0.00    -0.050 SA
HETATM    3  C   UNL     1      43.742 -18.341   3.317  1.00  0.00     0.040 A 
HETATM    4  C   UNL     1      43.716 -19.151   2.171  1.00  0.00     0.079 A 
HETATM    5  N   UNL     1      43.345 -18.501   1.004  1.00  0.00    -0.223 NA
HETATM    6  C   UNL     1      44.091 -18.836   4.588  1.00  0.00     0.061 A 
HETATM    7  C   UNL     1      44.406 -20.180   4.641  1.00  0.00     0.106 A 
HETATM    8  C   UNL     1      44.388 -20.989   3.533  1.00  0.00     0.107 A 
HETATM    9  O   UNL     1      44.731 -22.274   3.822  1.00  0.00    -0.323 OA
HETATM   10  C   UNL     1      44.959 -22.183   5.244  1.00  0.00     0.352 A 
HETATM   11  O   UNL     1      44.763 -20.854   5.768  1.00  0.00    -0.323 OA
HETATM   12  C   UNL     1      44.051 -20.518   2.278  1.00  0.00     0.073 A 
ENDROOT
BRANCH   1  13
HETATM   13  N   UNL     1      42.684 -16.401   0.253  1.00  0.00    -0.301 N 
HETATM   14  C   UNL     1      41.471 -15.766   0.117  1.00  0.00     0.264 C 
HETATM   15  O   UNL     1      40.546 -15.834   0.920  1.00  0.00    -0.267 OA
HETATM   16  H   UNL     1      43.381 -16.268  -0.467  1.00  0.00     0.171 HD
BRANCH  14  17
HETATM   17  C   UNL     1      41.341 -14.966  -1.104  1.00  0.00     0.074 A 
HETATM   18  C   UNL     1      40.876 -15.409  -2.333  1.00  0.00     0.026 A 
HETATM   19  C   UNL     1      40.880 -14.385  -3.327  1.00  0.00     0.028 A 
HETATM   20  C   UNL     1      41.344 -13.203  -2.813  1.00  0.00     0.052 A 
HETATM   21  S   UNL     1      41.769 -13.304  -1.177  1.00  0.00    -0.077 SA
HETATM   22 BR   UNL     1      41.498 -11.628  -3.814  1.00  0.00    -0.043 Br
ENDBRANCH  14  17
ENDBRANCH   1  13
TORSDOF 2
ENDMDL
MODEL 3
REMARK VINA RESULT:      -7.0      6.460      8.426
REMARK  2 active torsions:
REMARK  status: ('A' for Active; 'I' for Inactive)
REMARK    1  A    between atoms: C_2  and  C_3 
REMARK       I    between atoms: C_3  and  N_4 
REMARK    2  A    between atoms: N_4  and  C_5 
ROOT
HETATM    1  C   UNL     1      41.061 -16.410   1.562  1.00  0.00     0.174 A 
HETATM    2  S   UNL     1      41.185 -16.184   3.241  1.00  0.00    -0.050 SA
HETATM    3  C   UNL     1      42.285 -17.505   3.347  1.00  0.00     0.040 A 
HETATM    4  C   UNL     1      42.484 -18.024   2.058  1.00  0.00     0.079 A 
HETATM    5  N   UNL     1      41.778 -17.382   1.053  1.00  0.00    -0.223 NA
HETATM    6  C   UNL     1      42.917 -18.038   4.486  1.00  0.00     0.061 A 
HETATM    7  C   UNL     1      43.751 -19.115   4.259  1.00  0.00     0.106 A 
HETATM    8  C   UNL     1      43.961 -19.638   3.007  1.00  0.00     0.107 A 
HETATM    9  O   UNL     1      44.818 -20.695   3.023  1.00  0.00    -0.323 OA
HETATM   10  C   UNL     1      45.118 -20.784   4.431  1.00  0.00     0.352 A 
HETATM   11  O   UNL     1      44.451 -19.778   5.220  1.00  0.00    -0.323 OA
HETATM   12  C   UNL     1      43.351 -19.125   1.879  1.00  0.00     0.073 A 
ENDROOT
BRANCH   1  13
HETATM   13  N   UNL     1      40.261 -15.644   0.757  1.00  0.00    -0.301 N 
HETATM   14  C   UNL     1      40.641 -14.684  -0.153  1.00  0.00     0.264 C 
HETATM   15  O   UNL     1      41.800 -14.378  -0.411  1.00  0.00    -0.267 OA
HETATM   16  H   UNL     1      39.274 -15.822   0.885  1.00  0.00     0.171 HD
BRANCH  14  17
HETATM   17  C   UNL     1      39.526 -14.013  -0.825  1.00  0.00     0.074 A 
HETATM   18  C   UNL     1      38.551 -13.230  -0.224  1.00  0.00     0.026 A 
HETATM   19  C   UNL     1      37.596 -12.725  -1.155  1.00  0.00     0.028 A 
HETATM   20  C   UNL     1      37.883 -13.141  -2.429  1.00  0.00     0.052 A 
HETATM   21  S   UNL     1      39.265 -14.115  -2.521  1.00  0.00    -0.077 SA
HETATM   22 BR   UNL     1      36.854 -12.683  -3.925  1.00  0.00    -0.043 Br
ENDBRANCH  14  17
ENDBRANCH   1  13
TORSDOF 2
ENDMDL
MODEL 4
REMARK VINA RESULT:      -6.9      6.610      9.073
REMARK  2 active torsions:
REMARK  status: ('A' for Active; 'I' for Inactive)
REMARK    1  A    between atoms: C_2  and  C_3 
REMARK       I    between atoms: C_3  and  N_4 
REMARK    2  A    between atoms: N_4  and  C_5 
ROOT
HETATM    1  C   UNL     1      41.770 -16.264   1.422  1.00  0.00     0.174 A 
HETATM    2  S   UNL     1      41.003 -14.849   1.966  1.00  0.00    -0.050 SA
HETATM    3  C   UNL     1      40.609 -14.429   0.342  1.00  0.00     0.040 A 
HETATM    4  C   UNL     1      41.099 -15.432  -0.509  1.00  0.00     0.079 A 
HETATM    5  N   UNL     1      41.754 -16.472   0.129  1.00  0.00    -0.223 NA
HETATM    6  C   UNL     1      39.923 -13.297  -0.135  1.00  0.00     0.061 A 
HETATM    7  C   UNL     1      39.760 -13.228  -1.505  1.00  0.00     0.106 A 
HETATM    8  C   UNL     1      40.229 -14.197  -2.355  1.00  0.00     0.107 A 
HETATM    9  O   UNL     1      39.956 -13.920  -3.659  1.00  0.00    -0.323 OA
HETATM   10  C   UNL     1      39.268 -12.659  -3.533  1.00  0.00     0.352 A 
HETATM   11  O   UNL     1      39.132 -12.218  -2.167  1.00  0.00    -0.323 OA
HETATM   12  C   UNL     1      40.901 -15.317  -1.903  1.00  0.00     0.073 A 
ENDROOT
BRANCH   1  13
HETATM   13  N   UNL     1      42.385 -17.156   2.261  1.00  0.00    -0.301 N 
HETATM   14  C   UNL     1      43.686 -17.602   2.219  1.00  0.00     0.264 C 
HETATM   15  O   UNL     1      44.532 -17.233   1.411  1.00  0.00    -0.267 OA
HETATM   16  H   UNL     1      41.773 -17.523   2.976  1.00  0.00     0.171 HD
BRANCH  14  17
HETATM   17  C   UNL     1      44.018 -18.596   3.243  1.00  0.00     0.074 A 
HETATM   18  C   UNL     1      44.121 -18.371   4.608  1.00  0.00     0.026 A 
HETATM   19  C   UNL     1      44.469 -19.547   5.337  1.00  0.00     0.028 A 
HETATM   20  C   UNL     1      44.615 -20.621   4.498  1.00  0.00     0.052 A 
HETATM   21  S   UNL     1      44.342 -20.242   2.870  1.00  0.00    -0.077 SA
HETATM   22 BR   UNL     1      45.071 -22.340   5.085  1.00  0.00    -0.043 Br
ENDBRANCH  14  17
ENDBRANCH   1  13
TORSDOF 2
ENDMDL
MODEL 5
REMARK VINA RESULT:      -6.8      5.916      8.973
REMARK  2 active torsions:
REMARK  status: ('A' for Active; 'I' for Inactive)
REMARK    1  A    between atoms: C_2  and  C_3 
REMARK       I    between atoms: C_3  and  N_4 
REMARK    2  A    between atoms: N_4  and  C_5 
ROOT
HETATM    1  C   UNL     1      41.242 -15.935   3.224  1.00  0.00     0.174 A 
HETATM    2  S   UNL     1      40.528 -15.385   1.783  1.00  0.00    -0.050 SA
HETATM    3  C   UNL     1      39.902 -14.009   2.608  1.00  0.00     0.040 A 
HETATM    4  C   UNL     1      40.304 -14.073   3.952  1.00  0.00     0.079 A 
HETATM    5  N   UNL     1      41.071 -15.179   4.281  1.00  0.00    -0.223 NA
HETATM    6  C   UNL     1      39.115 -12.958   2.101  1.00  0.00     0.061 A 
HETATM    7  C   UNL     1      38.754 -11.986   3.013  1.00  0.00     0.106 A 
HETATM    8  C   UNL     1      39.136 -12.028   4.331  1.00  0.00     0.107 A 
HETATM    9  O   UNL     1      38.665 -10.969   5.043  1.00  0.00    -0.323 OA
HETATM   10  C   UNL     1      37.934 -10.257   4.023  1.00  0.00     0.352 A 
HETATM   11  O   UNL     1      37.993 -10.893   2.730  1.00  0.00    -0.323 OA
HETATM   12  C   UNL     1      39.912 -13.051   4.844  1.00  0.00     0.073 A 
ENDROOT
BRANCH   1  13
HETATM   13  N   UNL     1      41.955 -17.101   3.313  1.00  0.00    -0.301 N 
HETATM   14  C   UNL     1      43.230 -17.353   2.862  1.00  0.00     0.264 C 
HETATM   15  O   UNL     1      43.960 -16.532   2.317  1.00  0.00    -0.267 OA
HETATM   16  H   UNL     1      41.443 -17.852   3.756  1.00  0.00     0.171 HD
BRANCH  14  17
HETATM   17  C   UNL     1      43.687 -18.729   3.077  1.00  0.00     0.074 A 
HETATM   18  C   UNL     1      43.803 -19.719   2.113  1.00  0.00     0.026 A 
HETATM   19  C   UNL     1      44.268 -20.958   2.646  1.00  0.00     0.028 A 
HETATM   20  C   UNL     1      44.490 -20.860   3.995  1.00  0.00     0.052 A 
HETATM   21  S   UNL     1      44.153 -19.323   4.621  1.00  0.00    -0.077 SA
HETATM   22 BR   UNL     1      45.104 -22.281   5.049  1.00  0.00    -0.043 Br
ENDBRANCH  14  17
ENDBRANCH   1  13
TORSDOF 2
ENDMDL
MODEL 6
REMARK VINA RESULT:      -6.8      5.424      8.693
REMARK  2 active torsions:
REMARK  status: ('A' for Active; 'I' for Inactive)
REMARK    1  A    between atoms: C_2  and  C_3 
REMARK       I    between atoms: C_3  and  N_4 
REMARK    2  A    between atoms: N_4  and  C_5 
ROOT
HETATM    1  C   UNL     1      41.785 -15.598   4.778  1.00  0.00     0.174 A 
HETATM    2  S   UNL     1      40.524 -15.460   5.908  1.00  0.00    -0.050 SA
HETATM    3  C   UNL     1      40.440 -13.764   5.621  1.00  0.00     0.040 A 
HETATM    4  C   UNL     1      41.399 -13.427   4.654  1.00  0.00     0.079 A 
HETATM    5  N   UNL     1      42.154 -14.490   4.183  1.00  0.00    -0.223 NA
HETATM    6  C   UNL     1      39.590 -12.810   6.212  1.00  0.00     0.061 A 
HETATM    7  C   UNL     1      39.760 -11.509   5.781  1.00  0.00     0.106 A 
HETATM    8  C   UNL     1      40.691 -11.158   4.836  1.00  0.00     0.107 A 
HETATM    9  O   UNL     1      40.681  -9.823   4.568  1.00  0.00    -0.323 OA
HETATM   10  C   UNL     1      39.642  -9.372   5.461  1.00  0.00     0.352 A 
HETATM   11  O   UNL     1      39.047 -10.439   6.228  1.00  0.00    -0.323 OA
HETATM   12  C   UNL     1      41.530 -12.082   4.243  1.00  0.00     0.073 A 
ENDROOT
BRANCH   1  13
HETATM   13  N   UNL     1      42.408 -16.782   4.486  1.00  0.00    -0.301 N 
HETATM   14  C   UNL     1      43.521 -17.327   5.085  1.00  0.00     0.264 C 
HETATM   15  O   UNL     1      44.129 -16.829   6.027  1.00  0.00    -0.267 OA
HETATM   16  H   UNL     1      41.979 -17.283   3.720  1.00  0.00     0.171 HD
BRANCH  14  17
HETATM   17  C   UNL     1      43.961 -18.597   4.502  1.00  0.00     0.074 A 
HETATM   18  C   UNL     1      44.862 -19.492   5.060  1.00  0.00     0.026 A 
HETATM   19  C   UNL     1      45.088 -20.634   4.236  1.00  0.00     0.028 A 
HETATM   20  C   UNL     1      44.349 -20.564   3.084  1.00  0.00     0.052 A 
HETATM   21  S   UNL     1      43.399 -19.166   2.981  1.00  0.00    -0.077 SA
HETATM   22 BR   UNL     1      44.381 -21.879   1.751  1.00  0.00    -0.043 Br
ENDBRANCH  14  17
ENDBRANCH   1  13
TORSDOF 2
ENDMDL
MODEL 7
REMARK VINA RESULT:      -6.7      3.985      4.327
REMARK  2 active torsions:
REMARK  status: ('A' for Active; 'I' for Inactive)
REMARK    1  A    between atoms: C_2  and  C_3 
REMARK       I    between atoms: C_3  and  N_4 
REMARK    2  A    between atoms: N_4  and  C_5 
ROOT
HETATM    1  C   UNL     1      42.699 -16.192   4.481  1.00  0.00     0.174 A 
HETATM    2  S   UNL     1      43.685 -17.046   5.569  1.00  0.00    -0.050 SA
HETATM    3  C   UNL     1      43.791 -18.358   4.458  1.00  0.00     0.040 A 
HETATM    4  C   UNL     1      43.053 -18.030   3.310  1.00  0.00     0.079 A 
HETATM    5  N   UNL     1      42.441 -16.787   3.342  1.00  0.00    -0.223 NA
HETATM    6  C   UNL     1      44.473 -19.581   4.598  1.00  0.00     0.061 A 
HETATM    7  C   UNL     1      44.370 -20.450   3.529  1.00  0.00     0.106 A 
HETATM    8  C   UNL     1      43.655 -20.150   2.397  1.00  0.00     0.107 A 
HETATM    9  O   UNL     1      43.692 -21.153   1.478  1.00  0.00    -0.323 OA
HETATM   10  C   UNL     1      44.506 -22.125   2.166  1.00  0.00     0.352 A 
HETATM   11  O   UNL     1      44.947 -21.681   3.466  1.00  0.00    -0.323 OA
HETATM   12  C   UNL     1      42.983 -18.952   2.242  1.00  0.00     0.073 A 
ENDROOT
BRANCH   1  13
HETATM   13  N   UNL     1      42.179 -14.954   4.749  1.00  0.00    -0.301 N 
HETATM   14  C   UNL     1      41.091 -14.640   5.531  1.00  0.00     0.264 C 
HETATM   15  O   UNL     1      40.413 -15.452   6.153  1.00  0.00    -0.267 OA
HETATM   16  H   UNL     1      42.672 -14.203   4.285  1.00  0.00     0.171 HD
BRANCH  14  17
HETATM   17  C   UNL     1      40.770 -13.211   5.576  1.00  0.00     0.074 A 
HETATM   18  C   UNL     1      39.741 -12.620   6.293  1.00  0.00     0.026 A 
HETATM   19  C   UNL     1      39.688 -11.205   6.119  1.00  0.00     0.028 A 
HETATM   20  C   UNL     1      40.682 -10.776   5.278  1.00  0.00     0.052 A 
HETATM   21  S   UNL     1      41.663 -12.030   4.703  1.00  0.00    -0.077 SA
HETATM   22 BR   UNL     1      40.934  -8.981   4.804  1.00  0.00    -0.043 Br
ENDBRANCH  14  17
ENDBRANCH   1  13
TORSDOF 2
ENDMDL
MODEL 8
REMARK VINA RESULT:      -6.7      5.701      6.963
REMARK  2 active torsions:
REMARK  status: ('A' for Active; 'I' for Inactive)
REMARK    1  A    between atoms: C_2  and  C_3 
REMARK       I    between atoms: C_3  and  N_4 
REMARK    2  A    between atoms: N_4  and  C_5 
ROOT
HETATM    1  C   UNL     1      40.853 -16.348   3.079  1.00  0.00     0.174 A 
HETATM    2  S   UNL     1      41.168 -16.449   4.745  1.00  0.00    -0.050 SA
HETATM    3  C   UNL     1      42.296 -17.720   4.463  1.00  0.00     0.040 A 
HETATM    4  C   UNL     1      42.352 -17.969   3.083  1.00  0.00     0.079 A 
HETATM    5  N   UNL     1      41.522 -17.171   2.311  1.00  0.00    -0.223 NA
HETATM    6  C   UNL     1      43.067 -18.439   5.396  1.00  0.00     0.061 A 
HETATM    7  C   UNL     1      43.887 -19.417   4.867  1.00  0.00     0.106 A 
HETATM    8  C   UNL     1      43.958 -19.676   3.522  1.00  0.00     0.107 A 
HETATM    9  O   UNL     1      44.830 -20.680   3.231  1.00  0.00    -0.323 OA
HETATM   10  C   UNL     1      45.294 -21.030   4.551  1.00  0.00     0.352 A 
HETATM   11  O   UNL     1      44.706 -20.226   5.594  1.00  0.00    -0.323 OA
HETATM   12  C   UNL     1      43.211 -18.977   2.593  1.00  0.00     0.073 A 
ENDROOT
BRANCH   1  13
HETATM   13  N   UNL     1      39.950 -15.472   2.536  1.00  0.00    -0.301 N 
HETATM   14  C   UNL     1      40.118 -14.131   2.276  1.00  0.00     0.264 C 
HETATM   15  O   UNL     1      41.151 -13.500   2.472  1.00  0.00    -0.267 OA
HETATM   16  H   UNL     1      39.056 -15.895   2.329  1.00  0.00     0.171 HD
BRANCH  14  17
HETATM   17  C   UNL     1      38.932 -13.468   1.730  1.00  0.00     0.074 A 
HETATM   18  C   UNL     1      38.046 -13.996   0.802  1.00  0.00     0.026 A 
HETATM   19  C   UNL     1      36.995 -13.091   0.466  1.00  0.00     0.028 A 
HETATM   20  C   UNL     1      37.121 -11.913   1.153  1.00  0.00     0.052 A 
HETATM   21  S   UNL     1      38.465 -11.877   2.182  1.00  0.00    -0.077 SA
HETATM   22 BR   UNL     1      35.931 -10.478   0.975  1.00  0.00    -0.043 Br
ENDBRANCH  14  17
ENDBRANCH   1  13
TORSDOF 2
ENDMDL
MODEL 9
REMARK VINA RESULT:      -6.6      5.291      8.747
REMARK  2 active torsions:
REMARK  status: ('A' for Active; 'I' for Inactive)
REMARK    1  A    between atoms: C_2  and  C_3 
REMARK       I    between atoms: C_3  and  N_4 
REMARK    2  A    between atoms: N_4  and  C_5 
ROOT
HETATM    1  C   UNL     1      42.335 -15.327   4.747  1.00  0.00     0.174 A 
HETATM    2  S   UNL     1      43.214 -14.064   5.466  1.00  0.00    -0.050 SA
HETATM    3  C   UNL     1      41.855 -13.017   5.310  1.00  0.00     0.040 A 
HETATM    4  C   UNL     1      40.806 -13.734   4.714  1.00  0.00     0.079 A 
HETATM    5  N   UNL     1      41.101 -15.053   4.404  1.00  0.00    -0.223 NA
HETATM    6  C   UNL     1      41.734 -11.667   5.686  1.00  0.00     0.061 A 
HETATM    7  C   UNL     1      40.510 -11.081   5.428  1.00  0.00     0.106 A 
HETATM    8  C   UNL     1      39.470 -11.763   4.847  1.00  0.00     0.107 A 
HETATM    9  O   UNL     1      38.364 -10.987   4.688  1.00  0.00    -0.323 OA
HETATM   10  C   UNL     1      38.829  -9.733   5.228  1.00  0.00     0.352 A 
HETATM   11  O   UNL     1      40.188  -9.788   5.707  1.00  0.00    -0.323 OA
HETATM   12  C   UNL     1      39.572 -13.091   4.475  1.00  0.00     0.073 A 
ENDROOT
BRANCH   1  13
HETATM   13  N   UNL     1      42.858 -16.572   4.517  1.00  0.00    -0.301 N 
HETATM   14  C   UNL     1      43.516 -17.023   3.395  1.00  0.00     0.264 C 
HETATM   15  O   UNL     1      43.767 -16.344   2.405  1.00  0.00    -0.267 OA
HETATM   16  H   UNL     1      42.710 -17.217   5.280  1.00  0.00     0.171 HD
BRANCH  14  17
HETATM   17  C   UNL     1      43.913 -18.432   3.452  1.00  0.00     0.074 A 
HETATM   18  C   UNL     1      44.066 -19.290   2.373  1.00  0.00     0.026 A 
HETATM   19  C   UNL     1      44.454 -20.606   2.764  1.00  0.00     0.028 A 
HETATM   20  C   UNL     1      44.582 -20.697   4.126  1.00  0.00     0.052 A 
HETATM   21  S   UNL     1      44.249 -19.244   4.929  1.00  0.00    -0.077 SA
HETATM   22 BR   UNL     1      45.075 -22.268   5.017  1.00  0.00    -0.043 Br
ENDBRANCH  14  17
ENDBRANCH   1  13
TORSDOF 2
ENDMDL
MODEL 10
REMARK VINA RESULT:      -6.6      4.186      4.689
REMARK  2 active torsions:
REMARK  status: ('A' for Active; 'I' for Inactive)
REMARK    1  A    between atoms: C_2  and  C_3 
REMARK       I    between atoms: C_3  and  N_4 
REMARK    2  A    between atoms: N_4  and  C_5 
ROOT
HETATM    1  C   UNL     1      42.485 -16.070   3.805  1.00  0.00     0.174 A 
HETATM    2  S   UNL     1      43.380 -16.757   5.076  1.00  0.00    -0.050 SA
HETATM    3  C   UNL     1      43.591 -18.200   4.158  1.00  0.00     0.040 A 
HETATM    4  C   UNL     1      42.954 -18.037   2.918  1.00  0.00     0.079 A 
HETATM    5  N   UNL     1      42.332 -16.812   2.736  1.00  0.00    -0.223 NA
HETATM    6  C   UNL     1      44.268 -19.381   4.514  1.00  0.00     0.061 A 
HETATM    7  C   UNL     1      44.264 -20.383   3.564  1.00  0.00     0.106 A 
HETATM    8  C   UNL     1      43.648 -20.245   2.345  1.00  0.00     0.107 A 
HETATM    9  O   UNL     1      43.772 -21.358   1.572  1.00  0.00    -0.323 OA
HETATM   10  C   UNL     1      44.530 -22.217   2.447  1.00  0.00     0.352 A 
HETATM   11  O   UNL     1      44.854 -21.601   3.711  1.00  0.00    -0.323 OA
HETATM   12  C   UNL     1      42.983 -19.090   1.978  1.00  0.00     0.073 A 
ENDROOT
BRANCH   1  13
HETATM   13  N   UNL     1      41.935 -14.817   3.864  1.00  0.00    -0.301 N 
HETATM   14  C   UNL     1      42.507 -13.620   3.499  1.00  0.00     0.264 C 
HETATM   15  O   UNL     1      43.629 -13.492   3.019  1.00  0.00    -0.267 OA
HETATM   16  H   UNL     1      40.999 -14.807   4.244  1.00  0.00     0.171 HD
BRANCH  14  17
HETATM   17  C   UNL     1      41.659 -12.448   3.731  1.00  0.00     0.074 A 
HETATM   18  C   UNL     1      40.961 -11.732   2.771  1.00  0.00     0.026 A 
HETATM   19  C   UNL     1      40.233 -10.635   3.320  1.00  0.00     0.028 A 
HETATM   20  C   UNL     1      40.403 -10.562   4.678  1.00  0.00     0.052 A 
HETATM   21  S   UNL     1      41.411 -11.775   5.293  1.00  0.00    -0.077 SA
HETATM   22 BR   UNL     1      39.606  -9.252   5.753  1.00  0.00    -0.043 Br
ENDBRANCH  14  17
ENDBRANCH   1  13
TORSDOF 2
ENDMDL
