MODEL 1
REMARK VINA RESULT:      -8.2      0.000      0.000
REMARK  3 active torsions:
REMARK  status: ('A' for Active; 'I' for Inactive)
REMARK    1  A    between atoms: C_3  and  N_4 
REMARK       I    between atoms: N_4  and  C_5 
REMARK    2  A    between atoms: C_5  and  C_6 
REMARK    3  A    between atoms: C_6  and  C_7 
ROOT
HETATM    1  C   UNL     1      43.862 -15.753   5.867  1.00  0.00     0.286 C 
HETATM    2  N   UNL     1      42.519 -15.982   5.170  1.00  0.00    -0.056 N 
HETATM    3  H   UNL     1      42.580 -16.741   4.484  1.00  0.00     0.278 HD
HETATM    4  H   UNL     1      41.864 -16.300   5.918  1.00  0.00     0.278 HD
HETATM    5  C   UNL     1      41.979 -14.723   4.561  1.00  0.00     0.209 C 
HETATM    6  C   UNL     1      41.798 -13.682   5.687  1.00  0.00     0.115 C 
HETATM    7  N   UNL     1      43.044 -13.456   6.414  1.00  0.00    -0.353 N 
HETATM    8  C   UNL     1      43.882 -14.492   6.768  1.00  0.00     0.249 C 
HETATM    9  O   UNL     1      44.672 -14.356   7.696  1.00  0.00    -0.271 OA
HETATM   10  C   UNL     1      40.664 -15.015   3.851  1.00  0.00     0.035 C 
HETATM   11  C   UNL     1      40.072 -13.724   3.286  1.00  0.00     0.002 C 
HETATM   12  C   UNL     1      39.920 -12.645   4.360  1.00  0.00     0.002 C 
HETATM   13  C   UNL     1      41.226 -12.385   5.115  1.00  0.00     0.027 C 
HETATM   14  H   UNL     1      43.072 -12.689   7.084  1.00  0.00     0.163 HD
ENDROOT
BRANCH   1  15
HETATM   15  C   UNL     1      44.282 -17.005   6.646  1.00  0.00     0.146 C 
BRANCH  15  16
HETATM   16  C   UNL     1      43.853 -18.245   5.897  1.00  0.00     0.224 C 
HETATM   17  N   UNL     1      44.809 -18.736   5.037  1.00  0.00    -0.327 N 
HETATM   18  H   UNL     1      45.477 -18.068   4.664  1.00  0.00     0.169 HD
HETATM   19  O   UNL     1      42.695 -18.645   6.013  1.00  0.00    -0.273 OA
BRANCH  17  20
HETATM   20  C   UNL     1      44.654 -19.919   4.280  1.00  0.00     0.040 A 
HETATM   21  C   UNL     1      44.264 -19.936   2.927  1.00  0.00    -0.035 A 
HETATM   22  C   UNL     1      43.853 -18.711   2.156  1.00  0.00     0.050 C 
HETATM   23  C   UNL     1      44.191 -21.173   2.262  1.00  0.00     0.009 A 
HETATM   24  C   UNL     1      44.446 -22.369   2.933  1.00  0.00     0.001 A 
HETATM   25  C   UNL     1      44.763 -22.348   4.286  1.00  0.00     0.002 A 
HETATM   26  C   UNL     1      44.852 -21.130   4.960  1.00  0.00     0.030 A 
ENDBRANCH  17  20
ENDBRANCH  15  16
ENDBRANCH   1  15
TORSDOF 3
ENDMDL
MODEL 2
REMARK VINA RESULT:      -8.2      1.908      2.486
REMARK  3 active torsions:
REMARK  status: ('A' for Active; 'I' for Inactive)
REMARK    1  A    between atoms: C_3  and  N_4 
REMARK       I    between atoms: N_4  and  C_5 
REMARK    2  A    between atoms: C_5  and  C_6 
REMARK    3  A    between atoms: C_6  and  C_7 
ROOT
HETATM    1  C   UNL     1      42.523 -15.616   4.797  1.00  0.00     0.286 C 
HETATM    2  N   UNL     1      42.678 -15.958   3.313  1.00  0.00    -0.056 N 
HETATM    3  H   UNL     1      43.661 -15.924   3.024  1.00  0.00     0.278 HD
HETATM    4  H   UNL     1      42.367 -16.949   3.217  1.00  0.00     0.278 HD
HETATM    5  C   UNL     1      41.813 -15.095   2.444  1.00  0.00     0.209 C 
HETATM    6  C   UNL     1      40.343 -15.308   2.865  1.00  0.00     0.115 C 
HETATM    7  N   UNL     1      40.147 -15.035   4.285  1.00  0.00    -0.353 N 
HETATM    8  C   UNL     1      41.047 -15.457   5.241  1.00  0.00     0.249 C 
HETATM    9  O   UNL     1      40.690 -15.592   6.406  1.00  0.00    -0.271 OA
HETATM   10  C   UNL     1      42.035 -15.450   0.979  1.00  0.00     0.035 C 
HETATM   11  C   UNL     1      41.106 -14.623   0.090  1.00  0.00     0.002 C 
HETATM   12  C   UNL     1      39.640 -14.766   0.503  1.00  0.00     0.002 C 
HETATM   13  C   UNL     1      39.418 -14.463   1.987  1.00  0.00     0.027 C 
HETATM   14  H   UNL     1      39.191 -15.010   4.638  1.00  0.00     0.163 HD
ENDROOT
BRANCH   1  15
HETATM   15  C   UNL     1      43.262 -16.644   5.662  1.00  0.00     0.146 C 
BRANCH  15  16
HETATM   16  C   UNL     1      43.095 -18.027   5.076  1.00  0.00     0.224 C 
HETATM   17  N   UNL     1      44.278 -18.616   4.691  1.00  0.00    -0.327 N 
HETATM   18  H   UNL     1      45.037 -17.994   4.433  1.00  0.00     0.169 HD
HETATM   19  O   UNL     1      41.960 -18.464   4.885  1.00  0.00    -0.273 OA
BRANCH  17  20
HETATM   20  C   UNL     1      44.371 -19.928   4.176  1.00  0.00     0.040 A 
HETATM   21  C   UNL     1      44.133 -20.257   2.828  1.00  0.00    -0.035 A 
HETATM   22  C   UNL     1      43.637 -19.278   1.799  1.00  0.00     0.050 C 
HETATM   23  C   UNL     1      44.307 -21.592   2.419  1.00  0.00     0.009 A 
HETATM   24  C   UNL     1      44.656 -22.586   3.333  1.00  0.00     0.001 A 
HETATM   25  C   UNL     1      44.822 -22.265   4.674  1.00  0.00     0.002 A 
HETATM   26  C   UNL     1      44.667 -20.944   5.097  1.00  0.00     0.030 A 
ENDBRANCH  17  20
ENDBRANCH  15  16
ENDBRANCH   1  15
TORSDOF 3
ENDMDL
MODEL 3
REMARK VINA RESULT:      -8.0      3.763      7.739
REMARK  3 active torsions:
REMARK  status: ('A' for Active; 'I' for Inactive)
REMARK    1  A    between atoms: C_3  and  N_4 
REMARK       I    between atoms: N_4  and  C_5 
REMARK    2  A    between atoms: C_5  and  C_6 
REMARK    3  A    between atoms: C_6  and  C_7 
ROOT
HETATM    1  C   UNL     1      43.073 -17.975   2.279  1.00  0.00     0.286 C 
HETATM    2  N   UNL     1      43.790 -19.262   1.863  1.00  0.00    -0.056 N 
HETATM    3  H   UNL     1      43.409 -19.634   0.988  1.00  0.00     0.278 HD
HETATM    4  H   UNL     1      44.778 -18.985   1.671  1.00  0.00     0.278 HD
HETATM    5  C   UNL     1      43.782 -20.288   2.956  1.00  0.00     0.209 C 
HETATM    6  C   UNL     1      44.490 -19.685   4.189  1.00  0.00     0.115 C 
HETATM    7  N   UNL     1      43.870 -18.431   4.603  1.00  0.00    -0.353 N 
HETATM    8  C   UNL     1      43.472 -17.476   3.691  1.00  0.00     0.249 C 
HETATM    9  O   UNL     1      43.346 -16.307   4.038  1.00  0.00    -0.271 OA
HETATM   10  C   UNL     1      44.473 -21.558   2.477  1.00  0.00     0.035 C 
HETATM   11  C   UNL     1      44.530 -22.585   3.608  1.00  0.00     0.002 C 
HETATM   12  C   UNL     1      45.182 -22.014   4.868  1.00  0.00     0.002 C 
HETATM   13  C   UNL     1      44.527 -20.709   5.325  1.00  0.00     0.027 C 
HETATM   14  H   UNL     1      44.169 -18.021   5.487  1.00  0.00     0.163 HD
ENDROOT
BRANCH   1  15
HETATM   15  C   UNL     1      43.276 -16.883   1.221  1.00  0.00     0.146 C 
BRANCH  15  16
HETATM   16  C   UNL     1      41.985 -16.645   0.473  1.00  0.00     0.224 C 
HETATM   17  N   UNL     1      42.022 -15.560  -0.372  1.00  0.00    -0.327 N 
HETATM   18  H   UNL     1      42.668 -14.814  -0.134  1.00  0.00     0.169 HD
HETATM   19  O   UNL     1      40.999 -17.332   0.744  1.00  0.00    -0.273 OA
BRANCH  17  20
HETATM   20  C   UNL     1      40.953 -15.184  -1.217  1.00  0.00     0.040 A 
HETATM   21  C   UNL     1      39.927 -14.301  -0.833  1.00  0.00    -0.035 A 
HETATM   22  C   UNL     1      39.775 -13.742   0.556  1.00  0.00     0.050 C 
HETATM   23  C   UNL     1      38.942 -13.960  -1.778  1.00  0.00     0.009 A 
HETATM   24  C   UNL     1      38.943 -14.521  -3.054  1.00  0.00     0.001 A 
HETATM   25  C   UNL     1      39.920 -15.445  -3.403  1.00  0.00     0.002 A 
HETATM   26  C   UNL     1      40.913 -15.786  -2.484  1.00  0.00     0.030 A 
ENDBRANCH  17  20
ENDBRANCH  15  16
ENDBRANCH   1  15
TORSDOF 3
ENDMDL
MODEL 4
REMARK VINA RESULT:      -7.9      1.702      2.374
REMARK  3 active torsions:
REMARK  status: ('A' for Active; 'I' for Inactive)
REMARK    1  A    between atoms: C_3  and  N_4 
REMARK       I    between atoms: N_4  and  C_5 
REMARK    2  A    between atoms: C_5  and  C_6 
REMARK    3  A    between atoms: C_6  and  C_7 
ROOT
HETATM    1  C   UNL     1      42.555 -15.836   6.627  1.00  0.00     0.286 C 
HETATM    2  N   UNL     1      43.362 -15.414   5.398  1.00  0.00    -0.056 N 
HETATM    3  H   UNL     1      44.200 -14.887   5.665  1.00  0.00     0.278 HD
HETATM    4  H   UNL     1      43.689 -16.301   4.957  1.00  0.00     0.278 HD
HETATM    5  C   UNL     1      42.525 -14.662   4.407  1.00  0.00     0.209 C 
HETATM    6  C   UNL     1      41.364 -15.578   3.964  1.00  0.00     0.115 C 
HETATM    7  N   UNL     1      40.584 -16.045   5.106  1.00  0.00    -0.353 N 
HETATM    8  C   UNL     1      41.181 -16.460   6.278  1.00  0.00     0.249 C 
HETATM    9  O   UNL     1      40.583 -17.210   7.042  1.00  0.00    -0.271 OA
HETATM   10  C   UNL     1      43.385 -14.234   3.224  1.00  0.00     0.035 C 
HETATM   11  C   UNL     1      42.524 -13.528   2.176  1.00  0.00     0.002 C 
HETATM   12  C   UNL     1      41.332 -14.381   1.743  1.00  0.00     0.002 C 
HETATM   13  C   UNL     1      40.494 -14.860   2.932  1.00  0.00     0.027 C 
HETATM   14  H   UNL     1      39.714 -16.541   4.918  1.00  0.00     0.163 HD
ENDROOT
BRANCH   1  15
HETATM   15  C   UNL     1      43.385 -16.769   7.518  1.00  0.00     0.146 C 
BRANCH  15  16
HETATM   16  C   UNL     1      44.156 -17.746   6.662  1.00  0.00     0.224 C 
HETATM   17  N   UNL     1      43.406 -18.809   6.215  1.00  0.00    -0.327 N 
HETATM   18  H   UNL     1      42.611 -19.082   6.785  1.00  0.00     0.169 HD
HETATM   19  O   UNL     1      45.371 -17.595   6.526  1.00  0.00    -0.273 OA
BRANCH  17  20
HETATM   20  C   UNL     1      43.900 -19.813   5.351  1.00  0.00     0.040 A 
HETATM   21  C   UNL     1      44.030 -19.650   3.959  1.00  0.00    -0.035 A 
HETATM   22  C   UNL     1      43.553 -18.438   3.206  1.00  0.00     0.050 C 
HETATM   23  C   UNL     1      44.582 -20.702   3.206  1.00  0.00     0.009 A 
HETATM   24  C   UNL     1      44.947 -21.906   3.808  1.00  0.00     0.001 A 
HETATM   25  C   UNL     1      44.751 -22.083   5.172  1.00  0.00     0.002 A 
HETATM   26  C   UNL     1      44.216 -21.046   5.938  1.00  0.00     0.030 A 
ENDBRANCH  17  20
ENDBRANCH  15  16
ENDBRANCH   1  15
TORSDOF 3
ENDMDL
MODEL 5
REMARK VINA RESULT:      -7.9      3.678      5.055
REMARK  3 active torsions:
REMARK  status: ('A' for Active; 'I' for Inactive)
REMARK    1  A    between atoms: C_3  and  N_4 
REMARK       I    between atoms: N_4  and  C_5 
REMARK    2  A    between atoms: C_5  and  C_6 
REMARK    3  A    between atoms: C_6  and  C_7 
ROOT
HETATM    1  C   UNL     1      41.198 -14.837   2.061  1.00  0.00     0.286 C 
HETATM    2  N   UNL     1      42.103 -13.905   1.252  1.00  0.00    -0.056 N 
HETATM    3  H   UNL     1      42.338 -13.060   1.783  1.00  0.00     0.278 HD
HETATM    4  H   UNL     1      42.992 -14.430   1.108  1.00  0.00     0.278 HD
HETATM    5  C   UNL     1      41.516 -13.575  -0.087  1.00  0.00     0.209 C 
HETATM    6  C   UNL     1      41.317 -14.894  -0.865  1.00  0.00     0.115 C 
HETATM    7  N   UNL     1      40.493 -15.838  -0.117  1.00  0.00    -0.353 N 
HETATM    8  C   UNL     1      40.650 -16.031   1.239  1.00  0.00     0.249 C 
HETATM    9  O   UNL     1      40.269 -17.072   1.763  1.00  0.00    -0.271 OA
HETATM   10  C   UNL     1      42.437 -12.617  -0.833  1.00  0.00     0.035 C 
HETATM   11  C   UNL     1      41.880 -12.330  -2.228  1.00  0.00     0.002 C 
HETATM   12  C   UNL     1      41.622 -13.614  -3.017  1.00  0.00     0.002 C 
HETATM   13  C   UNL     1      40.741 -14.604  -2.251  1.00  0.00     0.027 C 
HETATM   14  H   UNL     1      40.184 -16.684  -0.594  1.00  0.00     0.163 HD
ENDROOT
BRANCH   1  15
HETATM   15  C   UNL     1      41.916 -15.311   3.331  1.00  0.00     0.146 C 
BRANCH  15  16
HETATM   16  C   UNL     1      42.881 -16.423   2.991  1.00  0.00     0.224 C 
HETATM   17  N   UNL     1      42.557 -17.635   3.558  1.00  0.00    -0.327 N 
HETATM   18  H   UNL     1      42.024 -17.610   4.421  1.00  0.00     0.169 HD
HETATM   19  O   UNL     1      43.903 -16.157   2.359  1.00  0.00    -0.273 OA
BRANCH  17  20
HETATM   20  C   UNL     1      43.278 -18.828   3.329  1.00  0.00     0.040 A 
HETATM   21  C   UNL     1      44.274 -19.317   4.196  1.00  0.00    -0.035 A 
HETATM   22  C   UNL     1      44.773 -18.575   5.406  1.00  0.00     0.050 C 
HETATM   23  C   UNL     1      44.890 -20.544   3.891  1.00  0.00     0.009 A 
HETATM   24  C   UNL     1      44.568 -21.243   2.728  1.00  0.00     0.001 A 
HETATM   25  C   UNL     1      43.633 -20.720   1.843  1.00  0.00     0.002 A 
HETATM   26  C   UNL     1      43.002 -19.510   2.135  1.00  0.00     0.030 A 
ENDBRANCH  17  20
ENDBRANCH  15  16
ENDBRANCH   1  15
TORSDOF 3
ENDMDL
MODEL 6
REMARK VINA RESULT:      -7.8      1.710      6.861
REMARK  3 active torsions:
REMARK  status: ('A' for Active; 'I' for Inactive)
REMARK    1  A    between atoms: C_3  and  N_4 
REMARK       I    between atoms: N_4  and  C_5 
REMARK    2  A    between atoms: C_5  and  C_6 
REMARK    3  A    between atoms: C_6  and  C_7 
ROOT
HETATM    1  C   UNL     1      43.404 -17.734   5.099  1.00  0.00     0.286 C 
HETATM    2  N   UNL     1      43.421 -18.121   3.618  1.00  0.00    -0.056 N 
HETATM    3  H   UNL     1      42.649 -17.680   3.109  1.00  0.00     0.278 HD
HETATM    4  H   UNL     1      44.306 -17.724   3.233  1.00  0.00     0.278 HD
HETATM    5  C   UNL     1      43.436 -19.608   3.426  1.00  0.00     0.209 C 
HETATM    6  C   UNL     1      44.699 -20.170   4.115  1.00  0.00     0.115 C 
HETATM    7  N   UNL     1      44.754 -19.793   5.524  1.00  0.00    -0.353 N 
HETATM    8  C   UNL     1      44.425 -18.525   5.955  1.00  0.00     0.249 C 
HETATM    9  O   UNL     1      44.854 -18.107   7.024  1.00  0.00    -0.271 OA
HETATM   10  C   UNL     1      43.415 -19.937   1.939  1.00  0.00     0.035 C 
HETATM   11  C   UNL     1      43.500 -21.450   1.733  1.00  0.00     0.002 C 
HETATM   12  C   UNL     1      44.712 -22.057   2.440  1.00  0.00     0.002 C 
HETATM   13  C   UNL     1      44.770 -21.685   3.924  1.00  0.00     0.027 C 
HETATM   14  H   UNL     1      45.471 -20.225   6.105  1.00  0.00     0.163 HD
ENDROOT
BRANCH   1  15
HETATM   15  C   UNL     1      43.592 -16.220   5.258  1.00  0.00     0.146 C 
BRANCH  15  16
HETATM   16  C   UNL     1      42.840 -15.490   4.170  1.00  0.00     0.224 C 
HETATM   17  N   UNL     1      41.473 -15.515   4.324  1.00  0.00    -0.327 N 
HETATM   18  H   UNL     1      41.083 -16.302   4.833  1.00  0.00     0.169 HD
HETATM   19  O   UNL     1      43.463 -15.045   3.206  1.00  0.00    -0.273 OA
BRANCH  17  20
HETATM   20  C   UNL     1      40.572 -14.847   3.464  1.00  0.00     0.040 A 
HETATM   21  C   UNL     1      39.946 -15.459   2.362  1.00  0.00    -0.035 A 
HETATM   22  C   UNL     1      40.245 -16.858   1.895  1.00  0.00     0.050 C 
HETATM   23  C   UNL     1      39.027 -14.708   1.606  1.00  0.00     0.009 A 
HETATM   24  C   UNL     1      38.776 -13.369   1.901  1.00  0.00     0.001 A 
HETATM   25  C   UNL     1      39.449 -12.753   2.948  1.00  0.00     0.002 A 
HETATM   26  C   UNL     1      40.355 -13.485   3.718  1.00  0.00     0.030 A 
ENDBRANCH  17  20
ENDBRANCH  15  16
ENDBRANCH   1  15
TORSDOF 3
ENDMDL
MODEL 7
REMARK VINA RESULT:      -7.7      2.627      3.596
REMARK  3 active torsions:
REMARK  status: ('A' for Active; 'I' for Inactive)
REMARK    1  A    between atoms: C_3  and  N_4 
REMARK       I    between atoms: N_4  and  C_5 
REMARK    2  A    between atoms: C_5  and  C_6 
REMARK    3  A    between atoms: C_6  and  C_7 
ROOT
HETATM    1  C   UNL     1      41.628 -15.281   2.811  1.00  0.00     0.286 C 
HETATM    2  N   UNL     1      40.109 -15.183   2.651  1.00  0.00    -0.056 N 
HETATM    3  H   UNL     1      39.665 -16.102   2.743  1.00  0.00     0.278 HD
HETATM    4  H   UNL     1      39.778 -14.604   3.452  1.00  0.00     0.278 HD
HETATM    5  C   UNL     1      39.722 -14.504   1.371  1.00  0.00     0.209 C 
HETATM    6  C   UNL     1      40.327 -13.083   1.378  1.00  0.00     0.115 C 
HETATM    7  N   UNL     1      41.773 -13.117   1.571  1.00  0.00    -0.353 N 
HETATM    8  C   UNL     1      42.369 -13.960   2.485  1.00  0.00     0.249 C 
HETATM    9  O   UNL     1      43.484 -13.702   2.925  1.00  0.00    -0.271 OA
HETATM   10  C   UNL     1      38.205 -14.467   1.245  1.00  0.00     0.035 C 
HETATM   11  C   UNL     1      37.800 -13.715  -0.023  1.00  0.00     0.002 C 
HETATM   12  C   UNL     1      38.417 -12.317  -0.081  1.00  0.00     0.002 C 
HETATM   13  C   UNL     1      39.937 -12.341   0.099  1.00  0.00     0.027 C 
HETATM   14  H   UNL     1      42.290 -12.247   1.453  1.00  0.00     0.163 HD
ENDROOT
BRANCH   1  15
HETATM   15  C   UNL     1      41.987 -15.795   4.211  1.00  0.00     0.146 C 
BRANCH  15  16
HETATM   16  C   UNL     1      42.205 -17.289   4.172  1.00  0.00     0.224 C 
HETATM   17  N   UNL     1      43.250 -17.679   3.365  1.00  0.00    -0.327 N 
HETATM   18  H   UNL     1      43.486 -17.065   2.592  1.00  0.00     0.169 HD
HETATM   19  O   UNL     1      41.402 -18.028   4.742  1.00  0.00    -0.273 OA
BRANCH  17  20
HETATM   20  C   UNL     1      43.677 -19.019   3.224  1.00  0.00     0.040 A 
HETATM   21  C   UNL     1      44.453 -19.696   4.183  1.00  0.00    -0.035 A 
HETATM   22  C   UNL     1      45.021 -19.047   5.416  1.00  0.00     0.050 C 
HETATM   23  C   UNL     1      44.777 -21.047   3.956  1.00  0.00     0.009 A 
HETATM   24  C   UNL     1      44.387 -21.695   2.785  1.00  0.00     0.001 A 
HETATM   25  C   UNL     1      43.679 -20.998   1.813  1.00  0.00     0.002 A 
HETATM   26  C   UNL     1      43.338 -19.662   2.025  1.00  0.00     0.030 A 
ENDBRANCH  17  20
ENDBRANCH  15  16
ENDBRANCH   1  15
TORSDOF 3
ENDMDL
MODEL 8
REMARK VINA RESULT:      -7.5      4.408      5.689
REMARK  3 active torsions:
REMARK  status: ('A' for Active; 'I' for Inactive)
REMARK    1  A    between atoms: C_3  and  N_4 
REMARK       I    between atoms: N_4  and  C_5 
REMARK    2  A    between atoms: C_5  and  C_6 
REMARK    3  A    between atoms: C_6  and  C_7 
ROOT
HETATM    1  C   UNL     1      41.180 -15.586   0.325  1.00  0.00     0.286 C 
HETATM    2  N   UNL     1      41.483 -15.453  -1.169  1.00  0.00    -0.056 N 
HETATM    3  H   UNL     1      42.398 -15.853  -1.401  1.00  0.00     0.278 HD
HETATM    4  H   UNL     1      40.766 -16.034  -1.655  1.00  0.00     0.278 HD
HETATM    5  C   UNL     1      41.359 -14.036  -1.644  1.00  0.00     0.209 C 
HETATM    6  C   UNL     1      39.915 -13.562  -1.372  1.00  0.00     0.115 C 
HETATM    7  N   UNL     1      39.559 -13.707   0.036  1.00  0.00    -0.353 N 
HETATM    8  C   UNL     1      39.905 -14.824   0.765  1.00  0.00     0.249 C 
HETATM    9  O   UNL     1      39.275 -15.120   1.775  1.00  0.00    -0.271 OA
HETATM   10  C   UNL     1      41.707 -13.956  -3.125  1.00  0.00     0.035 C 
HETATM   11  C   UNL     1      41.516 -12.526  -3.633  1.00  0.00     0.002 C 
HETATM   12  C   UNL     1      40.111 -11.997  -3.342  1.00  0.00     0.002 C 
HETATM   13  C   UNL     1      39.734 -12.125  -1.864  1.00  0.00     0.027 C 
HETATM   14  H   UNL     1      38.681 -13.296   0.350  1.00  0.00     0.163 HD
ENDROOT
BRANCH   1  15
HETATM   15  C   UNL     1      41.119 -17.064   0.730  1.00  0.00     0.146 C 
BRANCH  15  16
HETATM   16  C   UNL     1      42.384 -17.451   1.460  1.00  0.00     0.224 C 
HETATM   17  N   UNL     1      42.184 -18.345   2.487  1.00  0.00    -0.327 N 
HETATM   18  H   UNL     1      41.270 -18.339   2.929  1.00  0.00     0.169 HD
HETATM   19  O   UNL     1      43.438 -16.880   1.177  1.00  0.00    -0.273 OA
BRANCH  17  20
HETATM   20  C   UNL     1      43.227 -18.894   3.266  1.00  0.00     0.040 A 
HETATM   21  C   UNL     1      43.908 -20.081   2.935  1.00  0.00    -0.035 A 
HETATM   22  C   UNL     1      43.534 -20.970   1.780  1.00  0.00     0.050 C 
HETATM   23  C   UNL     1      44.965 -20.504   3.761  1.00  0.00     0.009 A 
HETATM   24  C   UNL     1      45.304 -19.800   4.915  1.00  0.00     0.001 A 
HETATM   25  C   UNL     1      44.582 -18.668   5.272  1.00  0.00     0.002 A 
HETATM   26  C   UNL     1      43.539 -18.225   4.458  1.00  0.00     0.030 A 
ENDBRANCH  17  20
ENDBRANCH  15  16
ENDBRANCH   1  15
TORSDOF 3
ENDMDL
MODEL 9
REMARK VINA RESULT:      -7.5      1.631      2.095
REMARK  3 active torsions:
REMARK  status: ('A' for Active; 'I' for Inactive)
REMARK    1  A    between atoms: C_3  and  N_4 
REMARK       I    between atoms: N_4  and  C_5 
REMARK    2  A    between atoms: C_5  and  C_6 
REMARK    3  A    between atoms: C_6  and  C_7 
ROOT
HETATM    1  C   UNL     1      42.321 -15.554   4.976  1.00  0.00     0.286 C 
HETATM    2  N   UNL     1      41.819 -14.487   5.951  1.00  0.00    -0.056 N 
HETATM    3  H   UNL     1      41.298 -14.907   6.727  1.00  0.00     0.278 HD
HETATM    4  H   UNL     1      42.675 -14.053   6.360  1.00  0.00     0.278 HD
HETATM    5  C   UNL     1      41.023 -13.422   5.258  1.00  0.00     0.209 C 
HETATM    6  C   UNL     1      41.927 -12.758   4.197  1.00  0.00     0.115 C 
HETATM    7  N   UNL     1      42.468 -13.740   3.263  1.00  0.00    -0.353 N 
HETATM    8  C   UNL     1      42.942 -14.965   3.684  1.00  0.00     0.249 C 
HETATM    9  O   UNL     1      43.742 -15.587   2.993  1.00  0.00    -0.271 OA
HETATM   10  C   UNL     1      40.517 -12.410   6.278  1.00  0.00     0.035 C 
HETATM   11  C   UNL     1      39.763 -11.283   5.572  1.00  0.00     0.002 C 
HETATM   12  C   UNL     1      40.605 -10.627   4.477  1.00  0.00     0.002 C 
HETATM   13  C   UNL     1      41.162 -11.646   3.479  1.00  0.00     0.027 C 
HETATM   14  H   UNL     1      42.963 -13.395   2.442  1.00  0.00     0.163 HD
ENDROOT
BRANCH   1  15
HETATM   15  C   UNL     1      43.293 -16.509   5.680  1.00  0.00     0.146 C 
BRANCH  15  16
HETATM   16  C   UNL     1      43.113 -17.912   5.150  1.00  0.00     0.224 C 
HETATM   17  N   UNL     1      44.249 -18.445   4.584  1.00  0.00    -0.327 N 
HETATM   18  H   UNL     1      44.919 -17.789   4.195  1.00  0.00     0.169 HD
HETATM   19  O   UNL     1      41.989 -18.414   5.154  1.00  0.00    -0.273 OA
BRANCH  17  20
HETATM   20  C   UNL     1      44.332 -19.762   4.080  1.00  0.00     0.040 A 
HETATM   21  C   UNL     1      44.036 -20.109   2.748  1.00  0.00    -0.035 A 
HETATM   22  C   UNL     1      43.483 -19.147   1.732  1.00  0.00     0.050 C 
HETATM   23  C   UNL     1      44.205 -21.446   2.346  1.00  0.00     0.009 A 
HETATM   24  C   UNL     1      44.605 -22.427   3.253  1.00  0.00     0.001 A 
HETATM   25  C   UNL     1      44.830 -22.088   4.582  1.00  0.00     0.002 A 
HETATM   26  C   UNL     1      44.680 -20.764   4.997  1.00  0.00     0.030 A 
ENDBRANCH  17  20
ENDBRANCH  15  16
ENDBRANCH   1  15
TORSDOF 3
ENDMDL
MODEL 10
REMARK VINA RESULT:      -7.5      2.280      3.398
REMARK  3 active torsions:
REMARK  status: ('A' for Active; 'I' for Inactive)
REMARK    1  A    between atoms: C_3  and  N_4 
REMARK       I    between atoms: N_4  and  C_5 
REMARK    2  A    between atoms: C_5  and  C_6 
REMARK    3  A    between atoms: C_6  and  C_7 
ROOT
HETATM    1  C   UNL     1      41.651 -15.689   2.586  1.00  0.00     0.286 C 
HETATM    2  N   UNL     1      41.581 -15.150   4.016  1.00  0.00    -0.056 N 
HETATM    3  H   UNL     1      41.638 -15.908   4.703  1.00  0.00     0.278 HD
HETATM    4  H   UNL     1      42.435 -14.564   4.139  1.00  0.00     0.278 HD
HETATM    5  C   UNL     1      40.371 -14.292   4.234  1.00  0.00     0.209 C 
HETATM    6  C   UNL     1      40.436 -13.107   3.246  1.00  0.00     0.115 C 
HETATM    7  N   UNL     1      40.546 -13.567   1.865  1.00  0.00    -0.353 N 
HETATM    8  C   UNL     1      41.370 -14.613   1.507  1.00  0.00     0.249 C 
HETATM    9  O   UNL     1      41.764 -14.719   0.351  1.00  0.00    -0.271 OA
HETATM   10  C   UNL     1      40.331 -13.814   5.680  1.00  0.00     0.035 C 
HETATM   11  C   UNL     1      39.138 -12.882   5.894  1.00  0.00     0.002 C 
HETATM   12  C   UNL     1      39.135 -11.718   4.902  1.00  0.00     0.002 C 
HETATM   13  C   UNL     1      39.230 -12.188   3.449  1.00  0.00     0.027 C 
HETATM   14  H   UNL     1      40.456 -12.874   1.123  1.00  0.00     0.163 HD
ENDROOT
BRANCH   1  15
HETATM   15  C   UNL     1      42.993 -16.390   2.343  1.00  0.00     0.146 C 
BRANCH  15  16
HETATM   16  C   UNL     1      42.975 -17.767   2.963  1.00  0.00     0.224 C 
HETATM   17  N   UNL     1      44.078 -18.531   2.659  1.00  0.00    -0.327 N 
HETATM   18  H   UNL     1      44.552 -18.325   1.785  1.00  0.00     0.169 HD
HETATM   19  O   UNL     1      41.971 -18.137   3.573  1.00  0.00    -0.273 OA
BRANCH  17  20
HETATM   20  C   UNL     1      44.306 -19.826   3.177  1.00  0.00     0.040 A 
HETATM   21  C   UNL     1      44.684 -20.079   4.509  1.00  0.00    -0.035 A 
HETATM   22  C   UNL     1      45.007 -19.003   5.510  1.00  0.00     0.050 C 
HETATM   23  C   UNL     1      44.834 -21.415   4.925  1.00  0.00     0.009 A 
HETATM   24  C   UNL     1      44.665 -22.471   4.031  1.00  0.00     0.001 A 
HETATM   25  C   UNL     1      44.359 -22.210   2.701  1.00  0.00     0.002 A 
HETATM   26  C   UNL     1      44.194 -20.892   2.272  1.00  0.00     0.030 A 
ENDBRANCH  17  20
ENDBRANCH  15  16
ENDBRANCH   1  15
TORSDOF 3
ENDMDL
