MODEL 1
REMARK VINA RESULT:      -9.3      0.000      0.000
REMARK  5 active torsions:
REMARK  status: ('A' for Active; 'I' for Inactive)
REMARK    1  A    between atoms: C_2  and  C_3 
REMARK       I    between atoms: C_3  and  N_4 
REMARK    2  A    between atoms: N_4  and  C_5 
REMARK    3  A    between atoms: C_8  and  C_9 
REMARK       I    between atoms: C_9  and  N_10 
REMARK    4  A    between atoms: N_10  and  N_11 
REMARK    5  A    between atoms: C_12  and  C_13 
ROOT
HETATM    1  C   UNL     1      45.127 -13.432   7.491  1.00  0.00     0.271 C 
HETATM    2  N   UNL     1      44.332 -14.569   7.434  1.00  0.00    -0.243 N 
HETATM    3  O   UNL     1      46.068 -13.174   6.747  1.00  0.00    -0.266 OA
HETATM    4  H   UNL     1      43.417 -14.544   7.872  1.00  0.00     0.192 HD
ENDROOT
BRANCH   2   5
HETATM    5  N   UNL     1      44.475 -15.611   6.549  1.00  0.00    -0.183 NA
HETATM    6  C   UNL     1      43.499 -16.453   6.420  1.00  0.00     0.153 C 
BRANCH   6   7
HETATM    7  C   UNL     1      43.615 -17.580   5.507  1.00  0.00     0.018 A 
HETATM    8  C   UNL     1      43.621 -17.492   4.074  1.00  0.00     0.004 A 
HETATM    9  C   UNL     1      43.769 -18.784   3.573  1.00  0.00     0.043 A 
HETATM   10  C   UNL     1      43.513 -16.427   3.153  1.00  0.00     0.014 A 
HETATM   11  C   UNL     1      43.818 -19.068   2.202  1.00  0.00     0.030 A 
HETATM   12  N   UNL     1      43.842 -19.628   4.654  1.00  0.00    -0.358 N 
HETATM   13  C   UNL     1      43.713 -17.995   1.313  1.00  0.00     0.002 A 
HETATM   14  C   UNL     1      43.560 -16.692   1.779  1.00  0.00     0.001 A 
HETATM   15  H   UNL     1      43.948 -20.630   4.585  1.00  0.00     0.166 HD
HETATM   16  C   UNL     1      43.753 -18.924   5.830  1.00  0.00     0.018 A 
HETATM   17  C   UNL     1      43.816 -19.616   7.145  1.00  0.00     0.069 C 
ENDBRANCH   6   7
ENDBRANCH   2   5
BRANCH   1  18
HETATM   18  C   UNL     1      44.757 -12.444   8.545  1.00  0.00     0.033 A 
HETATM   19  C   UNL     1      43.536 -11.762   8.535  1.00  0.00     0.019 A 
HETATM   20  C   UNL     1      43.209 -10.881   9.576  1.00  0.00     0.030 A 
HETATM   21  C   UNL     1      44.091 -10.675  10.639  1.00  0.00     0.034 A 
HETATM   22  C   UNL     1      45.314 -11.358  10.644  1.00  0.00     0.030 A 
HETATM   23  C   UNL     1      45.642 -12.241   9.610  1.00  0.00     0.019 A 
BRANCH  21  24
HETATM   24  N   UNL     1      43.825  -9.829  11.735  1.00  0.00    -0.327 N 
HETATM   25  C   UNL     1      43.184 -10.156  12.915  1.00  0.00     0.221 C 
HETATM   26  O   UNL     1      42.684 -11.241  13.196  1.00  0.00    -0.273 OA
HETATM   27  H   UNL     1      44.175  -8.884  11.653  1.00  0.00     0.169 HD
BRANCH  25  28
HETATM   28  C   UNL     1      43.096  -8.995  13.894  1.00  0.00     0.098 C 
HETATM   29  C   UNL     1      42.423  -9.364  15.206  1.00  0.00     0.014 C 
ENDBRANCH  25  28
ENDBRANCH  21  24
ENDBRANCH   1  18
TORSDOF 5
ENDMDL
MODEL 2
REMARK VINA RESULT:      -8.8      1.187      2.319
REMARK  5 active torsions:
REMARK  status: ('A' for Active; 'I' for Inactive)
REMARK    1  A    between atoms: C_2  and  C_3 
REMARK       I    between atoms: C_3  and  N_4 
REMARK    2  A    between atoms: N_4  and  C_5 
REMARK    3  A    between atoms: C_8  and  C_9 
REMARK       I    between atoms: C_9  and  N_10 
REMARK    4  A    between atoms: N_10  and  N_11 
REMARK    5  A    between atoms: C_12  and  C_13 
ROOT
HETATM    1  C   UNL     1      44.917 -13.379   7.329  1.00  0.00     0.271 C 
HETATM    2  N   UNL     1      43.856 -14.200   6.969  1.00  0.00    -0.243 N 
HETATM    3  O   UNL     1      45.976 -13.265   6.721  1.00  0.00    -0.266 OA
HETATM    4  H   UNL     1      42.935 -13.996   7.345  1.00  0.00     0.192 HD
ENDROOT
BRANCH   2   5
HETATM    5  N   UNL     1      43.818 -15.042   5.884  1.00  0.00    -0.183 NA
HETATM    6  C   UNL     1      42.761 -15.768   5.698  1.00  0.00     0.153 C 
BRANCH   6   7
HETATM    7  C   UNL     1      42.686 -16.684   4.571  1.00  0.00     0.018 A 
HETATM    8  C   UNL     1      43.447 -17.893   4.430  1.00  0.00     0.004 A 
HETATM    9  C   UNL     1      43.071 -18.490   3.228  1.00  0.00     0.043 A 
HETATM   10  C   UNL     1      44.427 -18.537   5.217  1.00  0.00     0.014 A 
HETATM   11  C   UNL     1      43.619 -19.696   2.773  1.00  0.00     0.030 A 
HETATM   12  N   UNL     1      42.125 -17.676   2.654  1.00  0.00    -0.358 N 
HETATM   13  C   UNL     1      44.583 -20.314   3.574  1.00  0.00     0.002 A 
HETATM   14  C   UNL     1      44.986 -19.744   4.778  1.00  0.00     0.001 A 
HETATM   15  H   UNL     1      41.676 -17.864   1.769  1.00  0.00     0.166 HD
HETATM   16  C   UNL     1      41.875 -16.583   3.447  1.00  0.00     0.018 A 
HETATM   17  C   UNL     1      40.880 -15.555   3.045  1.00  0.00     0.069 C 
ENDBRANCH   6   7
ENDBRANCH   2   5
BRANCH   1  18
HETATM   18  C   UNL     1      44.702 -12.555   8.553  1.00  0.00     0.033 A 
HETATM   19  C   UNL     1      45.628 -12.518   9.601  1.00  0.00     0.019 A 
HETATM   20  C   UNL     1      45.409 -11.688  10.710  1.00  0.00     0.030 A 
HETATM   21  C   UNL     1      44.270 -10.883  10.784  1.00  0.00     0.034 A 
HETATM   22  C   UNL     1      43.344 -10.925   9.733  1.00  0.00     0.030 A 
HETATM   23  C   UNL     1      43.561 -11.748   8.623  1.00  0.00     0.019 A 
BRANCH  21  24
HETATM   24  N   UNL     1      43.991 -10.003  11.848  1.00  0.00    -0.327 N 
HETATM   25  C   UNL     1      43.137 -10.215  12.916  1.00  0.00     0.221 C 
HETATM   26  O   UNL     1      42.428 -11.200  13.095  1.00  0.00    -0.273 OA
HETATM   27  H   UNL     1      44.501  -9.129  11.840  1.00  0.00     0.169 HD
BRANCH  25  28
HETATM   28  C   UNL     1      43.101  -9.054  13.898  1.00  0.00     0.098 C 
HETATM   29  C   UNL     1      42.439  -9.406  15.220  1.00  0.00     0.014 C 
ENDBRANCH  25  28
ENDBRANCH  21  24
ENDBRANCH   1  18
TORSDOF 5
ENDMDL
MODEL 3
REMARK VINA RESULT:      -8.5      6.641     11.310
REMARK  5 active torsions:
REMARK  status: ('A' for Active; 'I' for Inactive)
REMARK    1  A    between atoms: C_2  and  C_3 
REMARK       I    between atoms: C_3  and  N_4 
REMARK    2  A    between atoms: N_4  and  C_5 
REMARK    3  A    between atoms: C_8  and  C_9 
REMARK       I    between atoms: C_9  and  N_10 
REMARK    4  A    between atoms: N_10  and  N_11 
REMARK    5  A    between atoms: C_12  and  C_13 
ROOT
HETATM    1  C   UNL     1      41.556 -14.904  -0.127  1.00  0.00     0.271 C 
HETATM    2  N   UNL     1      41.781 -16.275  -0.103  1.00  0.00    -0.243 N 
HETATM    3  O   UNL     1      42.081 -14.076   0.612  1.00  0.00    -0.266 OA
HETATM    4  H   UNL     1      41.550 -16.819  -0.929  1.00  0.00     0.192 HD
ENDROOT
BRANCH   2   5
HETATM    5  N   UNL     1      42.611 -16.942   0.765  1.00  0.00    -0.183 NA
HETATM    6  C   UNL     1      42.107 -17.431   1.854  1.00  0.00     0.153 C 
BRANCH   6   7
HETATM    7  C   UNL     1      42.953 -18.131   2.807  1.00  0.00     0.018 A 
HETATM    8  C   UNL     1      43.415 -19.483   2.674  1.00  0.00     0.004 A 
HETATM    9  C   UNL     1      44.211 -19.768   3.782  1.00  0.00     0.043 A 
HETATM   10  C   UNL     1      43.228 -20.496   1.708  1.00  0.00     0.014 A 
HETATM   11  C   UNL     1      44.832 -21.009   3.973  1.00  0.00     0.030 A 
HETATM   12  N   UNL     1      44.228 -18.640   4.564  1.00  0.00    -0.358 N 
HETATM   13  C   UNL     1      44.634 -21.991   3.000  1.00  0.00     0.002 A 
HETATM   14  C   UNL     1      43.841 -21.743   1.883  1.00  0.00     0.001 A 
HETATM   15  H   UNL     1      44.729 -18.564   5.438  1.00  0.00     0.166 HD
HETATM   16  C   UNL     1      43.478 -17.639   3.997  1.00  0.00     0.018 A 
HETATM   17  C   UNL     1      43.347 -16.312   4.652  1.00  0.00     0.069 C 
ENDBRANCH   6   7
ENDBRANCH   2   5
BRANCH   1  18
HETATM   18  C   UNL     1      40.610 -14.428  -1.177  1.00  0.00     0.033 A 
HETATM   19  C   UNL     1      40.829 -14.654  -2.540  1.00  0.00     0.019 A 
HETATM   20  C   UNL     1      39.885 -14.234  -3.487  1.00  0.00     0.030 A 
HETATM   21  C   UNL     1      38.711 -13.591  -3.088  1.00  0.00     0.034 A 
HETATM   22  C   UNL     1      38.497 -13.365  -1.722  1.00  0.00     0.030 A 
HETATM   23  C   UNL     1      39.434 -13.786  -0.773  1.00  0.00     0.019 A 
BRANCH  21  24
HETATM   24  N   UNL     1      37.702 -13.164  -3.974  1.00  0.00    -0.327 N 
HETATM   25  C   UNL     1      36.654 -13.911  -4.481  1.00  0.00     0.221 C 
HETATM   26  O   UNL     1      36.448 -15.104  -4.282  1.00  0.00    -0.273 OA
HETATM   27  H   UNL     1      37.738 -12.189  -4.242  1.00  0.00     0.169 HD
BRANCH  25  28
HETATM   28  C   UNL     1      35.733 -13.115  -5.393  1.00  0.00     0.098 C 
HETATM   29  C   UNL     1      34.360 -12.866  -4.793  1.00  0.00     0.014 C 
ENDBRANCH  25  28
ENDBRANCH  21  24
ENDBRANCH   1  18
TORSDOF 5
ENDMDL
MODEL 4
REMARK VINA RESULT:      -8.3      6.376     11.238
REMARK  5 active torsions:
REMARK  status: ('A' for Active; 'I' for Inactive)
REMARK    1  A    between atoms: C_2  and  C_3 
REMARK       I    between atoms: C_3  and  N_4 
REMARK    2  A    between atoms: N_4  and  C_5 
REMARK    3  A    between atoms: C_8  and  C_9 
REMARK       I    between atoms: C_9  and  N_10 
REMARK    4  A    between atoms: N_10  and  N_11 
REMARK    5  A    between atoms: C_12  and  C_13 
ROOT
HETATM    1  C   UNL     1      41.612 -15.254   0.166  1.00  0.00     0.271 C 
HETATM    2  N   UNL     1      42.120 -16.545   0.091  1.00  0.00    -0.243 N 
HETATM    3  O   UNL     1      41.843 -14.441   1.055  1.00  0.00    -0.266 OA
HETATM    4  H   UNL     1      42.124 -17.014  -0.810  1.00  0.00     0.192 HD
ENDROOT
BRANCH   2   5
HETATM    5  N   UNL     1      42.950 -17.141   1.009  1.00  0.00    -0.183 NA
HETATM    6  C   UNL     1      42.435 -17.957   1.874  1.00  0.00     0.153 C 
BRANCH   6   7
HETATM    7  C   UNL     1      43.275 -18.596   2.874  1.00  0.00     0.018 A 
HETATM    8  C   UNL     1      43.663 -18.017   4.129  1.00  0.00     0.004 A 
HETATM    9  C   UNL     1      44.447 -18.953   4.801  1.00  0.00     0.043 A 
HETATM   10  C   UNL     1      43.419 -16.776   4.757  1.00  0.00     0.014 A 
HETATM   11  C   UNL     1      44.996 -18.716   6.068  1.00  0.00     0.030 A 
HETATM   12  N   UNL     1      44.541 -20.055   3.988  1.00  0.00    -0.358 N 
HETATM   13  C   UNL     1      44.735 -17.481   6.668  1.00  0.00     0.002 A 
HETATM   14  C   UNL     1      43.960 -16.521   6.023  1.00  0.00     0.001 A 
HETATM   15  H   UNL     1      45.056 -20.892   4.224  1.00  0.00     0.166 HD
HETATM   16  C   UNL     1      43.841 -19.865   2.822  1.00  0.00     0.018 A 
HETATM   17  C   UNL     1      43.784 -20.922   1.780  1.00  0.00     0.069 C 
ENDBRANCH   6   7
ENDBRANCH   2   5
BRANCH   1  18
HETATM   18  C   UNL     1      40.734 -14.845  -0.969  1.00  0.00     0.033 A 
HETATM   19  C   UNL     1      40.920 -15.326  -2.269  1.00  0.00     0.019 A 
HETATM   20  C   UNL     1      40.038 -14.954  -3.293  1.00  0.00     0.030 A 
HETATM   21  C   UNL     1      38.960 -14.105  -3.033  1.00  0.00     0.034 A 
HETATM   22  C   UNL     1      38.779 -13.624  -1.730  1.00  0.00     0.030 A 
HETATM   23  C   UNL     1      39.654 -13.996  -0.704  1.00  0.00     0.019 A 
BRANCH  21  24
HETATM   24  N   UNL     1      38.014 -13.707  -3.999  1.00  0.00    -0.327 N 
HETATM   25  C   UNL     1      36.817 -14.325  -4.311  1.00  0.00     0.221 C 
HETATM   26  O   UNL     1      36.389 -15.368  -3.828  1.00  0.00    -0.273 OA
HETATM   27  H   UNL     1      38.229 -12.853  -4.497  1.00  0.00     0.169 HD
BRANCH  25  28
HETATM   28  C   UNL     1      36.030 -13.601  -5.393  1.00  0.00     0.098 C 
HETATM   29  C   UNL     1      34.976 -12.655  -4.839  1.00  0.00     0.014 C 
ENDBRANCH  25  28
ENDBRANCH  21  24
ENDBRANCH   1  18
TORSDOF 5
ENDMDL
MODEL 5
REMARK VINA RESULT:      -8.2      1.990      3.214
REMARK  5 active torsions:
REMARK  status: ('A' for Active; 'I' for Inactive)
REMARK    1  A    between atoms: C_2  and  C_3 
REMARK       I    between atoms: C_3  and  N_4 
REMARK    2  A    between atoms: N_4  and  C_5 
REMARK    3  A    between atoms: C_8  and  C_9 
REMARK       I    between atoms: C_9  and  N_10 
REMARK    4  A    between atoms: N_10  and  N_11 
REMARK    5  A    between atoms: C_12  and  C_13 
ROOT
HETATM    1  C   UNL     1      43.518 -14.345   5.379  1.00  0.00     0.271 C 
HETATM    2  N   UNL     1      43.323 -15.680   5.713  1.00  0.00    -0.243 N 
HETATM    3  O   UNL     1      43.569 -13.889   4.241  1.00  0.00    -0.266 OA
HETATM    4  H   UNL     1      42.992 -15.903   6.646  1.00  0.00     0.192 HD
ENDROOT
BRANCH   2   5
HETATM    5  N   UNL     1      43.175 -16.721   4.828  1.00  0.00    -0.183 NA
HETATM    6  C   UNL     1      44.214 -17.434   4.530  1.00  0.00     0.153 C 
BRANCH   6   7
HETATM    7  C   UNL     1      44.106 -18.535   3.586  1.00  0.00     0.018 A 
HETATM    8  C   UNL     1      44.355 -19.916   3.886  1.00  0.00     0.004 A 
HETATM    9  C   UNL     1      44.123 -20.648   2.723  1.00  0.00     0.043 A 
HETATM   10  C   UNL     1      44.760 -20.613   5.045  1.00  0.00     0.014 A 
HETATM   11  C   UNL     1      44.271 -22.040   2.659  1.00  0.00     0.030 A 
HETATM   12  N   UNL     1      43.755 -19.752   1.750  1.00  0.00    -0.358 N 
HETATM   13  C   UNL     1      44.667 -22.705   3.821  1.00  0.00     0.002 A 
HETATM   14  C   UNL     1      44.912 -22.005   4.999  1.00  0.00     0.001 A 
HETATM   15  H   UNL     1      43.529 -20.008   0.800  1.00  0.00     0.166 HD
HETATM   16  C   UNL     1      43.736 -18.472   2.247  1.00  0.00     0.018 A 
HETATM   17  C   UNL     1      43.359 -17.320   1.387  1.00  0.00     0.069 C 
ENDBRANCH   6   7
ENDBRANCH   2   5
BRANCH   1  18
HETATM   18  C   UNL     1      43.644 -13.408   6.533  1.00  0.00     0.033 A 
HETATM   19  C   UNL     1      42.746 -12.356   6.743  1.00  0.00     0.019 A 
HETATM   20  C   UNL     1      42.874 -11.533   7.871  1.00  0.00     0.030 A 
HETATM   21  C   UNL     1      43.891 -11.752   8.802  1.00  0.00     0.034 A 
HETATM   22  C   UNL     1      44.789 -12.804   8.586  1.00  0.00     0.030 A 
HETATM   23  C   UNL     1      44.663 -13.632   7.465  1.00  0.00     0.019 A 
BRANCH  21  24
HETATM   24  N   UNL     1      44.069 -10.987   9.973  1.00  0.00    -0.327 N 
HETATM   25  C   UNL     1      43.197 -10.863  11.039  1.00  0.00     0.221 C 
HETATM   26  O   UNL     1      42.081 -11.364  11.128  1.00  0.00    -0.273 OA
HETATM   27  H   UNL     1      44.953 -10.501  10.048  1.00  0.00     0.169 HD
BRANCH  25  28
HETATM   28  C   UNL     1      43.730  -9.973  12.152  1.00  0.00     0.098 C 
HETATM   29  C   UNL     1      42.952 -10.103  13.451  1.00  0.00     0.014 C 
ENDBRANCH  25  28
ENDBRANCH  21  24
ENDBRANCH   1  18
TORSDOF 5
ENDMDL
MODEL 6
REMARK VINA RESULT:      -7.9      6.566     10.585
REMARK  5 active torsions:
REMARK  status: ('A' for Active; 'I' for Inactive)
REMARK    1  A    between atoms: C_2  and  C_3 
REMARK       I    between atoms: C_3  and  N_4 
REMARK    2  A    between atoms: N_4  and  C_5 
REMARK    3  A    between atoms: C_8  and  C_9 
REMARK       I    between atoms: C_9  and  N_10 
REMARK    4  A    between atoms: N_10  and  N_11 
REMARK    5  A    between atoms: C_12  and  C_13 
ROOT
HETATM    1  C   UNL     1      41.221 -15.980   0.536  1.00  0.00     0.271 C 
HETATM    2  N   UNL     1      42.331 -16.814   0.596  1.00  0.00    -0.243 N 
HETATM    3  O   UNL     1      40.320 -15.921   1.367  1.00  0.00    -0.266 OA
HETATM    4  H   UNL     1      43.149 -16.574   0.045  1.00  0.00     0.192 HD
ENDROOT
BRANCH   2   5
HETATM    5  N   UNL     1      42.600 -17.731   1.583  1.00  0.00    -0.183 NA
HETATM    6  C   UNL     1      43.598 -17.512   2.379  1.00  0.00     0.153 C 
BRANCH   6   7
HETATM    7  C   UNL     1      43.927 -18.465   3.427  1.00  0.00     0.018 A 
HETATM    8  C   UNL     1      44.158 -19.869   3.233  1.00  0.00     0.004 A 
HETATM    9  C   UNL     1      44.462 -20.422   4.475  1.00  0.00     0.043 A 
HETATM   10  C   UNL     1      44.137 -20.723   2.109  1.00  0.00     0.014 A 
HETATM   11  C   UNL     1      44.749 -21.782   4.653  1.00  0.00     0.030 A 
HETATM   12  N   UNL     1      44.410 -19.401   5.393  1.00  0.00    -0.358 N 
HETATM   13  C   UNL     1      44.724 -22.603   3.523  1.00  0.00     0.002 A 
HETATM   14  C   UNL     1      44.420 -22.085   2.268  1.00  0.00     0.001 A 
HETATM   15  H   UNL     1      44.586 -19.517   6.381  1.00  0.00     0.166 HD
HETATM   16  C   UNL     1      44.091 -18.212   4.784  1.00  0.00     0.018 A 
HETATM   17  C   UNL     1      43.982 -16.954   5.568  1.00  0.00     0.069 C 
ENDBRANCH   6   7
ENDBRANCH   2   5
BRANCH   1  18
HETATM   18  C   UNL     1      41.169 -15.068  -0.643  1.00  0.00     0.033 A 
HETATM   19  C   UNL     1      41.129 -15.546  -1.957  1.00  0.00     0.019 A 
HETATM   20  C   UNL     1      41.028 -14.651  -3.031  1.00  0.00     0.030 A 
HETATM   21  C   UNL     1      40.959 -13.274  -2.810  1.00  0.00     0.034 A 
HETATM   22  C   UNL     1      41.001 -12.800  -1.492  1.00  0.00     0.030 A 
HETATM   23  C   UNL     1      41.098 -13.689  -0.416  1.00  0.00     0.019 A 
BRANCH  21  24
HETATM   24  N   UNL     1      40.828 -12.313  -3.833  1.00  0.00    -0.327 N 
HETATM   25  C   UNL     1      41.745 -11.347  -4.203  1.00  0.00     0.221 C 
HETATM   26  O   UNL     1      42.825 -11.124  -3.664  1.00  0.00    -0.273 OA
HETATM   27  H   UNL     1      39.975 -12.363  -4.374  1.00  0.00     0.169 HD
BRANCH  25  28
HETATM   28  C   UNL     1      41.282 -10.494  -5.374  1.00  0.00     0.098 C 
HETATM   29  C   UNL     1      42.120  -9.243  -5.576  1.00  0.00     0.014 C 
ENDBRANCH  25  28
ENDBRANCH  21  24
ENDBRANCH   1  18
TORSDOF 5
ENDMDL
MODEL 7
REMARK VINA RESULT:      -7.9      7.770     11.146
REMARK  5 active torsions:
REMARK  status: ('A' for Active; 'I' for Inactive)
REMARK    1  A    between atoms: C_2  and  C_3 
REMARK       I    between atoms: C_3  and  N_4 
REMARK    2  A    between atoms: N_4  and  C_5 
REMARK    3  A    between atoms: C_8  and  C_9 
REMARK       I    between atoms: C_9  and  N_10 
REMARK    4  A    between atoms: N_10  and  N_11 
REMARK    5  A    between atoms: C_12  and  C_13 
ROOT
HETATM    1  C   UNL     1      42.125 -15.516   1.188  1.00  0.00     0.271 C 
HETATM    2  N   UNL     1      41.297 -15.727   0.093  1.00  0.00    -0.243 N 
HETATM    3  O   UNL     1      42.442 -14.425   1.651  1.00  0.00    -0.266 OA
HETATM    4  H   UNL     1      40.857 -16.635  -0.015  1.00  0.00     0.192 HD
ENDROOT
BRANCH   2   5
HETATM    5  N   UNL     1      40.709 -14.750  -0.675  1.00  0.00    -0.183 NA
HETATM    6  C   UNL     1      40.938 -14.741  -1.950  1.00  0.00     0.153 C 
BRANCH   6   7
HETATM    7  C   UNL     1      40.348 -13.716  -2.796  1.00  0.00     0.018 A 
HETATM    8  C   UNL     1      41.026 -12.548  -3.283  1.00  0.00     0.004 A 
HETATM    9  C   UNL     1      40.124 -11.835  -4.070  1.00  0.00     0.043 A 
HETATM   10  C   UNL     1      42.330 -12.030  -3.125  1.00  0.00     0.014 A 
HETATM   11  C   UNL     1      40.457 -10.634  -4.711  1.00  0.00     0.030 A 
HETATM   12  N   UNL     1      38.942 -12.533  -4.059  1.00  0.00    -0.358 N 
HETATM   13  C   UNL     1      41.755 -10.146  -4.541  1.00  0.00     0.002 A 
HETATM   14  C   UNL     1      42.680 -10.830  -3.758  1.00  0.00     0.001 A 
HETATM   15  H   UNL     1      38.107 -12.242  -4.548  1.00  0.00     0.166 HD
HETATM   16  C   UNL     1      39.053 -13.671  -3.299  1.00  0.00     0.018 A 
HETATM   17  C   UNL     1      37.905 -14.601  -3.137  1.00  0.00     0.069 C 
ENDBRANCH   6   7
ENDBRANCH   2   5
BRANCH   1  18
HETATM   18  C   UNL     1      42.632 -16.751   1.855  1.00  0.00     0.033 A 
HETATM   19  C   UNL     1      42.095 -17.226   3.056  1.00  0.00     0.019 A 
HETATM   20  C   UNL     1      42.568 -18.420   3.618  1.00  0.00     0.030 A 
HETATM   21  C   UNL     1      43.575 -19.155   2.988  1.00  0.00     0.034 A 
HETATM   22  C   UNL     1      44.112 -18.674   1.787  1.00  0.00     0.030 A 
HETATM   23  C   UNL     1      43.639 -17.485   1.220  1.00  0.00     0.019 A 
BRANCH  21  24
HETATM   24  N   UNL     1      44.085 -20.376   3.474  1.00  0.00    -0.327 N 
HETATM   25  C   UNL     1      44.168 -21.582   2.801  1.00  0.00     0.221 C 
HETATM   26  O   UNL     1      43.760 -21.812   1.667  1.00  0.00    -0.273 OA
HETATM   27  H   UNL     1      44.460 -20.352   4.413  1.00  0.00     0.169 HD
BRANCH  25  28
HETATM   28  C   UNL     1      44.804 -22.689   3.627  1.00  0.00     0.098 C 
HETATM   29  C   UNL     1      45.073 -22.287   5.068  1.00  0.00     0.014 C 
ENDBRANCH  25  28
ENDBRANCH  21  24
ENDBRANCH   1  18
TORSDOF 5
ENDMDL
MODEL 8
REMARK VINA RESULT:      -7.8      2.559     10.464
REMARK  5 active torsions:
REMARK  status: ('A' for Active; 'I' for Inactive)
REMARK    1  A    between atoms: C_2  and  C_3 
REMARK       I    between atoms: C_3  and  N_4 
REMARK    2  A    between atoms: N_4  and  C_5 
REMARK    3  A    between atoms: C_8  and  C_9 
REMARK       I    between atoms: C_9  and  N_10 
REMARK    4  A    between atoms: N_10  and  N_11 
REMARK    5  A    between atoms: C_12  and  C_13 
ROOT
HETATM    1  C   UNL     1      43.982 -13.132   7.706  1.00  0.00     0.271 C 
HETATM    2  N   UNL     1      43.059 -12.095   7.649  1.00  0.00    -0.243 N 
HETATM    3  O   UNL     1      44.879 -13.251   8.534  1.00  0.00    -0.266 OA
HETATM    4  H   UNL     1      42.194 -12.243   7.139  1.00  0.00     0.192 HD
ENDROOT
BRANCH   2   5
HETATM    5  N   UNL     1      43.005 -11.014   8.496  1.00  0.00    -0.183 NA
HETATM    6  C   UNL     1      41.860 -10.677   8.999  1.00  0.00     0.153 C 
BRANCH   6   7
HETATM    7  C   UNL     1      41.755  -9.530   9.887  1.00  0.00     0.018 A 
HETATM    8  C   UNL     1      42.281  -9.460  11.221  1.00  0.00     0.004 A 
HETATM    9  C   UNL     1      41.989  -8.193  11.723  1.00  0.00     0.043 A 
HETATM   10  C   UNL     1      42.981 -10.362  12.051  1.00  0.00     0.014 A 
HETATM   11  C   UNL     1      42.362  -7.780  13.008  1.00  0.00     0.030 A 
HETATM   12  N   UNL     1      41.306  -7.520  10.740  1.00  0.00    -0.358 N 
HETATM   13  C   UNL     1      43.058  -8.691  13.807  1.00  0.00     0.002 A 
HETATM   14  C   UNL     1      43.363  -9.966  13.339  1.00  0.00     0.001 A 
HETATM   15  H   UNL     1      40.965  -6.573  10.834  1.00  0.00     0.166 HD
HETATM   16  C   UNL     1      41.154  -8.304   9.624  1.00  0.00     0.018 A 
HETATM   17  C   UNL     1      40.452  -7.795   8.417  1.00  0.00     0.069 C 
ENDBRANCH   6   7
ENDBRANCH   2   5
BRANCH   1  18
HETATM   18  C   UNL     1      43.820 -14.191   6.668  1.00  0.00     0.033 A 
HETATM   19  C   UNL     1      43.447 -13.898   5.352  1.00  0.00     0.019 A 
HETATM   20  C   UNL     1      43.358 -14.922   4.399  1.00  0.00     0.030 A 
HETATM   21  C   UNL     1      43.645 -16.245   4.743  1.00  0.00     0.034 A 
HETATM   22  C   UNL     1      44.015 -16.534   6.062  1.00  0.00     0.030 A 
HETATM   23  C   UNL     1      44.110 -15.515   7.016  1.00  0.00     0.019 A 
BRANCH  21  24
HETATM   24  N   UNL     1      43.605 -17.324   3.837  1.00  0.00    -0.327 N 
HETATM   25  C   UNL     1      42.504 -17.816   3.160  1.00  0.00     0.221 C 
HETATM   26  O   UNL     1      41.346 -17.424   3.271  1.00  0.00    -0.273 OA
HETATM   27  H   UNL     1      44.494 -17.765   3.642  1.00  0.00     0.169 HD
BRANCH  25  28
HETATM   28  C   UNL     1      42.835 -18.979   2.238  1.00  0.00     0.098 C 
HETATM   29  C   UNL     1      44.038 -19.787   2.695  1.00  0.00     0.014 C 
ENDBRANCH  25  28
ENDBRANCH  21  24
ENDBRANCH   1  18
TORSDOF 5
ENDMDL
MODEL 9
REMARK VINA RESULT:      -7.7      6.396      9.151
REMARK  5 active torsions:
REMARK  status: ('A' for Active; 'I' for Inactive)
REMARK    1  A    between atoms: C_2  and  C_3 
REMARK       I    between atoms: C_3  and  N_4 
REMARK    2  A    between atoms: N_4  and  C_5 
REMARK    3  A    between atoms: C_8  and  C_9 
REMARK       I    between atoms: C_9  and  N_10 
REMARK    4  A    between atoms: N_10  and  N_11 
REMARK    5  A    between atoms: C_12  and  C_13 
ROOT
HETATM    1  C   UNL     1      39.758 -14.732   3.206  1.00  0.00     0.271 C 
HETATM    2  N   UNL     1      40.340 -15.885   2.693  1.00  0.00    -0.243 N 
HETATM    3  O   UNL     1      39.863 -14.325   4.359  1.00  0.00    -0.266 OA
HETATM    4  H   UNL     1      40.451 -15.966   1.687  1.00  0.00     0.192 HD
ENDROOT
BRANCH   2   5
HETATM    5  N   UNL     1      41.114 -16.778   3.392  1.00  0.00    -0.183 NA
HETATM    6  C   UNL     1      42.275 -17.099   2.915  1.00  0.00     0.153 C 
BRANCH   6   7
HETATM    7  C   UNL     1      43.121 -18.054   3.615  1.00  0.00     0.018 A 
HETATM    8  C   UNL     1      43.482 -19.357   3.131  1.00  0.00     0.004 A 
HETATM    9  C   UNL     1      44.313 -19.944   4.083  1.00  0.00     0.043 A 
HETATM   10  C   UNL     1      43.175 -20.093   1.966  1.00  0.00     0.014 A 
HETATM   11  C   UNL     1      44.857 -21.226   3.930  1.00  0.00     0.030 A 
HETATM   12  N   UNL     1      44.448 -19.042   5.110  1.00  0.00    -0.358 N 
HETATM   13  C   UNL     1      44.542 -21.930   2.766  1.00  0.00     0.002 A 
HETATM   14  C   UNL     1      43.710 -21.376   1.797  1.00  0.00     0.001 A 
HETATM   15  H   UNL     1      44.998 -19.207   5.941  1.00  0.00     0.166 HD
HETATM   16  C   UNL     1      43.740 -17.895   4.849  1.00  0.00     0.018 A 
HETATM   17  C   UNL     1      43.735 -16.761   5.810  1.00  0.00     0.069 C 
ENDBRANCH   6   7
ENDBRANCH   2   5
BRANCH   1  18
HETATM   18  C   UNL     1      38.965 -13.927   2.232  1.00  0.00     0.033 A 
HETATM   19  C   UNL     1      38.172 -14.519   1.243  1.00  0.00     0.019 A 
HETATM   20  C   UNL     1      37.404 -13.721   0.383  1.00  0.00     0.030 A 
HETATM   21  C   UNL     1      37.411 -12.330   0.503  1.00  0.00     0.034 A 
HETATM   22  C   UNL     1      38.208 -11.742   1.493  1.00  0.00     0.030 A 
HETATM   23  C   UNL     1      38.974 -12.533   2.356  1.00  0.00     0.019 A 
BRANCH  21  24
HETATM   24  N   UNL     1      36.647 -11.463  -0.303  1.00  0.00    -0.327 N 
HETATM   25  C   UNL     1      35.402 -10.929  -0.022  1.00  0.00     0.221 C 
HETATM   26  O   UNL     1      34.718 -11.162   0.969  1.00  0.00    -0.273 OA
HETATM   27  H   UNL     1      37.079 -11.178  -1.172  1.00  0.00     0.169 HD
BRANCH  25  28
HETATM   28  C   UNL     1      34.884 -10.004  -1.112  1.00  0.00     0.098 C 
HETATM   29  C   UNL     1      35.291  -8.553  -0.914  1.00  0.00     0.014 C 
ENDBRANCH  25  28
ENDBRANCH  21  24
ENDBRANCH   1  18
TORSDOF 5
ENDMDL
MODEL 10
REMARK VINA RESULT:      -7.7      2.359      3.161
REMARK  5 active torsions:
REMARK  status: ('A' for Active; 'I' for Inactive)
REMARK    1  A    between atoms: C_2  and  C_3 
REMARK       I    between atoms: C_3  and  N_4 
REMARK    2  A    between atoms: N_4  and  C_5 
REMARK    3  A    between atoms: C_8  and  C_9 
REMARK       I    between atoms: C_9  and  N_10 
REMARK    4  A    between atoms: N_10  and  N_11 
REMARK    5  A    between atoms: C_12  and  C_13 
ROOT
HETATM    1  C   UNL     1      41.685 -11.692   6.506  1.00  0.00     0.271 C 
HETATM    2  N   UNL     1      42.326 -12.910   6.315  1.00  0.00    -0.243 N 
HETATM    3  O   UNL     1      40.928 -11.145   5.709  1.00  0.00    -0.266 OA
HETATM    4  H   UNL     1      42.668 -13.411   7.128  1.00  0.00     0.192 HD
ENDROOT
BRANCH   2   5
HETATM    5  N   UNL     1      42.241 -13.701   5.194  1.00  0.00    -0.183 NA
HETATM    6  C   UNL     1      41.744 -14.891   5.310  1.00  0.00     0.153 C 
BRANCH   6   7
HETATM    7  C   UNL     1      41.652 -15.767   4.153  1.00  0.00     0.018 A 
HETATM    8  C   UNL     1      42.470 -16.923   3.916  1.00  0.00     0.004 A 
HETATM    9  C   UNL     1      42.054 -17.494   2.714  1.00  0.00     0.043 A 
HETATM   10  C   UNL     1      43.530 -17.537   4.616  1.00  0.00     0.014 A 
HETATM   11  C   UNL     1      42.640 -18.648   2.178  1.00  0.00     0.030 A 
HETATM   12  N   UNL     1      41.031 -16.715   2.233  1.00  0.00    -0.358 N 
HETATM   13  C   UNL     1      43.685 -19.238   2.894  1.00  0.00     0.002 A 
HETATM   14  C   UNL     1      44.128 -18.691   4.095  1.00  0.00     0.001 A 
HETATM   15  H   UNL     1      40.540 -16.896   1.368  1.00  0.00     0.166 HD
HETATM   16  C   UNL     1      40.769 -15.670   3.083  1.00  0.00     0.018 A 
HETATM   17  C   UNL     1      39.695 -14.687   2.784  1.00  0.00     0.069 C 
ENDBRANCH   6   7
ENDBRANCH   2   5
BRANCH   1  18
HETATM   18  C   UNL     1      41.939 -11.034   7.819  1.00  0.00     0.033 A 
HETATM   19  C   UNL     1      40.979 -10.239   8.455  1.00  0.00     0.019 A 
HETATM   20  C   UNL     1      41.245  -9.683   9.715  1.00  0.00     0.030 A 
HETATM   21  C   UNL     1      42.463  -9.917  10.356  1.00  0.00     0.034 A 
HETATM   22  C   UNL     1      43.422 -10.711   9.714  1.00  0.00     0.030 A 
HETATM   23  C   UNL     1      43.160 -11.272   8.459  1.00  0.00     0.019 A 
BRANCH  21  24
HETATM   24  N   UNL     1      42.795  -9.417  11.631  1.00  0.00    -0.327 N 
HETATM   25  C   UNL     1      42.945 -10.135  12.804  1.00  0.00     0.221 C 
HETATM   26  O   UNL     1      42.763 -11.340  12.948  1.00  0.00    -0.273 OA
HETATM   27  H   UNL     1      42.972  -8.423  11.680  1.00  0.00     0.169 HD
BRANCH  25  28
HETATM   28  C   UNL     1      43.336  -9.270  13.993  1.00  0.00     0.098 C 
HETATM   29  C   UNL     1      42.377  -9.390  15.166  1.00  0.00     0.014 C 
ENDBRANCH  25  28
ENDBRANCH  21  24
ENDBRANCH   1  18
TORSDOF 5
ENDMDL
