MODEL 1
REMARK VINA RESULT:      -9.3      0.000      0.000
REMARK  4 active torsions:
REMARK  status: ('A' for Active; 'I' for Inactive)
REMARK    1  A    between atoms: C_7  and  C_8 
REMARK    2  A    between atoms: C_8  and  C_9 
REMARK       I    between atoms: C_9  and  N_10 
REMARK    3  A    between atoms: N_10  and  C_11 
REMARK    4  A    between atoms: C_13  and  C_14 
ROOT
HETATM    1  C   UNL     1      42.292 -17.156   0.955  1.00  0.00     0.226 C 
HETATM    2  N   UNL     1      42.552 -15.934   0.351  1.00  0.00    -0.327 N 
HETATM    3  O   UNL     1      41.178 -17.624   1.186  1.00  0.00    -0.273 OA
HETATM    4  H   UNL     1      43.525 -15.706   0.186  1.00  0.00     0.169 HD
ENDROOT
BRANCH   1   5
HETATM    5  C   UNL     1      43.549 -17.935   1.299  1.00  0.00     0.144 C 
BRANCH   5   6
HETATM    6  C   UNL     1      43.776 -18.204   2.760  1.00  0.00    -0.015 A 
HETATM    7  C   UNL     1      43.657 -17.358   3.856  1.00  0.00     0.013 A 
HETATM    8  C   UNL     1      43.283 -15.922   3.977  1.00  0.00     0.068 C 
HETATM    9  N   UNL     1      43.927 -18.093   4.986  1.00  0.00    -0.359 N 
HETATM   10  H   UNL     1      43.898 -17.733   5.931  1.00  0.00     0.166 HD
HETATM   11  C   UNL     1      44.206 -19.398   4.667  1.00  0.00     0.043 A 
HETATM   12  C   UNL     1      44.126 -19.501   3.280  1.00  0.00     0.002 A 
HETATM   13  C   UNL     1      44.506 -20.484   5.501  1.00  0.00     0.033 A 
HETATM   14  C   UNL     1      44.363 -20.759   2.688  1.00  0.00     0.056 A 
HETATM   15  C   UNL     1      44.666 -21.845   3.510  1.00  0.00     0.117 A 
HETATM   16  C   UNL     1      44.736 -21.720   4.891  1.00  0.00     0.044 A 
HETATM   17  F   UNL     1      44.890 -23.043   2.951  1.00  0.00    -0.206 F 
ENDBRANCH   5   6
ENDBRANCH   1   5
BRANCH   2  18
HETATM   18  C   UNL     1      41.606 -14.992  -0.110  1.00  0.00     0.035 A 
HETATM   19  C   UNL     1      40.862 -15.327  -1.253  1.00  0.00     0.042 A 
HETATM   20  C   UNL     1      39.875 -14.464  -1.764  1.00  0.00    -0.021 A 
HETATM   21  C   UNL     1      39.667 -13.235  -1.126  1.00  0.00     0.012 A 
HETATM   22  C   UNL     1      40.415 -12.884  -0.003  1.00  0.00     0.003 A 
HETATM   23  C   UNL     1      41.375 -13.761   0.505  1.00  0.00     0.029 A 
BRANCH  20  24
HETATM   24  C   UNL     1      39.068 -14.828  -2.920  1.00  0.00     0.010 A 
HETATM   25  C   UNL     1      39.196 -15.901  -3.836  1.00  0.00     0.152 A 
HETATM   26  N   UNL     1      38.270 -15.878  -4.798  1.00  0.00    -0.187 NA
HETATM   27  N   UNL     1      37.548 -14.785  -4.511  1.00  0.00    -0.289 N 
HETATM   28  H   UNL     1      36.774 -14.547  -5.122  1.00  0.00     0.188 HD
HETATM   29  C   UNL     1      37.982 -14.122  -3.399  1.00  0.00     0.123 A 
ENDBRANCH  20  24
ENDBRANCH   2  18
TORSDOF 4
ENDMDL
MODEL 2
REMARK VINA RESULT:      -9.2      2.343      2.877
REMARK  4 active torsions:
REMARK  status: ('A' for Active; 'I' for Inactive)
REMARK    1  A    between atoms: C_7  and  C_8 
REMARK    2  A    between atoms: C_8  and  C_9 
REMARK       I    between atoms: C_9  and  N_10 
REMARK    3  A    between atoms: N_10  and  C_11 
REMARK    4  A    between atoms: C_13  and  C_14 
ROOT
HETATM    1  C   UNL     1      41.282 -16.094   4.047  1.00  0.00     0.226 C 
HETATM    2  N   UNL     1      40.241 -16.015   3.132  1.00  0.00    -0.327 N 
HETATM    3  O   UNL     1      42.196 -15.281   4.171  1.00  0.00    -0.273 OA
HETATM    4  H   UNL     1      39.535 -16.738   3.183  1.00  0.00     0.169 HD
ENDROOT
BRANCH   1   5
HETATM    5  C   UNL     1      41.189 -17.304   4.959  1.00  0.00     0.144 C 
BRANCH   5   6
HETATM    6  C   UNL     1      42.492 -17.966   5.307  1.00  0.00    -0.015 A 
HETATM    7  C   UNL     1      43.213 -17.957   6.496  1.00  0.00     0.013 A 
HETATM    8  C   UNL     1      42.969 -17.298   7.809  1.00  0.00     0.068 C 
HETATM    9  N   UNL     1      44.318 -18.756   6.324  1.00  0.00    -0.359 N 
HETATM   10  H   UNL     1      45.012 -18.942   7.036  1.00  0.00     0.166 HD
HETATM   11  C   UNL     1      44.338 -19.302   5.066  1.00  0.00     0.043 A 
HETATM   12  C   UNL     1      43.211 -18.823   4.400  1.00  0.00     0.002 A 
HETATM   13  C   UNL     1      45.255 -20.186   4.482  1.00  0.00     0.033 A 
HETATM   14  C   UNL     1      42.988 -19.248   3.073  1.00  0.00     0.056 A 
HETATM   15  C   UNL     1      43.899 -20.125   2.483  1.00  0.00     0.117 A 
HETATM   16  C   UNL     1      45.012 -20.592   3.168  1.00  0.00     0.044 A 
HETATM   17  F   UNL     1      43.688 -20.531   1.223  1.00  0.00    -0.206 F 
ENDBRANCH   5   6
ENDBRANCH   1   5
BRANCH   2  18
HETATM   18  C   UNL     1      40.026 -15.002   2.171  1.00  0.00     0.035 A 
HETATM   19  C   UNL     1      40.603 -15.180   0.903  1.00  0.00     0.042 A 
HETATM   20  C   UNL     1      40.415 -14.240  -0.127  1.00  0.00    -0.021 A 
HETATM   21  C   UNL     1      39.661 -13.092   0.147  1.00  0.00     0.012 A 
HETATM   22  C   UNL     1      39.101 -12.896   1.409  1.00  0.00     0.003 A 
HETATM   23  C   UNL     1      39.278 -13.850   2.413  1.00  0.00     0.029 A 
BRANCH  20  24
HETATM   24  C   UNL     1      40.971 -14.443  -1.456  1.00  0.00     0.010 A 
HETATM   25  C   UNL     1      40.768 -15.485  -2.395  1.00  0.00     0.152 A 
HETATM   26  N   UNL     1      41.493 -15.334  -3.506  1.00  0.00    -0.187 NA
HETATM   27  N   UNL     1      42.173 -14.200  -3.284  1.00  0.00    -0.289 N 
HETATM   28  H   UNL     1      42.814 -13.876  -4.001  1.00  0.00     0.188 HD
HETATM   29  C   UNL     1      41.897 -13.627  -2.075  1.00  0.00     0.123 A 
ENDBRANCH  20  24
ENDBRANCH   2  18
TORSDOF 4
ENDMDL
MODEL 3
REMARK VINA RESULT:      -9.2      2.268      2.902
REMARK  4 active torsions:
REMARK  status: ('A' for Active; 'I' for Inactive)
REMARK    1  A    between atoms: C_7  and  C_8 
REMARK    2  A    between atoms: C_8  and  C_9 
REMARK       I    between atoms: C_9  and  N_10 
REMARK    3  A    between atoms: N_10  and  C_11 
REMARK    4  A    between atoms: C_13  and  C_14 
ROOT
HETATM    1  C   UNL     1      42.475 -15.756   3.608  1.00  0.00     0.226 C 
HETATM    2  N   UNL     1      41.288 -16.169   3.018  1.00  0.00    -0.327 N 
HETATM    3  O   UNL     1      43.046 -14.686   3.406  1.00  0.00    -0.273 OA
HETATM    4  H   UNL     1      40.915 -17.059   3.322  1.00  0.00     0.169 HD
ENDROOT
BRANCH   1   5
HETATM    5  C   UNL     1      43.031 -16.759   4.603  1.00  0.00     0.144 C 
BRANCH   5   6
HETATM    6  C   UNL     1      43.605 -18.017   4.017  1.00  0.00    -0.015 A 
HETATM    7  C   UNL     1      44.081 -18.274   2.736  1.00  0.00     0.013 A 
HETATM    8  C   UNL     1      44.182 -17.425   1.516  1.00  0.00     0.068 C 
HETATM    9  N   UNL     1      44.547 -19.567   2.711  1.00  0.00    -0.359 N 
HETATM   10  H   UNL     1      44.965 -20.015   1.907  1.00  0.00     0.166 HD
HETATM   11  C   UNL     1      44.405 -20.163   3.939  1.00  0.00     0.043 A 
HETATM   12  C   UNL     1      43.813 -19.222   4.778  1.00  0.00     0.002 A 
HETATM   13  C   UNL     1      44.767 -21.449   4.363  1.00  0.00     0.033 A 
HETATM   14  C   UNL     1      43.563 -19.585   6.119  1.00  0.00     0.056 A 
HETATM   15  C   UNL     1      43.918 -20.864   6.549  1.00  0.00     0.117 A 
HETATM   16  C   UNL     1      44.511 -21.784   5.694  1.00  0.00     0.044 A 
HETATM   17  F   UNL     1      43.684 -21.211   7.822  1.00  0.00    -0.206 F 
ENDBRANCH   5   6
ENDBRANCH   1   5
BRANCH   2  18
HETATM   18  C   UNL     1      40.511 -15.457   2.077  1.00  0.00     0.035 A 
HETATM   19  C   UNL     1      41.036 -15.309   0.783  1.00  0.00     0.042 A 
HETATM   20  C   UNL     1      40.318 -14.644  -0.227  1.00  0.00    -0.021 A 
HETATM   21  C   UNL     1      39.069 -14.095   0.091  1.00  0.00     0.012 A 
HETATM   22  C   UNL     1      38.549 -14.219   1.379  1.00  0.00     0.003 A 
HETATM   23  C   UNL     1      39.264 -14.901   2.364  1.00  0.00     0.029 A 
BRANCH  20  24
HETATM   24  C   UNL     1      40.836 -14.529  -1.582  1.00  0.00     0.010 A 
HETATM   25  C   UNL     1      40.416 -15.143  -2.789  1.00  0.00     0.152 A 
HETATM   26  N   UNL     1      41.176 -14.809  -3.835  1.00  0.00    -0.187 NA
HETATM   27  N   UNL     1      42.093 -13.988  -3.306  1.00  0.00    -0.289 N 
HETATM   28  H   UNL     1      42.805 -13.604  -3.919  1.00  0.00     0.188 HD
HETATM   29  C   UNL     1      41.936 -13.786  -1.964  1.00  0.00     0.123 A 
ENDBRANCH  20  24
ENDBRANCH   2  18
TORSDOF 4
ENDMDL
MODEL 4
REMARK VINA RESULT:      -9.0      2.515      3.516
REMARK  4 active torsions:
REMARK  status: ('A' for Active; 'I' for Inactive)
REMARK    1  A    between atoms: C_7  and  C_8 
REMARK    2  A    between atoms: C_8  and  C_9 
REMARK       I    between atoms: C_9  and  N_10 
REMARK    3  A    between atoms: N_10  and  C_11 
REMARK    4  A    between atoms: C_13  and  C_14 
ROOT
HETATM    1  C   UNL     1      41.973 -16.731   0.882  1.00  0.00     0.226 C 
HETATM    2  N   UNL     1      40.998 -16.010   0.208  1.00  0.00    -0.327 N 
HETATM    3  O   UNL     1      43.159 -16.808   0.568  1.00  0.00    -0.273 OA
HETATM    4  H   UNL     1      40.071 -16.005   0.616  1.00  0.00     0.169 HD
ENDROOT
BRANCH   1   5
HETATM    5  C   UNL     1      41.450 -17.431   2.124  1.00  0.00     0.144 C 
BRANCH   5   6
HETATM    6  C   UNL     1      42.493 -17.941   3.079  1.00  0.00    -0.015 A 
HETATM    7  C   UNL     1      42.946 -17.409   4.280  1.00  0.00     0.013 A 
HETATM    8  C   UNL     1      42.584 -16.173   5.028  1.00  0.00     0.068 C 
HETATM    9  N   UNL     1      43.876 -18.277   4.801  1.00  0.00    -0.359 N 
HETATM   10  H   UNL     1      44.359 -18.147   5.680  1.00  0.00     0.166 HD
HETATM   11  C   UNL     1      44.036 -19.370   3.987  1.00  0.00     0.043 A 
HETATM   12  C   UNL     1      43.189 -19.189   2.896  1.00  0.00     0.002 A 
HETATM   13  C   UNL     1      44.851 -20.499   4.146  1.00  0.00     0.033 A 
HETATM   14  C   UNL     1      43.155 -20.190   1.903  1.00  0.00     0.056 A 
HETATM   15  C   UNL     1      43.966 -21.315   2.051  1.00  0.00     0.117 A 
HETATM   16  C   UNL     1      44.800 -21.476   3.149  1.00  0.00     0.044 A 
HETATM   17  F   UNL     1      43.935 -22.269   1.109  1.00  0.00    -0.206 F 
ENDBRANCH   5   6
ENDBRANCH   1   5
BRANCH   2  18
HETATM   18  C   UNL     1      41.166 -15.233  -0.960  1.00  0.00     0.035 A 
HETATM   19  C   UNL     1      41.658 -13.927  -0.804  1.00  0.00     0.042 A 
HETATM   20  C   UNL     1      41.889 -13.093  -1.913  1.00  0.00    -0.021 A 
HETATM   21  C   UNL     1      41.583 -13.580  -3.190  1.00  0.00     0.012 A 
HETATM   22  C   UNL     1      41.075 -14.868  -3.354  1.00  0.00     0.003 A 
HETATM   23  C   UNL     1      40.873 -15.691  -2.245  1.00  0.00     0.029 A 
BRANCH  20  24
HETATM   24  C   UNL     1      42.443 -11.756  -1.761  1.00  0.00     0.010 A 
HETATM   25  C   UNL     1      42.779 -11.021  -0.597  1.00  0.00     0.152 A 
HETATM   26  N   UNL     1      43.236  -9.796  -0.867  1.00  0.00    -0.187 NA
HETATM   27  N   UNL     1      43.187  -9.732  -2.205  1.00  0.00    -0.289 N 
HETATM   28  H   UNL     1      43.482  -8.873  -2.656  1.00  0.00     0.188 HD
HETATM   29  C   UNL     1      42.722 -10.877  -2.788  1.00  0.00     0.123 A 
ENDBRANCH  20  24
ENDBRANCH   2  18
TORSDOF 4
ENDMDL
MODEL 5
REMARK VINA RESULT:      -8.8      2.919      4.449
REMARK  4 active torsions:
REMARK  status: ('A' for Active; 'I' for Inactive)
REMARK    1  A    between atoms: C_7  and  C_8 
REMARK    2  A    between atoms: C_8  and  C_9 
REMARK       I    between atoms: C_9  and  N_10 
REMARK    3  A    between atoms: N_10  and  C_11 
REMARK    4  A    between atoms: C_13  and  C_14 
ROOT
HETATM    1  C   UNL     1      42.272 -17.158   1.035  1.00  0.00     0.226 C 
HETATM    2  N   UNL     1      41.230 -16.629   0.286  1.00  0.00    -0.327 N 
HETATM    3  O   UNL     1      43.453 -16.822   0.966  1.00  0.00    -0.273 OA
HETATM    4  H   UNL     1      40.301 -16.976   0.490  1.00  0.00     0.169 HD
ENDROOT
BRANCH   1   5
HETATM    5  C   UNL     1      41.821 -18.214   2.028  1.00  0.00     0.144 C 
BRANCH   5   6
HETATM    6  C   UNL     1      42.886 -18.758   2.939  1.00  0.00    -0.015 A 
HETATM    7  C   UNL     1      43.676 -19.895   2.816  1.00  0.00     0.013 A 
HETATM    8  C   UNL     1      43.743 -20.960   1.776  1.00  0.00     0.068 C 
HETATM    9  N   UNL     1      44.535 -19.929   3.888  1.00  0.00    -0.359 N 
HETATM   10  H   UNL     1      45.235 -20.642   4.046  1.00  0.00     0.166 HD
HETATM   11  C   UNL     1      44.344 -18.842   4.704  1.00  0.00     0.043 A 
HETATM   12  C   UNL     1      43.315 -18.091   4.141  1.00  0.00     0.002 A 
HETATM   13  C   UNL     1      45.013 -18.469   5.878  1.00  0.00     0.033 A 
HETATM   14  C   UNL     1      42.925 -16.900   4.789  1.00  0.00     0.056 A 
HETATM   15  C   UNL     1      43.583 -16.523   5.961  1.00  0.00     0.117 A 
HETATM   16  C   UNL     1      44.610 -17.286   6.500  1.00  0.00     0.044 A 
HETATM   17  F   UNL     1      43.216 -15.391   6.577  1.00  0.00    -0.206 F 
ENDBRANCH   5   6
ENDBRANCH   1   5
BRANCH   2  18
HETATM   18  C   UNL     1      41.314 -15.617  -0.696  1.00  0.00     0.035 A 
HETATM   19  C   UNL     1      41.725 -14.341  -0.278  1.00  0.00     0.042 A 
HETATM   20  C   UNL     1      41.868 -13.282  -1.193  1.00  0.00    -0.021 A 
HETATM   21  C   UNL     1      41.558 -13.514  -2.539  1.00  0.00     0.012 A 
HETATM   22  C   UNL     1      41.130 -14.773  -2.960  1.00  0.00     0.003 A 
HETATM   23  C   UNL     1      41.015 -15.819  -2.044  1.00  0.00     0.029 A 
BRANCH  20  24
HETATM   24  C   UNL     1      42.339 -11.970  -0.773  1.00  0.00     0.010 A 
HETATM   25  C   UNL     1      43.263 -11.082  -1.377  1.00  0.00     0.152 A 
HETATM   26  N   UNL     1      43.464  -9.972  -0.662  1.00  0.00    -0.187 NA
HETATM   27  N   UNL     1      42.679 -10.146   0.410  1.00  0.00    -0.289 N 
HETATM   28  H   UNL     1      42.670  -9.421   1.121  1.00  0.00     0.188 HD
HETATM   29  C   UNL     1      41.985 -11.322   0.393  1.00  0.00     0.123 A 
ENDBRANCH  20  24
ENDBRANCH   2  18
TORSDOF 4
ENDMDL
MODEL 6
REMARK VINA RESULT:      -8.5      3.692      9.042
REMARK  4 active torsions:
REMARK  status: ('A' for Active; 'I' for Inactive)
REMARK    1  A    between atoms: C_7  and  C_8 
REMARK    2  A    between atoms: C_8  and  C_9 
REMARK       I    between atoms: C_9  and  N_10 
REMARK    3  A    between atoms: N_10  and  C_11 
REMARK    4  A    between atoms: C_13  and  C_14 
ROOT
HETATM    1  C   UNL     1      41.929 -15.540   3.983  1.00  0.00     0.226 C 
HETATM    2  N   UNL     1      43.221 -16.049   3.998  1.00  0.00    -0.327 N 
HETATM    3  O   UNL     1      40.979 -15.965   4.637  1.00  0.00    -0.273 OA
HETATM    4  H   UNL     1      43.908 -15.560   3.438  1.00  0.00     0.169 HD
ENDROOT
BRANCH   1   5
HETATM    5  C   UNL     1      41.771 -14.332   3.077  1.00  0.00     0.144 C 
BRANCH   5   6
HETATM    6  C   UNL     1      40.926 -14.535   1.851  1.00  0.00    -0.015 A 
HETATM    7  C   UNL     1      41.040 -15.472   0.830  1.00  0.00     0.013 A 
HETATM    8  C   UNL     1      42.015 -16.570   0.582  1.00  0.00     0.068 C 
HETATM    9  N   UNL     1      39.993 -15.275  -0.040  1.00  0.00    -0.359 N 
HETATM   10  H   UNL     1      39.819 -15.828  -0.868  1.00  0.00     0.166 HD
HETATM   11  C   UNL     1      39.188 -14.249   0.386  1.00  0.00     0.043 A 
HETATM   12  C   UNL     1      39.747 -13.760   1.564  1.00  0.00     0.002 A 
HETATM   13  C   UNL     1      38.011 -13.736  -0.175  1.00  0.00     0.033 A 
HETATM   14  C   UNL     1      39.097 -12.693   2.220  1.00  0.00     0.056 A 
HETATM   15  C   UNL     1      37.926 -12.173   1.666  1.00  0.00     0.117 A 
HETATM   16  C   UNL     1      37.386 -12.681   0.493  1.00  0.00     0.044 A 
HETATM   17  F   UNL     1      37.305 -11.161   2.288  1.00  0.00    -0.206 F 
ENDBRANCH   5   6
ENDBRANCH   1   5
BRANCH   2  18
HETATM   18  C   UNL     1      43.697 -17.144   4.752  1.00  0.00     0.035 A 
HETATM   19  C   UNL     1      43.816 -18.379   4.097  1.00  0.00     0.042 A 
HETATM   20  C   UNL     1      44.312 -19.517   4.760  1.00  0.00    -0.021 A 
HETATM   21  C   UNL     1      44.659 -19.403   6.112  1.00  0.00     0.012 A 
HETATM   22  C   UNL     1      44.526 -18.184   6.777  1.00  0.00     0.003 A 
HETATM   23  C   UNL     1      44.053 -17.060   6.099  1.00  0.00     0.029 A 
BRANCH  20  24
HETATM   24  C   UNL     1      44.481 -20.788   4.073  1.00  0.00     0.010 A 
HETATM   25  C   UNL     1      44.375 -21.118   2.699  1.00  0.00     0.152 A 
HETATM   26  N   UNL     1      44.569 -22.417   2.458  1.00  0.00    -0.187 NA
HETATM   27  N   UNL     1      44.791 -22.931   3.676  1.00  0.00    -0.289 N 
HETATM   28  H   UNL     1      44.958 -23.929   3.753  1.00  0.00     0.188 HD
HETATM   29  C   UNL     1      44.750 -22.001   4.676  1.00  0.00     0.123 A 
ENDBRANCH  20  24
ENDBRANCH   2  18
TORSDOF 4
ENDMDL
MODEL 7
REMARK VINA RESULT:      -8.5      3.557      8.790
REMARK  4 active torsions:
REMARK  status: ('A' for Active; 'I' for Inactive)
REMARK    1  A    between atoms: C_7  and  C_8 
REMARK    2  A    between atoms: C_8  and  C_9 
REMARK       I    between atoms: C_9  and  N_10 
REMARK    3  A    between atoms: N_10  and  C_11 
REMARK    4  A    between atoms: C_13  and  C_14 
ROOT
HETATM    1  C   UNL     1      42.813 -14.110   3.235  1.00  0.00     0.226 C 
HETATM    2  N   UNL     1      42.349 -15.187   3.978  1.00  0.00    -0.327 N 
HETATM    3  O   UNL     1      43.978 -13.723   3.176  1.00  0.00    -0.273 OA
HETATM    4  H   UNL     1      41.367 -15.413   3.888  1.00  0.00     0.169 HD
ENDROOT
BRANCH   1   5
HETATM    5  C   UNL     1      41.725 -13.427   2.425  1.00  0.00     0.144 C 
BRANCH   5   6
HETATM    6  C   UNL     1      41.337 -14.106   1.142  1.00  0.00    -0.015 A 
HETATM    7  C   UNL     1      40.586 -15.255   0.927  1.00  0.00     0.013 A 
HETATM    8  C   UNL     1      39.924 -16.209   1.861  1.00  0.00     0.068 C 
HETATM    9  N   UNL     1      40.471 -15.436  -0.431  1.00  0.00    -0.359 N 
HETATM   10  H   UNL     1      39.961 -16.189  -0.873  1.00  0.00     0.166 HD
HETATM   11  C   UNL     1      41.110 -14.432  -1.114  1.00  0.00     0.043 A 
HETATM   12  C   UNL     1      41.668 -13.585  -0.160  1.00  0.00     0.002 A 
HETATM   13  C   UNL     1      41.220 -14.211  -2.494  1.00  0.00     0.033 A 
HETATM   14  C   UNL     1      42.381 -12.452  -0.606  1.00  0.00     0.056 A 
HETATM   15  C   UNL     1      42.499 -12.226  -1.978  1.00  0.00     0.117 A 
HETATM   16  C   UNL     1      41.930 -13.083  -2.911  1.00  0.00     0.044 A 
HETATM   17  F   UNL     1      43.174 -11.150  -2.404  1.00  0.00    -0.206 F 
ENDBRANCH   5   6
ENDBRANCH   1   5
BRANCH   2  18
HETATM   18  C   UNL     1      43.109 -16.039   4.809  1.00  0.00     0.035 A 
HETATM   19  C   UNL     1      43.317 -17.357   4.369  1.00  0.00     0.042 A 
HETATM   20  C   UNL     1      44.089 -18.266   5.115  1.00  0.00    -0.021 A 
HETATM   21  C   UNL     1      44.625 -17.841   6.337  1.00  0.00     0.012 A 
HETATM   22  C   UNL     1      44.407 -16.541   6.793  1.00  0.00     0.003 A 
HETATM   23  C   UNL     1      43.658 -15.645   6.029  1.00  0.00     0.029 A 
BRANCH  20  24
HETATM   24  C   UNL     1      44.346 -19.617   4.641  1.00  0.00     0.010 A 
HETATM   25  C   UNL     1      44.637 -20.808   5.352  1.00  0.00     0.152 A 
HETATM   26  N   UNL     1      44.849 -21.855   4.551  1.00  0.00    -0.187 NA
HETATM   27  N   UNL     1      44.706 -21.342   3.321  1.00  0.00    -0.289 N 
HETATM   28  H   UNL     1      44.834 -21.959   2.525  1.00  0.00     0.188 HD
HETATM   29  C   UNL     1      44.404 -20.010   3.318  1.00  0.00     0.123 A 
ENDBRANCH  20  24
ENDBRANCH   2  18
TORSDOF 4
ENDMDL
MODEL 8
REMARK VINA RESULT:      -8.5      3.436      5.244
REMARK  4 active torsions:
REMARK  status: ('A' for Active; 'I' for Inactive)
REMARK    1  A    between atoms: C_7  and  C_8 
REMARK    2  A    between atoms: C_8  and  C_9 
REMARK       I    between atoms: C_9  and  N_10 
REMARK    3  A    between atoms: N_10  and  C_11 
REMARK    4  A    between atoms: C_13  and  C_14 
ROOT
HETATM    1  C   UNL     1      42.693 -17.453   1.600  1.00  0.00     0.226 C 
HETATM    2  N   UNL     1      42.931 -16.091   1.720  1.00  0.00    -0.327 N 
HETATM    3  O   UNL     1      41.594 -17.981   1.439  1.00  0.00    -0.273 OA
HETATM    4  H   UNL     1      43.899 -15.804   1.802  1.00  0.00     0.169 HD
ENDROOT
BRANCH   1   5
HETATM    5  C   UNL     1      43.958 -18.291   1.649  1.00  0.00     0.144 C 
BRANCH   5   6
HETATM    6  C   UNL     1      44.090 -19.215   2.826  1.00  0.00    -0.015 A 
HETATM    7  C   UNL     1      44.337 -20.582   2.869  1.00  0.00     0.013 A 
HETATM    8  C   UNL     1      44.542 -21.597   1.798  1.00  0.00     0.068 C 
HETATM    9  N   UNL     1      44.414 -20.955   4.190  1.00  0.00    -0.359 N 
HETATM   10  H   UNL     1      44.601 -21.894   4.516  1.00  0.00     0.166 HD
HETATM   11  C   UNL     1      44.240 -19.873   5.016  1.00  0.00     0.043 A 
HETATM   12  C   UNL     1      44.029 -18.768   4.194  1.00  0.00     0.002 A 
HETATM   13  C   UNL     1      44.269 -19.794   6.415  1.00  0.00     0.033 A 
HETATM   14  C   UNL     1      43.830 -17.510   4.802  1.00  0.00     0.056 A 
HETATM   15  C   UNL     1      43.853 -17.423   6.194  1.00  0.00     0.117 A 
HETATM   16  C   UNL     1      44.070 -18.538   6.993  1.00  0.00     0.044 A 
HETATM   17  F   UNL     1      43.667 -16.229   6.775  1.00  0.00    -0.206 F 
ENDBRANCH   5   6
ENDBRANCH   1   5
BRANCH   2  18
HETATM   18  C   UNL     1      41.975 -15.052   1.687  1.00  0.00     0.035 A 
HETATM   19  C   UNL     1      41.367 -14.692   2.901  1.00  0.00     0.042 A 
HETATM   20  C   UNL     1      40.428 -13.647   2.968  1.00  0.00    -0.021 A 
HETATM   21  C   UNL     1      40.079 -12.984   1.785  1.00  0.00     0.012 A 
HETATM   22  C   UNL     1      40.663 -13.348   0.572  1.00  0.00     0.003 A 
HETATM   23  C   UNL     1      41.609 -14.372   0.525  1.00  0.00     0.029 A 
BRANCH  20  24
HETATM   24  C   UNL     1      39.830 -13.239   4.231  1.00  0.00     0.010 A 
HETATM   25  C   UNL     1      39.213 -12.022   4.612  1.00  0.00     0.152 A 
HETATM   26  N   UNL     1      38.812 -12.016   5.886  1.00  0.00    -0.187 NA
HETATM   27  N   UNL     1      39.178 -13.225   6.334  1.00  0.00    -0.289 N 
HETATM   28  H   UNL     1      38.985 -13.458   7.302  1.00  0.00     0.188 HD
HETATM   29  C   UNL     1      39.789 -13.996   5.385  1.00  0.00     0.123 A 
ENDBRANCH  20  24
ENDBRANCH   2  18
TORSDOF 4
ENDMDL
MODEL 9
REMARK VINA RESULT:      -8.3      2.332      3.199
REMARK  4 active torsions:
REMARK  status: ('A' for Active; 'I' for Inactive)
REMARK    1  A    between atoms: C_7  and  C_8 
REMARK    2  A    between atoms: C_8  and  C_9 
REMARK       I    between atoms: C_9  and  N_10 
REMARK    3  A    between atoms: N_10  and  C_11 
REMARK    4  A    between atoms: C_13  and  C_14 
ROOT
HETATM    1  C   UNL     1      42.183 -17.588   1.391  1.00  0.00     0.226 C 
HETATM    2  N   UNL     1      42.049 -16.213   1.253  1.00  0.00    -0.327 N 
HETATM    3  O   UNL     1      41.269 -18.409   1.349  1.00  0.00    -0.273 OA
HETATM    4  H   UNL     1      42.903 -15.669   1.263  1.00  0.00     0.169 HD
ENDROOT
BRANCH   1   5
HETATM    5  C   UNL     1      43.623 -18.035   1.573  1.00  0.00     0.144 C 
BRANCH   5   6
HETATM    6  C   UNL     1      43.895 -18.904   2.768  1.00  0.00    -0.015 A 
HETATM    7  C   UNL     1      44.177 -20.263   2.842  1.00  0.00     0.013 A 
HETATM    8  C   UNL     1      44.295 -21.320   1.799  1.00  0.00     0.068 C 
HETATM    9  N   UNL     1      44.397 -20.576   4.162  1.00  0.00    -0.359 N 
HETATM   10  H   UNL     1      44.639 -21.496   4.506  1.00  0.00     0.166 HD
HETATM   11  C   UNL     1      44.284 -19.462   4.955  1.00  0.00     0.043 A 
HETATM   12  C   UNL     1      43.964 -18.399   4.115  1.00  0.00     0.002 A 
HETATM   13  C   UNL     1      44.453 -19.322   6.340  1.00  0.00     0.033 A 
HETATM   14  C   UNL     1      43.800 -17.120   4.687  1.00  0.00     0.056 A 
HETATM   15  C   UNL     1      43.963 -16.971   6.065  1.00  0.00     0.117 A 
HETATM   16  C   UNL     1      44.286 -18.046   6.882  1.00  0.00     0.044 A 
HETATM   17  F   UNL     1      43.810 -15.757   6.611  1.00  0.00    -0.206 F 
ENDBRANCH   5   6
ENDBRANCH   1   5
BRANCH   2  18
HETATM   18  C   UNL     1      40.854 -15.490   1.044  1.00  0.00     0.035 A 
HETATM   19  C   UNL     1      40.710 -14.816  -0.180  1.00  0.00     0.042 A 
HETATM   20  C   UNL     1      39.540 -14.097  -0.488  1.00  0.00    -0.021 A 
HETATM   21  C   UNL     1      38.522 -14.036   0.471  1.00  0.00     0.012 A 
HETATM   22  C   UNL     1      38.664 -14.684   1.698  1.00  0.00     0.003 A 
HETATM   23  C   UNL     1      39.822 -15.412   1.979  1.00  0.00     0.029 A 
BRANCH  20  24
HETATM   24  C   UNL     1      39.367 -13.437  -1.773  1.00  0.00     0.010 A 
HETATM   25  C   UNL     1      39.145 -12.074  -2.090  1.00  0.00     0.152 A 
HETATM   26  N   UNL     1      39.000 -11.860  -3.400  1.00  0.00    -0.187 NA
HETATM   27  N   UNL     1      39.118 -13.085  -3.932  1.00  0.00    -0.289 N 
HETATM   28  H   UNL     1      39.030 -13.182  -4.938  1.00  0.00     0.188 HD
HETATM   29  C   UNL     1      39.338 -14.063  -3.004  1.00  0.00     0.123 A 
ENDBRANCH  20  24
ENDBRANCH   2  18
TORSDOF 4
ENDMDL
MODEL 10
REMARK VINA RESULT:      -8.3      3.346      9.027
REMARK  4 active torsions:
REMARK  status: ('A' for Active; 'I' for Inactive)
REMARK    1  A    between atoms: C_7  and  C_8 
REMARK    2  A    between atoms: C_8  and  C_9 
REMARK       I    between atoms: C_9  and  N_10 
REMARK    3  A    between atoms: N_10  and  C_11 
REMARK    4  A    between atoms: C_13  and  C_14 
ROOT
HETATM    1  C   UNL     1      40.984 -16.756   1.592  1.00  0.00     0.226 C 
HETATM    2  N   UNL     1      41.960 -16.680   2.577  1.00  0.00    -0.327 N 
HETATM    3  O   UNL     1      40.688 -17.759   0.947  1.00  0.00    -0.273 OA
HETATM    4  H   UNL     1      42.056 -15.793   3.054  1.00  0.00     0.169 HD
ENDROOT
BRANCH   1   5
HETATM    5  C   UNL     1      40.244 -15.447   1.379  1.00  0.00     0.144 C 
BRANCH   5   6
HETATM    6  C   UNL     1      40.987 -14.388   0.616  1.00  0.00    -0.015 A 
HETATM    7  C   UNL     1      41.798 -13.356   1.073  1.00  0.00     0.013 A 
HETATM    8  C   UNL     1      42.202 -12.931   2.442  1.00  0.00     0.068 C 
HETATM    9  N   UNL     1      42.285 -12.686  -0.024  1.00  0.00    -0.359 N 
HETATM   10  H   UNL     1      42.916 -11.897   0.014  1.00  0.00     0.166 HD
HETATM   11  C   UNL     1      41.832 -13.255  -1.188  1.00  0.00     0.043 A 
HETATM   12  C   UNL     1      41.012 -14.320  -0.823  1.00  0.00     0.002 A 
HETATM   13  C   UNL     1      42.099 -12.914  -2.521  1.00  0.00     0.033 A 
HETATM   14  C   UNL     1      40.419 -15.089  -1.847  1.00  0.00     0.056 A 
HETATM   15  C   UNL     1      40.677 -14.754  -3.177  1.00  0.00     0.117 A 
HETATM   16  C   UNL     1      41.502 -13.691  -3.516  1.00  0.00     0.044 A 
HETATM   17  F   UNL     1      40.116 -15.484  -4.152  1.00  0.00    -0.206 F 
ENDBRANCH   5   6
ENDBRANCH   1   5
BRANCH   2  18
HETATM   18  C   UNL     1      42.799 -17.723   3.027  1.00  0.00     0.035 A 
HETATM   19  C   UNL     1      42.949 -17.880   4.415  1.00  0.00     0.042 A 
HETATM   20  C   UNL     1      43.739 -18.912   4.954  1.00  0.00    -0.021 A 
HETATM   21  C   UNL     1      44.409 -19.770   4.074  1.00  0.00     0.012 A 
HETATM   22  C   UNL     1      44.282 -19.610   2.694  1.00  0.00     0.003 A 
HETATM   23  C   UNL     1      43.477 -18.595   2.175  1.00  0.00     0.029 A 
BRANCH  20  24
HETATM   24  C   UNL     1      43.861 -19.108   6.391  1.00  0.00     0.010 A 
HETATM   25  C   UNL     1      44.290 -18.225   7.413  1.00  0.00     0.152 A 
HETATM   26  N   UNL     1      44.296 -18.790   8.622  1.00  0.00    -0.187 NA
HETATM   27  N   UNL     1      43.881 -20.041   8.385  1.00  0.00    -0.289 N 
HETATM   28  H   UNL     1      43.813 -20.682   9.169  1.00  0.00     0.188 HD
HETATM   29  C   UNL     1      43.607 -20.284   7.068  1.00  0.00     0.123 A 
ENDBRANCH  20  24
ENDBRANCH   2  18
TORSDOF 4
ENDMDL
