MODEL 1
REMARK VINA RESULT:      -8.0      0.000      0.000
REMARK  6 active torsions:
REMARK  status: ('A' for Active; 'I' for Inactive)
REMARK    1  A    between atoms: C_2  and  N_3 
REMARK    2  A    between atoms: C_2  and  C_16 
REMARK    3  A    between atoms: N_3  and  C_6 
REMARK    4  A    between atoms: C_16  and  C_17 
REMARK       I    between atoms: C_17  and  N_18 
REMARK    5  A    between atoms: N_18  and  C_19 
REMARK    6  A    between atoms: C_22  and  O_23 
ROOT
HETATM    1  C   UNL     1      42.842 -13.993   4.105  1.00  0.00     0.040 C 
HETATM    2  C   UNL     1      42.326 -15.013   3.096  1.00  0.00     0.191 C 
ENDROOT
BRANCH   2   3
HETATM    3  N   UNL     1      43.120 -16.294   3.217  1.00  0.00    -0.063 N 
HETATM    4  H   UNL     1      43.473 -16.482   2.251  1.00  0.00     0.278 HD
HETATM    5  H   UNL     1      43.959 -16.137   3.786  1.00  0.00     0.278 HD
BRANCH   3   6
HETATM    6  C   UNL     1      42.418 -17.552   3.661  1.00  0.00     0.221 C 
HETATM    7  C   UNL     1      43.196 -18.801   3.348  1.00  0.00    -0.011 A 
HETATM    8  C   UNL     1      44.186 -19.284   4.215  1.00  0.00     0.009 A 
HETATM    9  C   UNL     1      42.932 -19.499   2.151  1.00  0.00     0.011 A 
HETATM   10  C   UNL     1      44.903 -20.437   3.866  1.00  0.00     0.019 A 
HETATM   11  S   UNL     1      44.612 -18.531   5.774  1.00  0.00    -0.129 SA
HETATM   12  C   UNL     1      44.640 -21.113   2.675  1.00  0.00     0.001 A 
HETATM   13  C   UNL     1      43.652 -20.646   1.818  1.00  0.00     0.001 A 
HETATM   14  C   UNL     1      43.308 -17.299   6.044  1.00  0.00     0.082 C 
HETATM   15  C   UNL     1      42.089 -17.455   5.154  1.00  0.00     0.048 C 
ENDBRANCH   3   6
ENDBRANCH   2   3
BRANCH   2  16
HETATM   16  C   UNL     1      42.450 -14.444   1.670  1.00  0.00     0.135 C 
BRANCH  16  17
HETATM   17  C   UNL     1      41.397 -15.027   0.749  1.00  0.00     0.224 C 
HETATM   18  N   UNL     1      41.393 -14.452  -0.500  1.00  0.00    -0.327 N 
HETATM   19  H   UNL     1      42.093 -13.747  -0.703  1.00  0.00     0.169 HD
HETATM   20  O   UNL     1      40.718 -15.971   1.148  1.00  0.00    -0.273 OA
BRANCH  18  21
HETATM   21  C   UNL     1      40.510 -14.727  -1.568  1.00  0.00     0.034 A 
HETATM   22  C   UNL     1      40.786 -15.622  -2.603  1.00  0.00     0.032 A 
HETATM   23  C   UNL     1      39.835 -15.865  -3.605  1.00  0.00     0.039 A 
HETATM   24  C   UNL     1      38.601 -15.218  -3.574  1.00  0.00     0.068 A 
HETATM   25  C   UNL     1      38.336 -14.299  -2.564  1.00  0.00     0.039 A 
HETATM   26  C   UNL     1      39.279 -14.062  -1.559  1.00  0.00     0.032 A 
BRANCH  24  27
HETATM   27  O   UNL     1      37.612 -15.378  -4.501  1.00  0.00    -0.356 OA
HETATM   28  C   UNL     1      36.536 -14.450  -4.392  1.00  0.00     0.210 C 
ENDBRANCH  24  27
ENDBRANCH  18  21
ENDBRANCH  16  17
ENDBRANCH   2  16
TORSDOF 6
ENDMDL
MODEL 2
REMARK VINA RESULT:      -7.8      2.155      3.013
REMARK  6 active torsions:
REMARK  status: ('A' for Active; 'I' for Inactive)
REMARK    1  A    between atoms: C_2  and  N_3 
REMARK    2  A    between atoms: C_2  and  C_16 
REMARK    3  A    between atoms: N_3  and  C_6 
REMARK    4  A    between atoms: C_16  and  C_17 
REMARK       I    between atoms: C_17  and  N_18 
REMARK    5  A    between atoms: N_18  and  C_19 
REMARK    6  A    between atoms: C_22  and  O_23 
ROOT
HETATM    1  C   UNL     1      44.363 -13.992   6.926  1.00  0.00     0.040 C 
HETATM    2  C   UNL     1      43.198 -14.526   6.100  1.00  0.00     0.191 C 
ENDROOT
BRANCH   2   3
HETATM    3  N   UNL     1      43.636 -15.757   5.339  1.00  0.00    -0.063 N 
HETATM    4  H   UNL     1      43.795 -15.424   4.361  1.00  0.00     0.278 HD
HETATM    5  H   UNL     1      44.554 -16.069   5.672  1.00  0.00     0.278 HD
BRANCH   3   6
HETATM    6  C   UNL     1      42.693 -16.929   5.237  1.00  0.00     0.221 C 
HETATM    7  C   UNL     1      43.363 -18.181   4.739  1.00  0.00    -0.011 A 
HETATM    8  C   UNL     1      44.033 -19.049   5.613  1.00  0.00     0.009 A 
HETATM    9  C   UNL     1      43.328 -18.485   3.363  1.00  0.00     0.011 A 
HETATM   10  C   UNL     1      44.666 -20.189   5.097  1.00  0.00     0.019 A 
HETATM   11  S   UNL     1      44.139 -18.817   7.377  1.00  0.00    -0.129 SA
HETATM   12  C   UNL     1      44.632 -20.475   3.732  1.00  0.00     0.001 A 
HETATM   13  C   UNL     1      43.961 -19.623   2.865  1.00  0.00     0.001 A 
HETATM   14  C   UNL     1      42.972 -17.470   7.719  1.00  0.00     0.082 C 
HETATM   15  C   UNL     1      42.011 -17.156   6.588  1.00  0.00     0.048 C 
ENDBRANCH   3   6
ENDBRANCH   2   3
BRANCH   2  16
HETATM   16  C   UNL     1      42.714 -13.441   5.120  1.00  0.00     0.135 C 
BRANCH  16  17
HETATM   17  C   UNL     1      42.926 -13.862   3.679  1.00  0.00     0.224 C 
HETATM   18  N   UNL     1      41.753 -14.157   3.024  1.00  0.00    -0.327 N 
HETATM   19  H   UNL     1      40.882 -14.031   3.527  1.00  0.00     0.169 HD
HETATM   20  O   UNL     1      44.064 -13.834   3.216  1.00  0.00    -0.273 OA
BRANCH  18  21
HETATM   21  C   UNL     1      41.606 -14.627   1.700  1.00  0.00     0.034 A 
HETATM   22  C   UNL     1      41.559 -15.976   1.347  1.00  0.00     0.032 A 
HETATM   23  C   UNL     1      41.370 -16.354   0.010  1.00  0.00     0.039 A 
HETATM   24  C   UNL     1      41.224 -15.385  -0.981  1.00  0.00     0.068 A 
HETATM   25  C   UNL     1      41.306 -14.039  -0.638  1.00  0.00     0.039 A 
HETATM   26  C   UNL     1      41.484 -13.660   0.696  1.00  0.00     0.032 A 
BRANCH  24  27
HETATM   27  O   UNL     1      41.044 -15.646  -2.309  1.00  0.00    -0.356 OA
HETATM   28  C   UNL     1      41.223 -14.523  -3.167  1.00  0.00     0.210 C 
ENDBRANCH  24  27
ENDBRANCH  18  21
ENDBRANCH  16  17
ENDBRANCH   2  16
TORSDOF 6
ENDMDL
MODEL 3
REMARK VINA RESULT:      -7.6      3.379      7.022
REMARK  6 active torsions:
REMARK  status: ('A' for Active; 'I' for Inactive)
REMARK    1  A    between atoms: C_2  and  N_3 
REMARK    2  A    between atoms: C_2  and  C_16 
REMARK    3  A    between atoms: N_3  and  C_6 
REMARK    4  A    between atoms: C_16  and  C_17 
REMARK       I    between atoms: C_17  and  N_18 
REMARK    5  A    between atoms: N_18  and  C_19 
REMARK    6  A    between atoms: C_22  and  O_23 
ROOT
HETATM    1  C   UNL     1      38.595 -14.713   1.516  1.00  0.00     0.040 C 
HETATM    2  C   UNL     1      39.804 -15.357   2.187  1.00  0.00     0.191 C 
ENDROOT
BRANCH   2   3
HETATM    3  N   UNL     1      40.562 -14.314   2.977  1.00  0.00    -0.063 N 
HETATM    4  H   UNL     1      41.561 -14.617   2.930  1.00  0.00     0.278 HD
HETATM    5  H   UNL     1      40.530 -13.411   2.491  1.00  0.00     0.278 HD
BRANCH   3   6
HETATM    6  C   UNL     1      40.247 -14.130   4.440  1.00  0.00     0.221 C 
HETATM    7  C   UNL     1      40.978 -15.101   5.326  1.00  0.00    -0.011 A 
HETATM    8  C   UNL     1      42.280 -14.842   5.777  1.00  0.00     0.009 A 
HETATM    9  C   UNL     1      40.347 -16.304   5.704  1.00  0.00     0.011 A 
HETATM   10  C   UNL     1      42.931 -15.790   6.579  1.00  0.00     0.019 A 
HETATM   11  S   UNL     1      43.196 -13.357   5.409  1.00  0.00    -0.129 SA
HETATM   12  C   UNL     1      42.300 -16.981   6.939  1.00  0.00     0.001 A 
HETATM   13  C   UNL     1      41.007 -17.237   6.503  1.00  0.00     0.001 A 
HETATM   14  C   UNL     1      41.969 -12.254   4.655  1.00  0.00     0.082 C 
HETATM   15  C   UNL     1      40.525 -12.680   4.845  1.00  0.00     0.048 C 
ENDBRANCH   3   6
ENDBRANCH   2   3
BRANCH   2  16
HETATM   16  C   UNL     1      40.721 -15.984   1.120  1.00  0.00     0.135 C 
BRANCH  16  17
HETATM   17  C   UNL     1      41.952 -16.608   1.746  1.00  0.00     0.224 C 
HETATM   18  N   UNL     1      41.833 -17.966   1.934  1.00  0.00    -0.327 N 
HETATM   19  H   UNL     1      40.985 -18.419   1.611  1.00  0.00     0.169 HD
HETATM   20  O   UNL     1      42.934 -15.900   1.955  1.00  0.00    -0.273 OA
BRANCH  18  21
HETATM   21  C   UNL     1      42.771 -18.833   2.536  1.00  0.00     0.034 A 
HETATM   22  C   UNL     1      43.382 -19.904   1.883  1.00  0.00     0.032 A 
HETATM   23  C   UNL     1      44.333 -20.692   2.547  1.00  0.00     0.039 A 
HETATM   24  C   UNL     1      44.681 -20.411   3.866  1.00  0.00     0.068 A 
HETATM   25  C   UNL     1      44.048 -19.367   4.533  1.00  0.00     0.039 A 
HETATM   26  C   UNL     1      43.107 -18.574   3.870  1.00  0.00     0.032 A 
BRANCH  24  27
HETATM   27  O   UNL     1      45.587 -21.119   4.604  1.00  0.00    -0.356 OA
HETATM   28  C   UNL     1      45.098 -22.350   5.128  1.00  0.00     0.210 C 
ENDBRANCH  24  27
ENDBRANCH  18  21
ENDBRANCH  16  17
ENDBRANCH   2  16
TORSDOF 6
ENDMDL
MODEL 4
REMARK VINA RESULT:      -7.4      1.372      1.582
REMARK  6 active torsions:
REMARK  status: ('A' for Active; 'I' for Inactive)
REMARK    1  A    between atoms: C_2  and  N_3 
REMARK    2  A    between atoms: C_2  and  C_16 
REMARK    3  A    between atoms: N_3  and  C_6 
REMARK    4  A    between atoms: C_16  and  C_17 
REMARK       I    between atoms: C_17  and  N_18 
REMARK    5  A    between atoms: N_18  and  C_19 
REMARK    6  A    between atoms: C_22  and  O_23 
ROOT
HETATM    1  C   UNL     1      41.369 -14.058   5.167  1.00  0.00     0.040 C 
HETATM    2  C   UNL     1      41.908 -14.689   3.888  1.00  0.00     0.191 C 
ENDROOT
BRANCH   2   3
HETATM    3  N   UNL     1      42.716 -15.920   4.229  1.00  0.00    -0.063 N 
HETATM    4  H   UNL     1      43.441 -15.980   3.479  1.00  0.00     0.278 HD
HETATM    5  H   UNL     1      43.238 -15.769   5.099  1.00  0.00     0.278 HD
BRANCH   3   6
HETATM    6  C   UNL     1      42.030 -17.262   4.260  1.00  0.00     0.221 C 
HETATM    7  C   UNL     1      42.903 -18.381   3.760  1.00  0.00    -0.011 A 
HETATM    8  C   UNL     1      43.802 -19.042   4.609  1.00  0.00     0.009 A 
HETATM    9  C   UNL     1      42.826 -18.768   2.406  1.00  0.00     0.011 A 
HETATM   10  C   UNL     1      44.615 -20.060   4.089  1.00  0.00     0.019 A 
HETATM   11  S   UNL     1      43.993 -18.687   6.345  1.00  0.00    -0.129 SA
HETATM   12  C   UNL     1      44.536 -20.428   2.746  1.00  0.00     0.001 A 
HETATM   13  C   UNL     1      43.639 -19.783   1.905  1.00  0.00     0.001 A 
HETATM   14  C   UNL     1      42.604 -17.586   6.729  1.00  0.00     0.082 C 
HETATM   15  C   UNL     1      41.514 -17.541   5.674  1.00  0.00     0.048 C 
ENDBRANCH   3   6
ENDBRANCH   2   3
BRANCH   2  16
HETATM   16  C   UNL     1      42.783 -13.671   3.133  1.00  0.00     0.135 C 
BRANCH  16  17
HETATM   17  C   UNL     1      42.276 -13.443   1.723  1.00  0.00     0.224 C 
HETATM   18  N   UNL     1      41.499 -14.477   1.255  1.00  0.00    -0.327 N 
HETATM   19  H   UNL     1      41.305 -15.250   1.882  1.00  0.00     0.169 HD
HETATM   20  O   UNL     1      42.525 -12.375   1.170  1.00  0.00    -0.273 OA
BRANCH  18  21
HETATM   21  C   UNL     1      40.920 -14.601  -0.027  1.00  0.00     0.034 A 
HETATM   22  C   UNL     1      41.418 -15.424  -1.038  1.00  0.00     0.032 A 
HETATM   23  C   UNL     1      40.757 -15.516  -2.271  1.00  0.00     0.039 A 
HETATM   24  C   UNL     1      39.590 -14.789  -2.498  1.00  0.00     0.068 A 
HETATM   25  C   UNL     1      39.108 -13.941  -1.506  1.00  0.00     0.039 A 
HETATM   26  C   UNL     1      39.761 -13.854  -0.273  1.00  0.00     0.032 A 
BRANCH  24  27
HETATM   27  O   UNL     1      38.875 -14.802  -3.662  1.00  0.00    -0.356 OA
HETATM   28  C   UNL     1      38.830 -16.065  -4.320  1.00  0.00     0.210 C 
ENDBRANCH  24  27
ENDBRANCH  18  21
ENDBRANCH  16  17
ENDBRANCH   2  16
TORSDOF 6
ENDMDL
MODEL 5
REMARK VINA RESULT:      -7.4      4.318      5.567
REMARK  6 active torsions:
REMARK  status: ('A' for Active; 'I' for Inactive)
REMARK    1  A    between atoms: C_2  and  N_3 
REMARK    2  A    between atoms: C_2  and  C_16 
REMARK    3  A    between atoms: N_3  and  C_6 
REMARK    4  A    between atoms: C_16  and  C_17 
REMARK       I    between atoms: C_17  and  N_18 
REMARK    5  A    between atoms: N_18  and  C_19 
REMARK    6  A    between atoms: C_22  and  O_23 
ROOT
HETATM    1  C   UNL     1      44.711 -18.139   6.828  1.00  0.00     0.040 C 
HETATM    2  C   UNL     1      43.200 -18.154   6.629  1.00  0.00     0.191 C 
ENDROOT
BRANCH   2   3
HETATM    3  N   UNL     1      42.879 -18.014   5.158  1.00  0.00    -0.063 N 
HETATM    4  H   UNL     1      42.224 -18.803   4.952  1.00  0.00     0.278 HD
HETATM    5  H   UNL     1      42.333 -17.161   4.996  1.00  0.00     0.278 HD
BRANCH   3   6
HETATM    6  C   UNL     1      43.995 -18.118   4.151  1.00  0.00     0.221 C 
HETATM    7  C   UNL     1      44.010 -19.434   3.422  1.00  0.00    -0.011 A 
HETATM    8  C   UNL     1      43.225 -19.646   2.279  1.00  0.00     0.009 A 
HETATM    9  C   UNL     1      44.820 -20.483   3.903  1.00  0.00     0.011 A 
HETATM   10  C   UNL     1      43.251 -20.899   1.651  1.00  0.00     0.019 A 
HETATM   11  S   UNL     1      42.175 -18.412   1.537  1.00  0.00    -0.129 SA
HETATM   12  C   UNL     1      44.051 -21.932   2.141  1.00  0.00     0.001 A 
HETATM   13  C   UNL     1      44.838 -21.723   3.266  1.00  0.00     0.001 A 
HETATM   14  C   UNL     1      42.625 -16.874   2.388  1.00  0.00     0.082 C 
HETATM   15  C   UNL     1      43.919 -16.938   3.179  1.00  0.00     0.048 C 
ENDBRANCH   3   6
ENDBRANCH   2   3
BRANCH   2  16
HETATM   16  C   UNL     1      42.557 -17.002   7.425  1.00  0.00     0.135 C 
BRANCH  16  17
HETATM   17  C   UNL     1      42.299 -15.797   6.542  1.00  0.00     0.224 C 
HETATM   18  N   UNL     1      40.961 -15.532   6.367  1.00  0.00    -0.327 N 
HETATM   19  H   UNL     1      40.291 -16.115   6.858  1.00  0.00     0.169 HD
HETATM   20  O   UNL     1      43.258 -15.144   6.137  1.00  0.00    -0.273 OA
BRANCH  18  21
HETATM   21  C   UNL     1      40.385 -14.521   5.567  1.00  0.00     0.034 A 
HETATM   22  C   UNL     1      39.935 -13.294   6.057  1.00  0.00     0.032 A 
HETATM   23  C   UNL     1      39.411 -12.330   5.184  1.00  0.00     0.039 A 
HETATM   24  C   UNL     1      39.337 -12.585   3.817  1.00  0.00     0.068 A 
HETATM   25  C   UNL     1      39.752 -13.821   3.328  1.00  0.00     0.039 A 
HETATM   26  C   UNL     1      40.283 -14.780   4.195  1.00  0.00     0.032 A 
BRANCH  24  27
HETATM   27  O   UNL     1      38.839 -11.720   2.885  1.00  0.00    -0.356 OA
HETATM   28  C   UNL     1      39.790 -11.260   1.929  1.00  0.00     0.210 C 
ENDBRANCH  24  27
ENDBRANCH  18  21
ENDBRANCH  16  17
ENDBRANCH   2  16
TORSDOF 6
ENDMDL
MODEL 6
REMARK VINA RESULT:      -7.2      3.334      5.858
REMARK  6 active torsions:
REMARK  status: ('A' for Active; 'I' for Inactive)
REMARK    1  A    between atoms: C_2  and  N_3 
REMARK    2  A    between atoms: C_2  and  C_16 
REMARK    3  A    between atoms: N_3  and  C_6 
REMARK    4  A    between atoms: C_16  and  C_17 
REMARK       I    between atoms: C_17  and  N_18 
REMARK    5  A    between atoms: N_18  and  C_19 
REMARK    6  A    between atoms: C_22  and  O_23 
ROOT
HETATM    1  C   UNL     1      40.895 -16.373   0.679  1.00  0.00     0.040 C 
HETATM    2  C   UNL     1      42.288 -15.830   0.977  1.00  0.00     0.191 C 
ENDROOT
BRANCH   2   3
HETATM    3  N   UNL     1      42.738 -16.305   2.340  1.00  0.00    -0.063 N 
HETATM    4  H   UNL     1      43.745 -16.557   2.216  1.00  0.00     0.278 HD
HETATM    5  H   UNL     1      42.735 -15.523   3.005  1.00  0.00     0.278 HD
BRANCH   3   6
HETATM    6  C   UNL     1      42.074 -17.512   2.952  1.00  0.00     0.221 C 
HETATM    7  C   UNL     1      42.974 -18.716   3.003  1.00  0.00    -0.011 A 
HETATM    8  C   UNL     1      43.868 -18.917   4.064  1.00  0.00     0.009 A 
HETATM    9  C   UNL     1      42.927 -19.660   1.957  1.00  0.00     0.011 A 
HETATM   10  C   UNL     1      44.707 -20.040   4.052  1.00  0.00     0.019 A 
HETATM   11  S   UNL     1      44.023 -17.830   5.469  1.00  0.00    -0.129 SA
HETATM   12  C   UNL     1      44.658 -20.963   3.008  1.00  0.00     0.001 A 
HETATM   13  C   UNL     1      43.765 -20.774   1.961  1.00  0.00     0.001 A 
HETATM   14  C   UNL     1      42.609 -16.704   5.317  1.00  0.00     0.082 C 
HETATM   15  C   UNL     1      41.538 -17.151   4.340  1.00  0.00     0.048 C 
ENDBRANCH   3   6
ENDBRANCH   2   3
BRANCH   2  16
HETATM   16  C   UNL     1      42.269 -14.290   0.931  1.00  0.00     0.135 C 
BRANCH  16  17
HETATM   17  C   UNL     1      42.191 -13.697   2.323  1.00  0.00     0.224 C 
HETATM   18  N   UNL     1      40.901 -13.480   2.747  1.00  0.00    -0.327 N 
HETATM   19  H   UNL     1      40.144 -13.764   2.136  1.00  0.00     0.169 HD
HETATM   20  O   UNL     1      43.232 -13.535   2.957  1.00  0.00    -0.273 OA
BRANCH  18  21
HETATM   21  C   UNL     1      40.485 -12.894   3.964  1.00  0.00     0.034 A 
HETATM   22  C   UNL     1      40.349 -11.520   4.168  1.00  0.00     0.032 A 
HETATM   23  C   UNL     1      39.893 -11.027   5.398  1.00  0.00     0.039 A 
HETATM   24  C   UNL     1      39.565 -11.904   6.430  1.00  0.00     0.068 A 
HETATM   25  C   UNL     1      39.733 -13.273   6.243  1.00  0.00     0.039 A 
HETATM   26  C   UNL     1      40.179 -13.768   5.014  1.00  0.00     0.032 A 
BRANCH  24  27
HETATM   27  O   UNL     1      39.120 -11.527   7.665  1.00  0.00    -0.356 OA
HETATM   28  C   UNL     1      40.029 -10.720   8.407  1.00  0.00     0.210 C 
ENDBRANCH  24  27
ENDBRANCH  18  21
ENDBRANCH  16  17
ENDBRANCH   2  16
TORSDOF 6
ENDMDL
MODEL 7
REMARK VINA RESULT:      -7.2      5.780      9.975
REMARK  6 active torsions:
REMARK  status: ('A' for Active; 'I' for Inactive)
REMARK    1  A    between atoms: C_2  and  N_3 
REMARK    2  A    between atoms: C_2  and  C_16 
REMARK    3  A    between atoms: N_3  and  C_6 
REMARK    4  A    between atoms: C_16  and  C_17 
REMARK       I    between atoms: C_17  and  N_18 
REMARK    5  A    between atoms: N_18  and  C_19 
REMARK    6  A    between atoms: C_22  and  O_23 
ROOT
HETATM    1  C   UNL     1      44.453 -16.548   6.920  1.00  0.00     0.040 C 
HETATM    2  C   UNL     1      43.951 -15.108   6.888  1.00  0.00     0.191 C 
ENDROOT
BRANCH   2   3
HETATM    3  N   UNL     1      42.879 -14.967   5.831  1.00  0.00    -0.063 N 
HETATM    4  H   UNL     1      42.361 -15.874   5.853  1.00  0.00     0.278 HD
HETATM    5  H   UNL     1      42.195 -14.257   6.116  1.00  0.00     0.278 HD
BRANCH   3   6
HETATM    6  C   UNL     1      43.288 -14.750   4.397  1.00  0.00     0.221 C 
HETATM    7  C   UNL     1      42.855 -15.866   3.487  1.00  0.00    -0.011 A 
HETATM    8  C   UNL     1      41.577 -15.888   2.911  1.00  0.00     0.009 A 
HETATM    9  C   UNL     1      43.749 -16.922   3.212  1.00  0.00     0.011 A 
HETATM   10  C   UNL     1      41.210 -16.964   2.092  1.00  0.00     0.019 A 
HETATM   11  S   UNL     1      40.349 -14.615   3.140  1.00  0.00    -0.129 SA
HETATM   12  C   UNL     1      42.100 -18.008   1.834  1.00  0.00     0.001 A 
HETATM   13  C   UNL     1      43.371 -17.985   2.393  1.00  0.00     0.001 A 
HETATM   14  C   UNL     1      41.251 -13.270   3.958  1.00  0.00     0.082 C 
HETATM   15  C   UNL     1      42.762 -13.395   3.914  1.00  0.00     0.048 C 
ENDBRANCH   3   6
ENDBRANCH   2   3
BRANCH   2  16
HETATM   16  C   UNL     1      45.122 -14.154   6.589  1.00  0.00     0.135 C 
BRANCH  16  17
HETATM   17  C   UNL     1      45.284 -13.118   7.682  1.00  0.00     0.224 C 
HETATM   18  N   UNL     1      44.132 -12.905   8.402  1.00  0.00    -0.327 N 
HETATM   19  H   UNL     1      43.319 -13.468   8.177  1.00  0.00     0.169 HD
HETATM   20  O   UNL     1      46.396 -12.631   7.877  1.00  0.00    -0.273 OA
BRANCH  18  21
HETATM   21  C   UNL     1      43.932 -11.976   9.447  1.00  0.00     0.034 A 
HETATM   22  C   UNL     1      44.624 -11.996  10.658  1.00  0.00     0.032 A 
HETATM   23  C   UNL     1      44.390 -11.010  11.627  1.00  0.00     0.039 A 
HETATM   24  C   UNL     1      43.466  -9.995  11.388  1.00  0.00     0.068 A 
HETATM   25  C   UNL     1      42.748  -9.991  10.196  1.00  0.00     0.039 A 
HETATM   26  C   UNL     1      42.986 -10.968   9.224  1.00  0.00     0.032 A 
BRANCH  24  27
HETATM   27  O   UNL     1      43.159  -8.994  12.265  1.00  0.00    -0.356 OA
HETATM   28  C   UNL     1      43.285  -9.345  13.640  1.00  0.00     0.210 C 
ENDBRANCH  24  27
ENDBRANCH  18  21
ENDBRANCH  16  17
ENDBRANCH   2  16
TORSDOF 6
ENDMDL
MODEL 8
REMARK VINA RESULT:      -7.2      2.046      4.248
REMARK  6 active torsions:
REMARK  status: ('A' for Active; 'I' for Inactive)
REMARK    1  A    between atoms: C_2  and  N_3 
REMARK    2  A    between atoms: C_2  and  C_16 
REMARK    3  A    between atoms: N_3  and  C_6 
REMARK    4  A    between atoms: C_16  and  C_17 
REMARK       I    between atoms: C_17  and  N_18 
REMARK    5  A    between atoms: N_18  and  C_19 
REMARK    6  A    between atoms: C_22  and  O_23 
ROOT
HETATM    1  C   UNL     1      43.609 -19.939   2.214  1.00  0.00     0.040 C 
HETATM    2  C   UNL     1      43.905 -18.449   2.347  1.00  0.00     0.191 C 
ENDROOT
BRANCH   2   3
HETATM    3  N   UNL     1      43.013 -17.846   3.408  1.00  0.00    -0.063 N 
HETATM    4  H   UNL     1      42.224 -17.410   2.877  1.00  0.00     0.278 HD
HETATM    5  H   UNL     1      42.583 -18.588   3.971  1.00  0.00     0.278 HD
BRANCH   3   6
HETATM    6  C   UNL     1      43.565 -16.766   4.303  1.00  0.00     0.221 C 
HETATM    7  C   UNL     1      42.863 -15.446   4.134  1.00  0.00    -0.011 A 
HETATM    8  C   UNL     1      41.685 -15.149   4.834  1.00  0.00     0.009 A 
HETATM    9  C   UNL     1      43.394 -14.489   3.245  1.00  0.00     0.011 A 
HETATM   10  C   UNL     1      41.053 -13.916   4.622  1.00  0.00     0.019 A 
HETATM   11  S   UNL     1      40.911 -16.241   6.011  1.00  0.00    -0.129 SA
HETATM   12  C   UNL     1      41.582 -12.980   3.733  1.00  0.00     0.001 A 
HETATM   13  C   UNL     1      42.755 -13.266   3.046  1.00  0.00     0.001 A 
HETATM   14  C   UNL     1      42.135 -17.556   6.268  1.00  0.00     0.082 C 
HETATM   15  C   UNL     1      43.528 -17.240   5.758  1.00  0.00     0.048 C 
ENDBRANCH   3   6
ENDBRANCH   2   3
BRANCH   2  16
HETATM   16  C   UNL     1      43.672 -17.749   0.995  1.00  0.00     0.135 C 
BRANCH  16  17
HETATM   17  C   UNL     1      42.243 -17.263   0.864  1.00  0.00     0.224 C 
HETATM   18  N   UNL     1      42.148 -16.006   0.313  1.00  0.00    -0.327 N 
HETATM   19  H   UNL     1      43.003 -15.550   0.015  1.00  0.00     0.169 HD
HETATM   20  O   UNL     1      41.328 -18.023   1.174  1.00  0.00    -0.273 OA
BRANCH  18  21
HETATM   21  C   UNL     1      40.974 -15.248   0.104  1.00  0.00     0.034 A 
HETATM   22  C   UNL     1      40.057 -14.929   1.105  1.00  0.00     0.032 A 
HETATM   23  C   UNL     1      38.936 -14.137   0.816  1.00  0.00     0.039 A 
HETATM   24  C   UNL     1      38.728 -13.658  -0.475  1.00  0.00     0.068 A 
HETATM   25  C   UNL     1      39.622 -14.003  -1.485  1.00  0.00     0.039 A 
HETATM   26  C   UNL     1      40.745 -14.784  -1.197  1.00  0.00     0.032 A 
BRANCH  24  27
HETATM   27  O   UNL     1      37.669 -12.888  -0.863  1.00  0.00    -0.356 OA
HETATM   28  C   UNL     1      37.695 -12.480  -2.227  1.00  0.00     0.210 C 
ENDBRANCH  24  27
ENDBRANCH  18  21
ENDBRANCH  16  17
ENDBRANCH   2  16
TORSDOF 6
ENDMDL
MODEL 9
REMARK VINA RESULT:      -7.1      2.900      3.327
REMARK  6 active torsions:
REMARK  status: ('A' for Active; 'I' for Inactive)
REMARK    1  A    between atoms: C_2  and  N_3 
REMARK    2  A    between atoms: C_2  and  C_16 
REMARK    3  A    between atoms: N_3  and  C_6 
REMARK    4  A    between atoms: C_16  and  C_17 
REMARK       I    between atoms: C_17  and  N_18 
REMARK    5  A    between atoms: N_18  and  C_19 
REMARK    6  A    between atoms: C_22  and  O_23 
ROOT
HETATM    1  C   UNL     1      42.400 -13.999   2.132  1.00  0.00     0.040 C 
HETATM    2  C   UNL     1      41.746 -15.372   2.025  1.00  0.00     0.191 C 
ENDROOT
BRANCH   2   3
HETATM    3  N   UNL     1      42.629 -16.408   2.684  1.00  0.00    -0.063 N 
HETATM    4  H   UNL     1      43.326 -16.671   1.950  1.00  0.00     0.278 HD
HETATM    5  H   UNL     1      43.178 -15.977   3.436  1.00  0.00     0.278 HD
BRANCH   3   6
HETATM    6  C   UNL     1      42.014 -17.698   3.162  1.00  0.00     0.221 C 
HETATM    7  C   UNL     1      42.961 -18.865   3.086  1.00  0.00    -0.011 A 
HETATM    8  C   UNL     1      43.864 -19.143   4.122  1.00  0.00     0.009 A 
HETATM    9  C   UNL     1      42.948 -19.693   1.945  1.00  0.00     0.011 A 
HETATM   10  C   UNL     1      44.746 -20.225   3.992  1.00  0.00     0.019 A 
HETATM   11  S   UNL     1      43.979 -18.207   5.635  1.00  0.00    -0.129 SA
HETATM   12  C   UNL     1      44.731 -21.032   2.855  1.00  0.00     0.001 A 
HETATM   13  C   UNL     1      43.830 -20.768   1.832  1.00  0.00     0.001 A 
HETATM   14  C   UNL     1      42.522 -17.127   5.601  1.00  0.00     0.082 C 
HETATM   15  C   UNL     1      41.467 -17.510   4.580  1.00  0.00     0.048 C 
ENDBRANCH   3   6
ENDBRANCH   2   3
BRANCH   2  16
HETATM   16  C   UNL     1      41.522 -15.730   0.544  1.00  0.00     0.135 C 
BRANCH  16  17
HETATM   17  C   UNL     1      41.204 -14.499  -0.280  1.00  0.00     0.224 C 
HETATM   18  N   UNL     1      42.237 -14.119  -1.105  1.00  0.00    -0.327 N 
HETATM   19  H   UNL     1      43.071 -14.696  -1.122  1.00  0.00     0.169 HD
HETATM   20  O   UNL     1      40.080 -14.009  -0.204  1.00  0.00    -0.273 OA
BRANCH  18  21
HETATM   21  C   UNL     1      42.285 -12.994  -1.957  1.00  0.00     0.034 A 
HETATM   22  C   UNL     1      41.822 -12.986  -3.274  1.00  0.00     0.032 A 
HETATM   23  C   UNL     1      41.872 -11.811  -4.038  1.00  0.00     0.039 A 
HETATM   24  C   UNL     1      42.381 -10.637  -3.489  1.00  0.00     0.068 A 
HETATM   25  C   UNL     1      42.876 -10.648  -2.188  1.00  0.00     0.039 A 
HETATM   26  C   UNL     1      42.819 -11.816  -1.421  1.00  0.00     0.032 A 
BRANCH  24  27
HETATM   27  O   UNL     1      42.480  -9.444  -4.147  1.00  0.00    -0.356 OA
HETATM   28  C   UNL     1      42.394  -8.293  -3.313  1.00  0.00     0.210 C 
ENDBRANCH  24  27
ENDBRANCH  18  21
ENDBRANCH  16  17
ENDBRANCH   2  16
TORSDOF 6
ENDMDL
MODEL 10
REMARK VINA RESULT:      -7.1      2.093      3.664
REMARK  6 active torsions:
REMARK  status: ('A' for Active; 'I' for Inactive)
REMARK    1  A    between atoms: C_2  and  N_3 
REMARK    2  A    between atoms: C_2  and  C_16 
REMARK    3  A    between atoms: N_3  and  C_6 
REMARK    4  A    between atoms: C_16  and  C_17 
REMARK       I    between atoms: C_17  and  N_18 
REMARK    5  A    between atoms: N_18  and  C_19 
REMARK    6  A    between atoms: C_22  and  O_23 
ROOT
HETATM    1  C   UNL     1      43.564 -19.618   2.459  1.00  0.00     0.040 C 
HETATM    2  C   UNL     1      44.022 -18.170   2.327  1.00  0.00     0.191 C 
ENDROOT
BRANCH   2   3
HETATM    3  N   UNL     1      43.300 -17.313   3.342  1.00  0.00    -0.063 N 
HETATM    4  H   UNL     1      44.060 -16.895   3.927  1.00  0.00     0.278 HD
HETATM    5  H   UNL     1      42.849 -16.518   2.876  1.00  0.00     0.278 HD
BRANCH   3   6
HETATM    6  C   UNL     1      42.340 -17.967   4.302  1.00  0.00     0.221 C 
HETATM    7  C   UNL     1      42.855 -18.005   5.715  1.00  0.00    -0.011 A 
HETATM    8  C   UNL     1      42.680 -16.921   6.587  1.00  0.00     0.009 A 
HETATM    9  C   UNL     1      43.539 -19.150   6.172  1.00  0.00     0.011 A 
HETATM   10  C   UNL     1      43.203 -16.993   7.886  1.00  0.00     0.019 A 
HETATM   11  S   UNL     1      41.814 -15.420   6.166  1.00  0.00    -0.129 SA
HETATM   12  C   UNL     1      43.886 -18.128   8.324  1.00  0.00     0.001 A 
HETATM   13  C   UNL     1      44.052 -19.208   7.468  1.00  0.00     0.001 A 
HETATM   14  C   UNL     1      41.018 -15.796   4.580  1.00  0.00     0.082 C 
HETATM   15  C   UNL     1      40.979 -17.270   4.219  1.00  0.00     0.048 C 
ENDBRANCH   3   6
ENDBRANCH   2   3
BRANCH   2  16
HETATM   16  C   UNL     1      43.735 -17.660   0.902  1.00  0.00     0.135 C 
BRANCH  16  17
HETATM   17  C   UNL     1      42.297 -17.202   0.758  1.00  0.00     0.224 C 
HETATM   18  N   UNL     1      42.184 -15.923   0.267  1.00  0.00    -0.327 N 
HETATM   19  H   UNL     1      43.035 -15.432   0.013  1.00  0.00     0.169 HD
HETATM   20  O   UNL     1      41.395 -17.998   1.007  1.00  0.00    -0.273 OA
BRANCH  18  21
HETATM   21  C   UNL     1      40.998 -15.184   0.065  1.00  0.00     0.034 A 
HETATM   22  C   UNL     1      40.114 -14.823   1.083  1.00  0.00     0.032 A 
HETATM   23  C   UNL     1      38.977 -14.054   0.798  1.00  0.00     0.039 A 
HETATM   24  C   UNL     1      38.719 -13.637  -0.506  1.00  0.00     0.068 A 
HETATM   25  C   UNL     1      39.579 -14.023  -1.530  1.00  0.00     0.039 A 
HETATM   26  C   UNL     1      40.718 -14.782  -1.247  1.00  0.00     0.032 A 
BRANCH  24  27
HETATM   27  O   UNL     1      37.640 -12.893  -0.891  1.00  0.00    -0.356 OA
HETATM   28  C   UNL     1      37.627 -12.528  -2.268  1.00  0.00     0.210 C 
ENDBRANCH  24  27
ENDBRANCH  18  21
ENDBRANCH  16  17
ENDBRANCH   2  16
TORSDOF 6
ENDMDL
